@<TRIPOS>MOLECULE
*****
 29 32 0 0 0
SMALL
GASTEIGER

@<TRIPOS>ATOM
      1 C          63.9236   89.2834   11.5150 C.ar    1  UNL1        0.1405
      2 N          64.5438   89.4863   12.6986 N.ar    1  UNL1       -0.2270
      3 C          65.5667   90.3167   12.4120 C.ar    1  UNL1        0.0984
      4 C          65.5419   90.6160   11.0562 C.ar    1  UNL1        0.0756
      5 N          64.5121   89.9538   10.5007 N.ar    1  UNL1       -0.3373
      6 H          64.2090   90.0090    9.5038 H       1  UNL1        0.1674
      7 C          66.5571   90.7424   13.4238 C.ar    1  UNL1        0.0193
      8 C          66.1183   91.2159   14.6714 C.ar    1  UNL1        0.0038
      9 C          67.0439   91.6062   15.6442 C.ar    1  UNL1        0.0297
     10 C          68.4141   91.5136   15.3850 C.ar    1  UNL1        0.1401
     11 F          69.3101   91.8914   16.3299 F       1  UNL1       -0.2042
     12 C          68.8601   91.0230   14.1550 C.ar    1  UNL1        0.0297
     13 C          67.9378   90.6313   13.1800 C.ar    1  UNL1        0.0038
     14 C          60.4466   86.7814   11.1375 C.ar    1  UNL1        0.0407
     15 C          60.7227   87.7408   10.1583 C.ar    1  UNL1        0.0076
     16 C          61.8511   88.5584   10.2725 C.ar    1  UNL1        0.0035
     17 C          62.7191   88.4278   11.3737 C.ar    1  UNL1        0.0340
     18 C          62.4329   87.4551   12.3501 C.ar    1  UNL1        0.0035
     19 C          61.3034   86.6399   12.2324 C.ar    1  UNL1        0.0076
     20 C          58.9208   84.6331   12.3687 C.3     1  UNL1        0.0927
     21 S          59.0326   85.7536   10.9933 S.3     1  UNL1       -0.0413
     22 O          59.0621   84.9193    9.5358 O.3     1  UNL1       -0.3349
     23 H          58.2754   84.3557    9.4698 H       1  UNL1        0.2267
     24 C          66.3904   91.5723   10.3123 C.ar    1  UNL1        0.0202
     25 C          66.0211   92.9209   10.1876 C.ar    1  UNL1        0.0222
     26 C          66.8364   93.7947    9.4646 C.ar    1  UNL1        0.0989
     27 N          67.9726   93.3373    8.8750 N.ar    1  UNL1       -0.2423
     28 C          68.3465   92.0337    8.9656 C.ar    1  UNL1        0.0989
     29 C          67.5599   91.1264    9.6796 C.ar    1  UNL1        0.0222
@<TRIPOS>BOND
     1    20    21    1
     2    21    22    1
     3    21    14    1
     4    14    15   ar
     5    15    16   ar
     6    16    17   ar
     7    17     1    1
     8     1     2   ar
     9     2     3   ar
    10     3     7    1
    11     7     8   ar
    12     8     9   ar
    13     9    10   ar
    14    10    11    1
    15    10    12   ar
    16    12    13   ar
    17     3     4   ar
    18     4    24    1
    19    24    25   ar
    20    25    26   ar
    21    26    27   ar
    22    27    28   ar
    23    28    29   ar
    24     4     5   ar
    25    17    18   ar
    26    18    19   ar
    27    19    14   ar
    28     5     1   ar
    29    13     7   ar
    30    29    24   ar
    31     5     6    1
    32    22    23    1
@<TRIPOS>MOLECULE
*****
 29 32 0 0 0
SMALL
GASTEIGER

@<TRIPOS>ATOM
      1 C          62.4176   87.7058   12.0293 C.ar    1  UNL1        0.1405
      2 N          62.3877   87.1164   10.8134 N.ar    1  UNL1       -0.2270
      3 C          61.3003   86.3198   10.8450 C.ar    1  UNL1        0.0984
      4 C          60.6781   86.4501   12.0795 C.ar    1  UNL1        0.0756
      5 N          61.3937   87.3152   12.8192 N.ar    1  UNL1       -0.3373
      6 H          61.1563   87.6502   13.7783 H       1  UNL1        0.1674
      7 C          60.9324   85.4262    9.7261 C.ar    1  UNL1        0.0193
      8 C          61.7376   84.3139    9.4297 C.ar    1  UNL1        0.0038
      9 C          61.3929   83.4505    8.3851 C.ar    1  UNL1        0.0297
     10 C          60.2350   83.6821    7.6376 C.ar    1  UNL1        0.1401
     11 F          59.9018   82.8433    6.6259 F       1  UNL1       -0.2042
     12 C          59.4162   84.7735    7.9394 C.ar    1  UNL1        0.0297
     13 C          59.7571   85.6387    8.9834 C.ar    1  UNL1        0.0038
     14 C          65.4337   90.5338   13.2119 C.ar    1  UNL1        0.0407
     15 C          65.0102   90.4847   11.8801 C.ar    1  UNL1        0.0076
     16 C          64.0299   89.5688   11.4865 C.ar    1  UNL1        0.0035
     17 C          63.4608   88.6851   12.4237 C.ar    1  UNL1        0.0340
     18 C          63.8920   88.7476   13.7622 C.ar    1  UNL1        0.0035
     19 C          64.8727   89.6645   14.1515 C.ar    1  UNL1        0.0076
     20 C          67.4202   91.1839   15.2343 C.3     1  UNL1        0.0927
     21 S          66.6616   91.6844   13.7066 S.3     1  UNL1       -0.0413
     22 O          66.0023   93.2239   13.8359 O.3     1  UNL1       -0.3349
     23 H          66.6917   93.8489   14.1098 H       1  UNL1        0.2267
     24 C          59.3954   85.8647   12.5265 C.ar    1  UNL1        0.0202
     25 C          58.3932   86.6675   13.0938 C.ar    1  UNL1        0.0222
     26 C          57.1996   86.0810   13.5208 C.ar    1  UNL1        0.0989
     27 N          57.0170   84.7395   13.3993 N.ar    1  UNL1       -0.2423
     28 C          57.9761   83.9356   12.8688 C.ar    1  UNL1        0.0989
     29 C          59.1845   84.4816   12.4290 C.ar    1  UNL1        0.0222
@<TRIPOS>BOND
     1    20    21    1
     2    21    22    1
     3    21    14    1
     4    14    15   ar
     5    15    16   ar
     6    16    17   ar
     7    17     1    1
     8     1     2   ar
     9     2     3   ar
    10     3     7    1
    11     7     8   ar
    12     8     9   ar
    13     9    10   ar
    14    10    11    1
    15    10    12   ar
    16    12    13   ar
    17     3     4   ar
    18     4    24    1
    19    24    25   ar
    20    25    26   ar
    21    26    27   ar
    22    27    28   ar
    23    28    29   ar
    24     4     5   ar
    25    17    18   ar
    26    18    19   ar
    27    19    14   ar
    28     5     1   ar
    29    13     7   ar
    30    29    24   ar
    31     5     6    1
    32    22    23    1
@<TRIPOS>MOLECULE
*****
 29 32 0 0 0
SMALL
GASTEIGER

@<TRIPOS>ATOM
      1 C          63.8321   89.0439   12.0549 C.ar    1  UNL1        0.1405
      2 N          64.3521   89.6764   10.9797 N.ar    1  UNL1       -0.2270
      3 C          65.3702   90.4103   11.4726 C.ar    1  UNL1        0.0984
      4 C          65.4601   90.1992   12.8422 C.ar    1  UNL1        0.0756
      5 N          64.4831   89.3473   13.1990 N.ar    1  UNL1       -0.3373
      6 H          64.3180   88.9636   14.1551 H       1  UNL1        0.1674
      7 C          66.1748   91.3241   10.6341 C.ar    1  UNL1        0.0193
      8 C          67.3207   90.8416    9.9802 C.ar    1  UNL1        0.0038
      9 C          68.0820   91.6903    9.1703 C.ar    1  UNL1        0.0297
     10 C          67.6980   93.0226    8.9954 C.ar    1  UNL1        0.1401
     11 F          68.4366   93.8436    8.2088 F       1  UNL1       -0.2042
     12 C          66.5473   93.5055    9.6241 C.ar    1  UNL1        0.0297
     13 C          65.7832   92.6601   10.4342 C.ar    1  UNL1        0.0038
     14 C          60.4932   86.3515   11.7461 C.ar    1  UNL1        0.0407
     15 C          61.1972   86.4512   12.9502 C.ar    1  UNL1        0.0076
     16 C          62.2838   87.3241   13.0600 C.ar    1  UNL1        0.0035
     17 C          62.6830   88.1092   11.9611 C.ar    1  UNL1        0.0340
     18 C          61.9633   88.0033   10.7561 C.ar    1  UNL1        0.0035
     19 C          60.8777   87.1290   10.6503 C.ar    1  UNL1        0.0076
     20 C          59.3948   83.7879   12.5710 C.3     1  UNL1        0.0927
     21 S          59.1283   85.2584   11.6086 S.3     1  UNL1       -0.0413
     22 O          58.8407   84.8816    9.9972 O.3     1  UNL1       -0.3349
     23 H          58.0844   84.2773    9.9365 H       1  UNL1        0.2267
     24 C          66.4895   90.6959   13.7811 C.ar    1  UNL1        0.0202
     25 C          67.8469   90.7116   13.4233 C.ar    1  UNL1        0.0222
     26 C          68.7957   91.1716   14.3393 C.ar    1  UNL1        0.0989
     27 N          68.4068   91.5883   15.5733 N.ar    1  UNL1       -0.2423
     28 C          67.1017   91.5692   15.9527 C.ar    1  UNL1        0.0989
     29 C          66.1205   91.1169   15.0670 C.ar    1  UNL1        0.0222
@<TRIPOS>BOND
     1    20    21    1
     2    21    22    1
     3    21    14    1
     4    14    15   ar
     5    15    16   ar
     6    16    17   ar
     7    17     1    1
     8     1     2   ar
     9     2     3   ar
    10     3     7    1
    11     7     8   ar
    12     8     9   ar
    13     9    10   ar
    14    10    11    1
    15    10    12   ar
    16    12    13   ar
    17     3     4   ar
    18     4    24    1
    19    24    25   ar
    20    25    26   ar
    21    26    27   ar
    22    27    28   ar
    23    28    29   ar
    24     4     5   ar
    25    17    18   ar
    26    18    19   ar
    27    19    14   ar
    28     5     1   ar
    29    13     7   ar
    30    29    24   ar
    31     5     6    1
    32    22    23    1
@<TRIPOS>MOLECULE
*****
 29 32 0 0 0
SMALL
GASTEIGER

@<TRIPOS>ATOM
      1 C          61.8844   87.4416   11.5072 C.ar    1  UNL1        0.1405
      2 N          61.7398   86.5932   10.4651 N.ar    1  UNL1       -0.2270
      3 C          60.6610   85.8470   10.7774 C.ar    1  UNL1        0.0984
      4 C          60.1588   86.2660   12.0023 C.ar    1  UNL1        0.0756
      5 N          60.9405   87.2610   12.4565 N.ar    1  UNL1       -0.3373
      6 H          60.7950   87.8092   13.3323 H       1  UNL1        0.1674
      7 C          60.1895   84.7312    9.9298 C.ar    1  UNL1        0.0193
      8 C          60.9735   83.5723    9.8047 C.ar    1  UNL1        0.0038
      9 C          60.5323   82.5022    9.0200 C.ar    1  UNL1        0.0297
     10 C          59.2995   82.5745    8.3657 C.ar    1  UNL1        0.1401
     11 F          58.8728   81.5355    7.6062 F       1  UNL1       -0.2042
     12 C          58.5027   83.7143    8.5022 C.ar    1  UNL1        0.0297
     13 C          58.9401   84.7861    9.2863 C.ar    1  UNL1        0.0038
     14 C          64.9964   90.4061   11.6493 C.ar    1  UNL1        0.0407
     15 C          64.7045   89.6490   12.7881 C.ar    1  UNL1        0.0076
     16 C          63.6947   88.6827   12.7512 C.ar    1  UNL1        0.0035
     17 C          62.9594   88.4630   11.5704 C.ar    1  UNL1        0.0340
     18 C          63.2660   89.2281   10.4293 C.ar    1  UNL1        0.0035
     19 C          64.2761   90.1936   10.4706 C.ar    1  UNL1        0.0076
     20 C          66.5475   92.2988   10.0774 C.3     1  UNL1        0.0927
     21 S          66.2649   91.6166   11.6944 S.3     1  UNL1       -0.0413
     22 O          67.6758   90.9619   12.3285 O.3     1  UNL1       -0.3349
     23 H          68.3676   91.6416   12.3474 H       1  UNL1        0.2267
     24 C          58.9249   85.8235   12.6876 C.ar    1  UNL1        0.0202
     25 C          58.6903   84.4640   12.9474 C.ar    1  UNL1        0.0222
     26 C          57.5074   84.0777   13.5818 C.ar    1  UNL1        0.0989
     27 N          56.5846   85.0122   13.9323 N.ar    1  UNL1       -0.2423
     28 C          56.7777   86.3335   13.6788 C.ar    1  UNL1        0.0989
     29 C          57.9472   86.7628   13.0465 C.ar    1  UNL1        0.0222
@<TRIPOS>BOND
     1    20    21    1
     2    21    22    1
     3    21    14    1
     4    14    15   ar
     5    15    16   ar
     6    16    17   ar
     7    17     1    1
     8     1     2   ar
     9     2     3   ar
    10     3     7    1
    11     7     8   ar
    12     8     9   ar
    13     9    10   ar
    14    10    11    1
    15    10    12   ar
    16    12    13   ar
    17     3     4   ar
    18     4    24    1
    19    24    25   ar
    20    25    26   ar
    21    26    27   ar
    22    27    28   ar
    23    28    29   ar
    24     4     5   ar
    25    17    18   ar
    26    18    19   ar
    27    19    14   ar
    28     5     1   ar
    29    13     7   ar
    30    29    24   ar
    31     5     6    1
    32    22    23    1
@<TRIPOS>MOLECULE
*****
 29 32 0 0 0
SMALL
GASTEIGER

@<TRIPOS>ATOM
      1 C          62.5369   87.8924   11.8638 C.ar    1  UNL1        0.1405
      2 N          61.6203   87.3976   12.7250 N.ar    1  UNL1       -0.2270
      3 C          60.8603   86.5704   11.9792 C.ar    1  UNL1        0.0984
      4 C          61.3390   86.5663   10.6757 C.ar    1  UNL1        0.0756
      5 N          62.3857   87.4077   10.6120 N.ar    1  UNL1       -0.3373
      6 H          62.9829   87.5872    9.7755 H       1  UNL1        0.1674
      7 C          59.6786   85.8663   12.5210 C.ar    1  UNL1        0.0193
      8 C          59.6390   84.4621   12.5100 C.ar    1  UNL1        0.0038
      9 C          58.5352   83.7824   13.0343 C.ar    1  UNL1        0.0297
     10 C          57.4690   84.4977   13.5863 C.ar    1  UNL1        0.1401
     11 F          56.4001   83.8370   14.0953 F       1  UNL1       -0.2042
     12 C          57.5095   85.8941   13.6217 C.ar    1  UNL1        0.0297
     13 C          58.6116   86.5773   13.0989 C.ar    1  UNL1        0.0038
     14 C          65.5948   90.6529   13.0973 C.ar    1  UNL1        0.0407
     15 C          65.1946   90.6112   11.7581 C.ar    1  UNL1        0.0076
     16 C          64.2009   89.7172   11.3480 C.ar    1  UNL1        0.0035
     17 C          63.5949   88.8483   12.2759 C.ar    1  UNL1        0.0340
     18 C          64.0031   88.9033   13.6219 C.ar    1  UNL1        0.0035
     19 C          64.9972   89.7983   14.0278 C.ar    1  UNL1        0.0076
     20 C          67.6550   91.1889   15.0791 C.3     1  UNL1        0.0927
     21 S          66.8395   91.7761   13.6128 S.3     1  UNL1       -0.0413
     22 O          66.1844   93.3034   13.8568 O.3     1  UNL1       -0.3349
     23 H          66.8831   93.9132   14.1412 H       1  UNL1        0.2267
     24 C          60.9003   85.7261    9.5402 C.ar    1  UNL1        0.0202
     25 C          59.6053   85.8446    9.0113 C.ar    1  UNL1        0.0222
     26 C          59.2170   85.0247    7.9492 C.ar    1  UNL1        0.0989
     27 N          60.0843   84.1095    7.4414 N.ar    1  UNL1       -0.2423
     28 C          61.3385   83.9617    7.9439 C.ar    1  UNL1        0.0989
     29 C          61.7673   84.7618    9.0059 C.ar    1  UNL1        0.0222
@<TRIPOS>BOND
     1    20    21    1
     2    21    22    1
     3    21    14    1
     4    14    15   ar
     5    15    16   ar
     6    16    17   ar
     7    17     1    1
     8     1     2   ar
     9     2     3   ar
    10     3     7    1
    11     7     8   ar
    12     8     9   ar
    13     9    10   ar
    14    10    11    1
    15    10    12   ar
    16    12    13   ar
    17     3     4   ar
    18     4    24    1
    19    24    25   ar
    20    25    26   ar
    21    26    27   ar
    22    27    28   ar
    23    28    29   ar
    24     4     5   ar
    25    17    18   ar
    26    18    19   ar
    27    19    14   ar
    28     5     1   ar
    29    13     7   ar
    30    29    24   ar
    31     5     6    1
    32    22    23    1
@<TRIPOS>MOLECULE
*****
 29 32 0 0 0
SMALL
GASTEIGER

@<TRIPOS>ATOM
      1 C          62.5517   88.1195   12.1209 C.ar    1  UNL1        0.1405
      2 N          62.0153   87.0260   12.7066 N.ar    1  UNL1       -0.2270
      3 C          61.1498   86.5382   11.7950 C.ar    1  UNL1        0.0984
      4 C          61.1858   87.3392   10.6612 C.ar    1  UNL1        0.0756
      5 N          62.0620   88.3351   10.8805 N.ar    1  UNL1       -0.3373
      6 H          62.3389   89.0745   10.1985 H       1  UNL1        0.1674
      7 C          60.2841   85.3696   12.0611 C.ar    1  UNL1        0.0193
      8 C          58.9215   85.5624   12.3432 C.ar    1  UNL1        0.0038
      9 C          58.0872   84.4656   12.5803 C.ar    1  UNL1        0.0297
     10 C          58.6026   83.1678   12.5239 C.ar    1  UNL1        0.1401
     11 F          57.7919   82.1055   12.7529 F       1  UNL1       -0.2042
     12 C          59.9519   82.9653   12.2222 C.ar    1  UNL1        0.0297
     13 C          60.7892   84.0593   11.9840 C.ar    1  UNL1        0.0038
     14 C          65.5080   90.5593   14.0703 C.ar    1  UNL1        0.0407
     15 C          65.4081   90.5690   12.6756 C.ar    1  UNL1        0.0076
     16 C          64.4497   89.7793   12.0331 C.ar    1  UNL1        0.0035
     17 C          63.5778   88.9646   12.7810 C.ar    1  UNL1        0.0340
     18 C          63.6852   88.9673   14.1845 C.ar    1  UNL1        0.0035
     19 C          64.6451   89.7580   14.8230 C.ar    1  UNL1        0.0076
     20 C          68.3431   90.9021   14.6215 C.3     1  UNL1        0.0927
     21 S          66.7084   91.5518   14.8769 S.3     1  UNL1       -0.0413
     22 O          66.3580   91.6781   16.5147 O.3     1  UNL1       -0.3349
     23 H          67.0291   92.2290   16.9474 H       1  UNL1        0.2267
     24 C          60.5002   87.1290    9.3675 C.ar    1  UNL1        0.0202
     25 C          59.9586   85.8782    9.0314 C.ar    1  UNL1        0.0222
     26 C          59.3319   85.7085    7.7947 C.ar    1  UNL1        0.0989
     27 N          59.2597   86.7451    6.9184 N.ar    1  UNL1       -0.2423
     28 C          59.7892   87.9624    7.2104 C.ar    1  UNL1        0.0989
     29 C          60.4245   88.1750    8.4364 C.ar    1  UNL1        0.0222
@<TRIPOS>BOND
     1    20    21    1
     2    21    22    1
     3    21    14    1
     4    14    15   ar
     5    15    16   ar
     6    16    17   ar
     7    17     1    1
     8     1     2   ar
     9     2     3   ar
    10     3     7    1
    11     7     8   ar
    12     8     9   ar
    13     9    10   ar
    14    10    11    1
    15    10    12   ar
    16    12    13   ar
    17     3     4   ar
    18     4    24    1
    19    24    25   ar
    20    25    26   ar
    21    26    27   ar
    22    27    28   ar
    23    28    29   ar
    24     4     5   ar
    25    17    18   ar
    26    18    19   ar
    27    19    14   ar
    28     5     1   ar
    29    13     7   ar
    30    29    24   ar
    31     5     6    1
    32    22    23    1
@<TRIPOS>MOLECULE
*****
 29 32 0 0 0
SMALL
GASTEIGER

@<TRIPOS>ATOM
      1 C          62.4353   87.1773   13.4232 C.ar    1  UNL1        0.1405
      2 N          62.7336   85.8842   13.1671 N.ar    1  UNL1       -0.2270
      3 C          61.5555   85.2351   13.2619 C.ar    1  UNL1        0.0984
      4 C          60.5557   86.1510   13.5615 C.ar    1  UNL1        0.0756
      5 N          61.1208   87.3661   13.6705 N.ar    1  UNL1       -0.3373
      6 H          60.6215   88.2649   13.8477 H       1  UNL1        0.1674
      7 C          61.4389   83.7679   13.1229 C.ar    1  UNL1        0.0193
      8 C          61.0226   83.2152   11.9003 C.ar    1  UNL1        0.0038
      9 C          60.9240   81.8285   11.7491 C.ar    1  UNL1        0.0297
     10 C          61.2534   80.9825   12.8115 C.ar    1  UNL1        0.1401
     11 F          61.1583   79.6382   12.6626 F       1  UNL1       -0.2042
     12 C          61.6897   81.5224   14.0242 C.ar    1  UNL1        0.0297
     13 C          61.7901   82.9083   14.1792 C.ar    1  UNL1        0.0038
     14 C          65.3907   90.3010   13.4276 C.ar    1  UNL1        0.0407
     15 C          64.7057   89.9934   12.2480 C.ar    1  UNL1        0.0076
     16 C          63.7429   88.9796   12.2371 C.ar    1  UNL1        0.0035
     17 C          63.4544   88.2562   13.4104 C.ar    1  UNL1        0.0340
     18 C          64.1473   88.5787   14.5925 C.ar    1  UNL1        0.0035
     19 C          65.1095   89.5927   14.5990 C.ar    1  UNL1        0.0076
     20 C          67.8847   91.2140   14.6132 C.3     1  UNL1        0.0927
     21 S          66.5968   91.5745   13.4423 S.3     1  UNL1       -0.0413
     22 O          65.8785   93.0566   13.7721 O.3     1  UNL1       -0.3349
     23 H          66.5563   93.7504   13.7771 H       1  UNL1        0.2267
     24 C          59.0968   85.9219   13.6447 C.ar    1  UNL1        0.0202
     25 C          58.5812   84.6582   13.9734 C.ar    1  UNL1        0.0222
     26 C          57.1981   84.4710   14.0276 C.ar    1  UNL1        0.0989
     27 N          56.3585   85.5034   13.7503 N.ar    1  UNL1       -0.2423
     28 C          56.8293   86.7332   13.4136 C.ar    1  UNL1        0.0989
     29 C          58.2057   86.9635   13.3482 C.ar    1  UNL1        0.0222
@<TRIPOS>BOND
     1    20    21    1
     2    21    22    1
     3    21    14    1
     4    14    15   ar
     5    15    16   ar
     6    16    17   ar
     7    17     1    1
     8     1     2   ar
     9     2     3   ar
    10     3     7    1
    11     7     8   ar
    12     8     9   ar
    13     9    10   ar
    14    10    11    1
    15    10    12   ar
    16    12    13   ar
    17     3     4   ar
    18     4    24    1
    19    24    25   ar
    20    25    26   ar
    21    26    27   ar
    22    27    28   ar
    23    28    29   ar
    24     4     5   ar
    25    17    18   ar
    26    18    19   ar
    27    19    14   ar
    28     5     1   ar
    29    13     7   ar
    30    29    24   ar
    31     5     6    1
    32    22    23    1
@<TRIPOS>MOLECULE
*****
 29 32 0 0 0
SMALL
GASTEIGER

@<TRIPOS>ATOM
      1 C          62.5395   87.0069   12.3019 C.ar    1  UNL1        0.1405
      2 N          61.8471   86.0325   12.9326 N.ar    1  UNL1       -0.2270
      3 C          61.3501   85.2672   11.9399 C.ar    1  UNL1        0.0984
      4 C          61.7624   85.7841   10.7188 C.ar    1  UNL1        0.0756
      5 N          62.5003   86.8823   10.9574 N.ar    1  UNL1       -0.3373
      6 H          62.9855   87.4669   10.2422 H       1  UNL1        0.1674
      7 C          60.4582   84.1150   12.1902 C.ar    1  UNL1        0.0193
      8 C          59.0652   84.2950   12.1675 C.ar    1  UNL1        0.0038
      9 C          58.2091   83.2111   12.3858 C.ar    1  UNL1        0.0297
     10 C          58.7359   81.9369   12.6142 C.ar    1  UNL1        0.1401
     11 F          57.9044   80.8869   12.8244 F       1  UNL1       -0.2042
     12 C          60.1199   81.7441   12.6165 C.ar    1  UNL1        0.0297
     13 C          60.9791   82.8253   12.3982 C.ar    1  UNL1        0.0038
     14 C          64.6736   90.1129   14.3731 C.ar    1  UNL1        0.0407
     15 C          63.9189   89.1854   15.0979 C.ar    1  UNL1        0.0076
     16 C          63.2220   88.1718   14.4330 C.ar    1  UNL1        0.0035
     17 C          63.2695   88.0752   13.0289 C.ar    1  UNL1        0.0340
     18 C          64.0367   89.0120   12.3111 C.ar    1  UNL1        0.0035
     19 C          64.7316   90.0241   12.9796 C.ar    1  UNL1        0.0076
     20 C          67.2821   90.9960   15.3087 C.3     1  UNL1        0.0927
     21 S          65.5502   91.3830   15.2070 S.3     1  UNL1       -0.0413
     22 O          64.8980   91.6386   16.7336 O.3     1  UNL1       -0.3349
     23 H          65.3919   92.3425   17.1825 H       1  UNL1        0.2267
     24 C          61.5619   85.2164    9.3677 C.ar    1  UNL1        0.0202
     25 C          60.2859   85.1724    8.7842 C.ar    1  UNL1        0.0222
     26 C          60.1280   84.6149    7.5134 C.ar    1  UNL1        0.0989
     27 N          61.2019   84.1065    6.8532 N.ar    1  UNL1       -0.2423
     28 C          62.4462   84.1210    7.4002 C.ar    1  UNL1        0.0989
     29 C          62.6481   84.6696    8.6690 C.ar    1  UNL1        0.0222
@<TRIPOS>BOND
     1    20    21    1
     2    21    22    1
     3    21    14    1
     4    14    15   ar
     5    15    16   ar
     6    16    17   ar
     7    17     1    1
     8     1     2   ar
     9     2     3   ar
    10     3     7    1
    11     7     8   ar
    12     8     9   ar
    13     9    10   ar
    14    10    11    1
    15    10    12   ar
    16    12    13   ar
    17     3     4   ar
    18     4    24    1
    19    24    25   ar
    20    25    26   ar
    21    26    27   ar
    22    27    28   ar
    23    28    29   ar
    24     4     5   ar
    25    17    18   ar
    26    18    19   ar
    27    19    14   ar
    28     5     1   ar
    29    13     7   ar
    30    29    24   ar
    31     5     6    1
    32    22    23    1
@<TRIPOS>MOLECULE
*****
 29 32 0 0 0
SMALL
GASTEIGER

@<TRIPOS>ATOM
      1 C          62.5117   88.4822   10.1169 C.ar    1  UNL1        0.1405
      2 N          62.5157   87.1448    9.9218 N.ar    1  UNL1       -0.2270
      3 C          61.6236   86.9399    8.9317 C.ar    1  UNL1        0.0984
      4 C          61.1014   88.1627    8.5313 C.ar    1  UNL1        0.0756
      5 N          61.6584   89.1235    9.2890 N.ar    1  UNL1       -0.3373
      6 H          61.4988   90.1506    9.1986 H       1  UNL1        0.1674
      7 C          61.2621   85.5899    8.4495 C.ar    1  UNL1        0.0193
      8 C          62.2026   84.8315    7.7327 C.ar    1  UNL1        0.0038
      9 C          61.8804   83.5465    7.2850 C.ar    1  UNL1        0.0297
     10 C          60.6229   83.0030    7.5612 C.ar    1  UNL1        0.1401
     11 F          60.3126   81.7564    7.1274 F       1  UNL1       -0.2042
     12 C          59.6888   83.7413    8.2927 C.ar    1  UNL1        0.0297
     13 C          60.0073   85.0262    8.7424 C.ar    1  UNL1        0.0038
     14 C          65.0280   90.4381   13.0039 C.ar    1  UNL1        0.0407
     15 C          64.1034   89.4773   13.4249 C.ar    1  UNL1        0.0076
     16 C          63.2814   88.8359   12.4933 C.ar    1  UNL1        0.0035
     17 C          63.3727   89.1513   11.1239 C.ar    1  UNL1        0.0340
     18 C          64.3107   90.1166   10.7122 C.ar    1  UNL1        0.0035
     19 C          65.1305   90.7559   11.6469 C.ar    1  UNL1        0.0076
     20 C          67.5409   90.2995   14.4618 C.3     1  UNL1        0.0927
     21 S          66.0613   91.2411   14.1719 S.3     1  UNL1       -0.0413
     22 O          65.2263   91.5097   15.6043 O.3     1  UNL1       -0.3349
     23 H          65.8091   91.9537   16.2400 H       1  UNL1        0.2267
     24 C          60.1840   88.4440    7.4056 C.ar    1  UNL1        0.0202
     25 C          60.5855   89.2530    6.3309 C.ar    1  UNL1        0.0222
     26 C          59.6894   89.5125    5.2914 C.ar    1  UNL1        0.0989
     27 N          58.4329   88.9953    5.3286 N.ar    1  UNL1       -0.2423
     28 C          58.0117   88.2221    6.3640 C.ar    1  UNL1        0.0989
     29 C          58.8763   87.9377    7.4240 C.ar    1  UNL1        0.0222
@<TRIPOS>BOND
     1    20    21    1
     2    21    22    1
     3    21    14    1
     4    14    15   ar
     5    15    16   ar
     6    16    17   ar
     7    17     1    1
     8     1     2   ar
     9     2     3   ar
    10     3     7    1
    11     7     8   ar
    12     8     9   ar
    13     9    10   ar
    14    10    11    1
    15    10    12   ar
    16    12    13   ar
    17     3     4   ar
    18     4    24    1
    19    24    25   ar
    20    25    26   ar
    21    26    27   ar
    22    27    28   ar
    23    28    29   ar
    24     4     5   ar
    25    17    18   ar
    26    18    19   ar
    27    19    14   ar
    28     5     1   ar
    29    13     7   ar
    30    29    24   ar
    31     5     6    1
    32    22    23    1
