@<TRIPOS>MOLECULE
*****
 47 52 0 0 0
SMALL
GASTEIGER

@<TRIPOS>ATOM
      1 O           8.0124   78.2355   31.8615 O.2     1  UNL1       -0.2701
      2 C           7.4522   78.4401   30.7510 C.2     1  UNL1        0.2483
      3 N           6.0296   78.6032   30.7150 N.am    1  UNL1       -0.2945
      4 H           5.6408   79.5383   30.4587 H       1  UNL1        0.1501
      5 C           8.2596   78.4530   29.5016 C.ar    1  UNL1        0.0808
      6 C           9.4282   77.6734   29.4242 C.ar    1  UNL1        0.0080
      7 C          10.1536   77.5877   28.2336 C.ar    1  UNL1        0.0148
      8 C           9.7323   78.2806   27.0886 C.ar    1  UNL1        0.0502
      9 C           8.5772   79.0758   27.1664 C.ar    1  UNL1        0.0443
     10 C           7.8542   79.1747   28.3580 C.ar    1  UNL1        0.1457
     11 F           6.7480   79.9588   28.3678 F       1  UNL1       -0.2040
     12 N          10.4410   78.1255   25.8401 N.pl3   1  UNL1       -0.3040
     13 C           9.8879   78.6386   24.5778 C.3     1  UNL1        0.1122
     14 C           9.5827   77.4608   23.6442 C.3     1  UNL1        0.1122
     15 N          10.6537   76.4498   23.6966 N.pl3   1  UNL1       -0.3040
     16 C          11.9224   76.7897   24.3599 C.3     1  UNL1        0.1122
     17 C          11.6405   77.2704   25.7899 C.3     1  UNL1        0.1122
     18 C          10.3936   75.1129   23.2191 C.ar    1  UNL1        0.0488
     19 C           9.1078   74.5526   23.3183 C.ar    1  UNL1        0.0154
     20 C           8.8519   73.2733   22.8193 C.ar    1  UNL1        0.0135
     21 C           9.8722   72.5348   22.2129 C.ar    1  UNL1        0.0683
     22 CL          9.5088   70.9304   21.5918 Cl      1  UNL1       -0.0814
     23 C          11.1599   73.0843   22.1049 C.ar    1  UNL1        0.0694
     24 CL         12.4709   72.1904   21.3470 Cl      1  UNL1       -0.0813
     25 C          11.4143   74.3673   22.6040 C.ar    1  UNL1        0.0268
     26 C           5.1099   77.4720   30.8640 C.3     1  UNL1        0.1535
     27 C           4.1733   77.4112   29.6769 C.2     1  UNL1        0.2443
     28 O           3.0295   76.8925   29.7950 O.2     1  UNL1       -0.2730
     29 N           4.6153   77.9058   28.4032 N.am    1  UNL1       -0.2825
     30 H           5.3800   78.6184   28.4017 H       1  UNL1        0.1549
     31 C           4.0984   77.4711   27.1312 C.ar    1  UNL1        0.0535
     32 C           4.8936   76.7730   26.2036 C.ar    1  UNL1        0.0353
     33 C           4.3577   76.4195   24.9633 C.ar    1  UNL1        0.1002
     34 N           3.0803   76.7592   24.6491 N.ar    1  UNL1       -0.2422
     35 C           2.2935   77.4472   25.5167 C.ar    1  UNL1        0.1002
     36 C           2.7895   77.8200   26.7684 C.ar    1  UNL1        0.0353
     37 C           5.8996   76.1664   31.0870 C.3     1  UNL1        0.0569
     38 C           5.5376   75.1202   30.0713 C.ar    1  UNL1       -0.0017
     39 C           4.5458   74.1510   30.1919 C.ar    1  UNL1        0.0681
     40 N           4.5393   73.3447   29.1059 N.ar    1  UNL1       -0.3523
     41 C           5.5218   73.7919   28.3048 C.ar    1  UNL1        0.0563
     42 C           5.9084   73.2721   27.0702 C.ar    1  UNL1        0.0170
     43 C           6.9788   73.8936   26.4011 C.ar    1  UNL1        0.0015
     44 C           7.6323   75.0068   26.9752 C.ar    1  UNL1        0.0001
     45 C           7.2212   75.5092   28.2232 C.ar    1  UNL1        0.0012
     46 C           6.1559   74.8731   28.8613 C.ar    1  UNL1        0.0131
     47 H           3.9038   72.5343   28.9330 H       1  UNL1        0.1660
@<TRIPOS>BOND
     1     1     2    2
     2     2     3   am
     3     3    26    1
     4    26    37    1
     5    37    38    1
     6    38    39   ar
     7    39    40   ar
     8    40    41   ar
     9    41    42   ar
    10    42    43   ar
    11    43    44   ar
    12    44    45   ar
    13    45    46   ar
    14    26    27    1
    15    27    28    2
    16    27    29   am
    17    29    31    1
    18    31    32   ar
    19    32    33   ar
    20    33    34   ar
    21    34    35   ar
    22    35    36   ar
    23     2     5    1
    24     5     6   ar
    25     6     7   ar
    26     7     8   ar
    27     8    12    1
    28    12    13    1
    29    13    14    1
    30    14    15    1
    31    15    18    1
    32    18    19   ar
    33    19    20   ar
    34    20    21   ar
    35    21    22    1
    36    21    23   ar
    37    23    24    1
    38    23    25   ar
    39    15    16    1
    40    16    17    1
    41     8     9   ar
    42     9    10   ar
    43    10    11    1
    44    46    38   ar
    45    36    31   ar
    46    10     5   ar
    47    46    41   ar
    48    17    12    1
    49    25    18   ar
    50     3     4    1
    51    40    47    1
    52    29    30    1
@<TRIPOS>MOLECULE
*****
 47 52 0 0 0
SMALL
GASTEIGER

@<TRIPOS>ATOM
      1 O           8.2984   78.3439   31.8001 O.2     1  UNL1       -0.2701
      2 C           7.6972   78.5525   30.7119 C.2     1  UNL1        0.2483
      3 N           6.2757   78.7274   30.7309 N.am    1  UNL1       -0.2945
      4 H           5.8850   79.6656   30.4891 H       1  UNL1        0.1501
      5 C           8.4557   78.5580   29.4321 C.ar    1  UNL1        0.0808
      6 C           9.6140   77.7687   29.3102 C.ar    1  UNL1        0.0080
      7 C          10.2920   77.6763   28.0925 C.ar    1  UNL1        0.0148
      8 C           9.8322   78.3719   26.9641 C.ar    1  UNL1        0.0502
      9 C           8.6876   79.1767   27.0858 C.ar    1  UNL1        0.0443
     10 C           8.0123   79.2823   28.3045 C.ar    1  UNL1        0.1457
     11 F           6.9137   80.0755   28.3564 F       1  UNL1       -0.2040
     12 N          10.4907   78.2102   25.6892 N.pl3   1  UNL1       -0.3040
     13 C           9.8688   78.6799   24.4421 C.3     1  UNL1        0.1122
     14 C           9.5585   77.4740   23.5469 C.3     1  UNL1        0.1122
     15 N          10.6602   76.4953   23.5730 N.pl3   1  UNL1       -0.3040
     16 C          11.9457   76.8856   24.1731 C.3     1  UNL1        0.1122
     17 C          11.7117   77.3889   25.6039 C.3     1  UNL1        0.1122
     18 C          10.4192   75.1416   23.1346 C.ar    1  UNL1        0.0488
     19 C           9.1470   74.5585   23.2706 C.ar    1  UNL1        0.0154
     20 C           8.9087   73.2619   22.8092 C.ar    1  UNL1        0.0135
     21 C           9.9334   72.5282   22.2042 C.ar    1  UNL1        0.0683
     22 CL          9.5924   70.9013   21.6310 Cl      1  UNL1       -0.0814
     23 C          11.2077   73.1003   22.0597 C.ar    1  UNL1        0.0694
     24 CL         12.5237   72.2132   21.3023 Cl      1  UNL1       -0.0813
     25 C          11.4443   74.4006   22.5211 C.ar    1  UNL1        0.0268
     26 C           5.3532   77.6040   30.9165 C.3     1  UNL1        0.1535
     27 C           4.5493   77.3850   29.6532 C.2     1  UNL1        0.2443
     28 O           3.4082   76.8504   29.7100 O.2     1  UNL1       -0.2730
     29 N           5.1161   77.7471   28.3844 N.am    1  UNL1       -0.2825
     30 H           5.8648   78.4764   28.3814 H       1  UNL1        0.1549
     31 C           4.7448   77.1590   27.1232 C.ar    1  UNL1        0.0535
     32 C           5.6770   76.4851   26.3126 C.ar    1  UNL1        0.0353
     33 C           5.2757   75.9778   25.0748 C.ar    1  UNL1        0.1002
     34 N           3.9962   76.1456   24.6501 N.ar    1  UNL1       -0.2422
     35 C           3.0778   76.8057   25.4025 C.ar    1  UNL1        0.1002
     36 C           3.4367   77.3284   26.6473 C.ar    1  UNL1        0.0353
     37 C           6.1234   76.3497   31.3762 C.3     1  UNL1        0.0569
     38 C           6.3607   75.3979   30.2381 C.ar    1  UNL1       -0.0017
     39 C           7.4450   75.3981   29.3651 C.ar    1  UNL1        0.0681
     40 N           7.2983   74.4317   28.4302 N.ar    1  UNL1       -0.3523
     41 C           6.1289   73.8265   28.7012 C.ar    1  UNL1        0.0563
     42 C           5.5406   72.7729   28.0028 C.ar    1  UNL1        0.0170
     43 C           4.2970   72.2964   28.4566 C.ar    1  UNL1        0.0015
     44 C           3.6756   72.8781   29.5842 C.ar    1  UNL1        0.0001
     45 C           4.2923   73.9412   30.2688 C.ar    1  UNL1        0.0012
     46 C           5.5258   74.3903   29.7962 C.ar    1  UNL1        0.0131
     47 H           7.9582   74.2100   27.6518 H       1  UNL1        0.1660
@<TRIPOS>BOND
     1     1     2    2
     2     2     3   am
     3     3    26    1
     4    26    37    1
     5    37    38    1
     6    38    39   ar
     7    39    40   ar
     8    40    41   ar
     9    41    42   ar
    10    42    43   ar
    11    43    44   ar
    12    44    45   ar
    13    45    46   ar
    14    26    27    1
    15    27    28    2
    16    27    29   am
    17    29    31    1
    18    31    32   ar
    19    32    33   ar
    20    33    34   ar
    21    34    35   ar
    22    35    36   ar
    23     2     5    1
    24     5     6   ar
    25     6     7   ar
    26     7     8   ar
    27     8    12    1
    28    12    13    1
    29    13    14    1
    30    14    15    1
    31    15    18    1
    32    18    19   ar
    33    19    20   ar
    34    20    21   ar
    35    21    22    1
    36    21    23   ar
    37    23    24    1
    38    23    25   ar
    39    15    16    1
    40    16    17    1
    41     8     9   ar
    42     9    10   ar
    43    10    11    1
    44    46    38   ar
    45    36    31   ar
    46    10     5   ar
    47    46    41   ar
    48    17    12    1
    49    25    18   ar
    50     3     4    1
    51    40    47    1
    52    29    30    1
@<TRIPOS>MOLECULE
*****
 47 52 0 0 0
SMALL
GASTEIGER

@<TRIPOS>ATOM
      1 O           8.3534   78.2005   31.8441 O.2     1  UNL1       -0.2701
      2 C           7.7292   78.4825   30.7858 C.2     1  UNL1        0.2483
      3 N           6.3075   78.6463   30.8456 N.am    1  UNL1       -0.2945
      4 H           5.9072   79.5968   30.6795 H       1  UNL1        0.1501
      5 C           8.4615   78.5846   29.4949 C.ar    1  UNL1        0.0808
      6 C           9.6349   77.8325   29.3030 C.ar    1  UNL1        0.0080
      7 C          10.2902   77.8312   28.0695 C.ar    1  UNL1        0.0148
      8 C           9.7921   78.5832   26.9949 C.ar    1  UNL1        0.0502
      9 C           8.6320   79.3511   27.1873 C.ar    1  UNL1        0.0443
     10 C           7.9790   79.3656   28.4225 C.ar    1  UNL1        0.1457
     11 F           6.8638   80.1274   28.5437 F       1  UNL1       -0.2040
     12 N          10.4284   78.5158   25.7004 N.pl3   1  UNL1       -0.3040
     13 C          10.8232   79.7342   24.9777 C.3     1  UNL1        0.1122
     14 C           9.9966   79.8485   23.6910 C.3     1  UNL1        0.1122
     15 N           9.8544   78.5378   23.0325 N.pl3   1  UNL1       -0.3040
     16 C          10.6916   77.4169   23.4883 C.3     1  UNL1        0.1122
     17 C          10.5082   77.2215   24.9994 C.3     1  UNL1        0.1122
     18 C           8.8130   78.3437   22.0523 C.ar    1  UNL1        0.0488
     19 C           7.6866   77.5557   22.3480 C.ar    1  UNL1        0.0154
     20 C           6.6628   77.4027   21.4102 C.ar    1  UNL1        0.0135
     21 C           6.7454   78.0337   20.1655 C.ar    1  UNL1        0.0683
     22 CL          5.4335   77.8215   19.0141 Cl      1  UNL1       -0.0814
     23 C           7.8638   78.8257   19.8590 C.ar    1  UNL1        0.0694
     24 CL          8.0060   79.6388   18.3063 Cl      1  UNL1       -0.0813
     25 C           8.8881   78.9794   20.8008 C.ar    1  UNL1        0.0268
     26 C           5.3947   77.5065   30.9684 C.3     1  UNL1        0.1535
     27 C           4.6210   77.3263   29.6803 C.2     1  UNL1        0.2443
     28 O           3.4727   76.8046   29.6956 O.2     1  UNL1       -0.2730
     29 N           5.2245   77.7106   28.4351 N.am    1  UNL1       -0.2825
     30 H           5.9814   78.4306   28.4681 H       1  UNL1        0.1549
     31 C           4.8789   77.1563   27.1516 C.ar    1  UNL1        0.0535
     32 C           5.8435   76.5772   26.3064 C.ar    1  UNL1        0.0353
     33 C           5.4632   76.1006   25.0499 C.ar    1  UNL1        0.1002
     34 N           4.1721   76.2074   24.6408 N.ar    1  UNL1       -0.2422
     35 C           3.2216   76.7762   25.4271 C.ar    1  UNL1        0.1002
     36 C           3.5586   77.2653   26.6915 C.ar    1  UNL1        0.0353
     37 C           6.1697   76.2443   31.3975 C.3     1  UNL1        0.0569
     38 C           6.3958   75.3134   30.2401 C.ar    1  UNL1       -0.0017
     39 C           7.4783   75.3210   29.3649 C.ar    1  UNL1        0.0681
     40 N           7.3207   74.3749   28.4112 N.ar    1  UNL1       -0.3523
     41 C           6.1462   73.7754   28.6725 C.ar    1  UNL1        0.0563
     42 C           5.5467   72.7415   27.9545 C.ar    1  UNL1        0.0170
     43 C           4.2996   72.2676   28.4014 C.ar    1  UNL1        0.0015
     44 C           3.6859   72.8323   29.5418 C.ar    1  UNL1        0.0001
     45 C           4.3140   73.8757   30.2462 C.ar    1  UNL1        0.0012
     46 C           5.5507   74.3227   29.7800 C.ar    1  UNL1        0.0131
     47 H           7.9769   74.1627   27.6270 H       1  UNL1        0.1660
@<TRIPOS>BOND
     1     1     2    2
     2     2     3   am
     3     3    26    1
     4    26    37    1
     5    37    38    1
     6    38    39   ar
     7    39    40   ar
     8    40    41   ar
     9    41    42   ar
    10    42    43   ar
    11    43    44   ar
    12    44    45   ar
    13    45    46   ar
    14    26    27    1
    15    27    28    2
    16    27    29   am
    17    29    31    1
    18    31    32   ar
    19    32    33   ar
    20    33    34   ar
    21    34    35   ar
    22    35    36   ar
    23     2     5    1
    24     5     6   ar
    25     6     7   ar
    26     7     8   ar
    27     8    12    1
    28    12    13    1
    29    13    14    1
    30    14    15    1
    31    15    18    1
    32    18    19   ar
    33    19    20   ar
    34    20    21   ar
    35    21    22    1
    36    21    23   ar
    37    23    24    1
    38    23    25   ar
    39    15    16    1
    40    16    17    1
    41     8     9   ar
    42     9    10   ar
    43    10    11    1
    44    46    38   ar
    45    36    31   ar
    46    10     5   ar
    47    46    41   ar
    48    17    12    1
    49    25    18   ar
    50     3     4    1
    51    40    47    1
    52    29    30    1
@<TRIPOS>MOLECULE
*****
 47 52 0 0 0
SMALL
GASTEIGER

@<TRIPOS>ATOM
      1 O           8.0574   77.8992   31.8152 O.2     1  UNL1       -0.2701
      2 C           7.4659   78.2715   30.7662 C.2     1  UNL1        0.2483
      3 N           6.0500   78.4830   30.8100 N.am    1  UNL1       -0.2945
      4 H           5.6870   79.4562   30.6988 H       1  UNL1        0.1501
      5 C           8.2283   78.4298   29.4986 C.ar    1  UNL1        0.0808
      6 C           9.3838   77.6563   29.2842 C.ar    1  UNL1        0.0080
      7 C          10.0651   77.7102   28.0660 C.ar    1  UNL1        0.0148
      8 C           9.6116   78.5403   27.0297 C.ar    1  UNL1        0.0502
      9 C           8.4698   79.3292   27.2459 C.ar    1  UNL1        0.0443
     10 C           7.7912   79.2883   28.4666 C.ar    1  UNL1        0.1457
     11 F           6.6957   80.0740   28.6122 F       1  UNL1       -0.2040
     12 N          10.2733   78.5325   25.7463 N.pl3   1  UNL1       -0.3040
     13 C          10.7128   79.7806   25.1047 C.3     1  UNL1        0.1122
     14 C           9.9167   79.9913   23.8110 C.3     1  UNL1        0.1122
     15 N           9.7565   78.7254   23.0736 N.pl3   1  UNL1       -0.3040
     16 C          10.5563   77.5587   23.4788 C.3     1  UNL1        0.1122
     17 C          10.3363   77.2799   24.9718 C.3     1  UNL1        0.1122
     18 C           8.7317   78.6157   22.0634 C.ar    1  UNL1        0.0488
     19 C           8.3650   79.7303   21.2886 C.ar    1  UNL1        0.0154
     20 C           7.4003   79.6098   20.2857 C.ar    1  UNL1        0.0135
     21 C           6.7885   78.3774   20.0388 C.ar    1  UNL1        0.0683
     22 CL          5.5831   78.2649   18.7636 Cl      1  UNL1       -0.0814
     23 C           7.1481   77.2558   20.8036 C.ar    1  UNL1        0.0694
     24 CL          6.4051   75.6867   20.5240 Cl      1  UNL1       -0.0813
     25 C           8.1163   77.3780   21.8072 C.ar    1  UNL1        0.0268
     26 C           5.0951   77.3718   30.8412 C.3     1  UNL1        0.1535
     27 C           4.2480   77.3866   29.5872 C.2     1  UNL1        0.2443
     28 O           3.0711   76.9332   29.6092 O.2     1  UNL1       -0.2730
     29 N           4.8114   77.8772   28.3608 N.am    1  UNL1       -0.2825
     30 H           5.6132   78.5441   28.4314 H       1  UNL1        0.1549
     31 C           4.3675   77.4960   27.0449 C.ar    1  UNL1        0.0535
     32 C           3.0026   77.4348   26.7081 C.ar    1  UNL1        0.0353
     33 C           2.6248   77.0095   25.4325 C.ar    1  UNL1        0.1002
     34 N           3.5691   76.6443   24.5266 N.ar    1  UNL1       -0.2422
     35 C           4.8934   76.6768   24.8274 C.ar    1  UNL1        0.1002
     36 C           5.3150   77.0965   26.0913 C.ar    1  UNL1        0.0353
     37 C           5.8347   76.0371   31.0635 C.3     1  UNL1        0.0569
     38 C           5.4771   75.0244   30.0128 C.ar    1  UNL1       -0.0017
     39 C           4.4606   74.0759   30.0827 C.ar    1  UNL1        0.0681
     40 N           4.4656   73.2965   28.9773 N.ar    1  UNL1       -0.3523
     41 C           5.4796   73.7399   28.2142 C.ar    1  UNL1        0.0563
     42 C           5.8879   73.2411   26.9779 C.ar    1  UNL1        0.0170
     43 C           6.9900   73.8534   26.3534 C.ar    1  UNL1        0.0015
     44 C           7.6527   74.9369   26.9721 C.ar    1  UNL1        0.0001
     45 C           7.2190   75.4185   28.2207 C.ar    1  UNL1        0.0012
     46 C           6.1225   74.7922   28.8141 C.ar    1  UNL1        0.0131
     47 H           3.8168   72.5055   28.7675 H       1  UNL1        0.1660
@<TRIPOS>BOND
     1     1     2    2
     2     2     3   am
     3     3    26    1
     4    26    37    1
     5    37    38    1
     6    38    39   ar
     7    39    40   ar
     8    40    41   ar
     9    41    42   ar
    10    42    43   ar
    11    43    44   ar
    12    44    45   ar
    13    45    46   ar
    14    26    27    1
    15    27    28    2
    16    27    29   am
    17    29    31    1
    18    31    32   ar
    19    32    33   ar
    20    33    34   ar
    21    34    35   ar
    22    35    36   ar
    23     2     5    1
    24     5     6   ar
    25     6     7   ar
    26     7     8   ar
    27     8    12    1
    28    12    13    1
    29    13    14    1
    30    14    15    1
    31    15    18    1
    32    18    19   ar
    33    19    20   ar
    34    20    21   ar
    35    21    22    1
    36    21    23   ar
    37    23    24    1
    38    23    25   ar
    39    15    16    1
    40    16    17    1
    41     8     9   ar
    42     9    10   ar
    43    10    11    1
    44    46    38   ar
    45    36    31   ar
    46    10     5   ar
    47    46    41   ar
    48    17    12    1
    49    25    18   ar
    50     3     4    1
    51    40    47    1
    52    29    30    1
@<TRIPOS>MOLECULE
*****
 47 52 0 0 0
SMALL
GASTEIGER

@<TRIPOS>ATOM
      1 O           0.7284   77.5206   23.2467 O.2     1  UNL1       -0.2701
      2 C           1.9160   77.9298   23.1402 C.2     1  UNL1        0.2483
      3 N           2.2734   78.7231   22.0025 N.am    1  UNL1       -0.2945
      4 H           2.5256   79.7258   22.1524 H       1  UNL1        0.1501
      5 C           2.9308   77.5410   24.1561 C.ar    1  UNL1        0.0808
      6 C           4.2174   77.1555   23.7374 C.ar    1  UNL1        0.0080
      7 C           5.2205   76.8795   24.6694 C.ar    1  UNL1        0.0148
      8 C           4.9645   76.9791   26.0453 C.ar    1  UNL1        0.0502
      9 C           3.6762   77.3446   26.4686 C.ar    1  UNL1        0.0443
     10 C           2.6656   77.6102   25.5410 C.ar    1  UNL1        0.1457
     11 F           1.4433   77.9581   26.0138 F       1  UNL1       -0.2040
     12 N           6.0260   76.7700   27.0017 N.pl3   1  UNL1       -0.3040
     13 C           6.2866   77.7369   28.0786 C.3     1  UNL1        0.1122
     14 C           7.6681   78.3684   27.8671 C.3     1  UNL1        0.1122
     15 N           8.6541   77.3591   27.4414 N.pl3   1  UNL1       -0.3040
     16 C           8.3023   75.9338   27.5392 C.3     1  UNL1        0.1122
     17 C           6.9905   75.6766   26.7853 C.3     1  UNL1        0.1122
     18 C           9.8838   77.7853   26.8174 C.ar    1  UNL1        0.0488
     19 C          11.0864   77.0973   27.0568 C.ar    1  UNL1        0.0154
     20 C          12.2661   77.4896   26.4202 C.ar    1  UNL1        0.0135
     21 C          12.2646   78.5714   25.5348 C.ar    1  UNL1        0.0683
     22 CL         13.7687   79.0308   24.7485 Cl      1  UNL1       -0.0814
     23 C          11.0694   79.2650   25.2849 C.ar    1  UNL1        0.0694
     24 CL         11.0230   80.6294   24.1764 Cl      1  UNL1       -0.0813
     25 C           9.8876   78.8694   25.9224 C.ar    1  UNL1        0.0268
     26 C           2.4544   78.1405   20.6701 C.3     1  UNL1        0.1535
     27 C           3.8103   78.5266   20.1200 C.2     1  UNL1        0.2443
     28 O           3.9703   78.6910   18.8796 O.2     1  UNL1       -0.2730
     29 N           4.9243   78.6578   21.0167 N.am    1  UNL1       -0.2825
     30 H           4.7142   78.8624   22.0200 H       1  UNL1        0.1549
     31 C           6.3047   78.5020   20.6369 C.ar    1  UNL1        0.0535
     32 C           7.1656   77.6128   21.3066 C.ar    1  UNL1        0.0353
     33 C           8.5087   77.5379   20.9310 C.ar    1  UNL1        0.1002
     34 N           8.9842   78.3285   19.9337 N.ar    1  UNL1       -0.2422
     35 C           8.1820   79.2083   19.2797 C.ar    1  UNL1        0.1002
     36 C           6.8321   79.3148   19.6231 C.ar    1  UNL1        0.0353
     37 C           2.2253   76.6163   20.7172 C.3     1  UNL1        0.0569
     38 C           3.3058   75.8713   19.9857 C.ar    1  UNL1       -0.0017
     39 C           3.4348   75.7339   18.6066 C.ar    1  UNL1        0.0681
     40 N           4.4960   74.9503   18.3076 N.ar    1  UNL1       -0.3523
     41 C           5.0333   74.5868   19.4851 C.ar    1  UNL1        0.0563
     42 C           6.1419   73.7667   19.6911 C.ar    1  UNL1        0.0170
     43 C           6.5286   73.5051   21.0183 C.ar    1  UNL1        0.0015
     44 C           5.8060   74.0612   22.0975 C.ar    1  UNL1        0.0001
     45 C           4.6904   74.8846   21.8593 C.ar    1  UNL1        0.0012
     46 C           4.3327   75.1271   20.5328 C.ar    1  UNL1        0.0131
     47 H           4.8228   74.6780   17.3539 H       1  UNL1        0.1660
@<TRIPOS>BOND
     1     1     2    2
     2     2     3   am
     3     3    26    1
     4    26    37    1
     5    37    38    1
     6    38    39   ar
     7    39    40   ar
     8    40    41   ar
     9    41    42   ar
    10    42    43   ar
    11    43    44   ar
    12    44    45   ar
    13    45    46   ar
    14    26    27    1
    15    27    28    2
    16    27    29   am
    17    29    31    1
    18    31    32   ar
    19    32    33   ar
    20    33    34   ar
    21    34    35   ar
    22    35    36   ar
    23     2     5    1
    24     5     6   ar
    25     6     7   ar
    26     7     8   ar
    27     8    12    1
    28    12    13    1
    29    13    14    1
    30    14    15    1
    31    15    18    1
    32    18    19   ar
    33    19    20   ar
    34    20    21   ar
    35    21    22    1
    36    21    23   ar
    37    23    24    1
    38    23    25   ar
    39    15    16    1
    40    16    17    1
    41     8     9   ar
    42     9    10   ar
    43    10    11    1
    44    46    38   ar
    45    36    31   ar
    46    10     5   ar
    47    46    41   ar
    48    17    12    1
    49    25    18   ar
    50     3     4    1
    51    40    47    1
    52    29    30    1
@<TRIPOS>MOLECULE
*****
 47 52 0 0 0
SMALL
GASTEIGER

@<TRIPOS>ATOM
      1 O          10.1627   77.4004   29.6995 O.2     1  UNL1       -0.2701
      2 C           9.4803   77.9358   28.7847 C.2     1  UNL1        0.2483
      3 N           8.5173   78.9359   29.1369 N.am    1  UNL1       -0.2945
      4 H           8.6848   79.9202   28.8297 H       1  UNL1        0.1501
      5 C           9.6428   77.4870   27.3757 C.ar    1  UNL1        0.0808
      6 C           9.8665   76.1248   27.1042 C.ar    1  UNL1        0.0080
      7 C           9.9254   75.6575   25.7892 C.ar    1  UNL1        0.0148
      8 C           9.7646   76.5391   24.7097 C.ar    1  UNL1        0.0502
      9 C           9.5605   77.9031   24.9753 C.ar    1  UNL1        0.0443
     10 C           9.5126   78.3780   26.2885 C.ar    1  UNL1        0.1457
     11 F           9.3127   79.7057   26.4779 F       1  UNL1       -0.2040
     12 N           9.7472   76.0384   23.3554 N.pl3   1  UNL1       -0.3040
     13 C           9.8330   76.9476   22.2027 C.3     1  UNL1        0.1122
     14 C           8.5229   76.8810   21.4082 C.3     1  UNL1        0.1122
     15 N           8.0374   75.4938   21.2993 N.pl3   1  UNL1       -0.3040
     16 C           8.9354   74.3926   21.6814 C.3     1  UNL1        0.1122
     17 C           9.4415   74.6170   23.1128 C.3     1  UNL1        0.1122
     18 C           6.6587   75.2483   20.9504 C.ar    1  UNL1        0.0488
     19 C           6.2048   73.9427   20.6927 C.ar    1  UNL1        0.0154
     20 C           4.8612   73.7055   20.3938 C.ar    1  UNL1        0.0135
     21 C           3.9502   74.7649   20.3490 C.ar    1  UNL1        0.0683
     22 CL          2.2660   74.4250   19.9750 Cl      1  UNL1       -0.0814
     23 C           4.3902   76.0732   20.6074 C.ar    1  UNL1        0.0694
     24 CL          3.2770   77.4337   20.5642 Cl      1  UNL1       -0.0813
     25 C           5.7369   76.3088   20.9086 C.ar    1  UNL1        0.0268
     26 C           7.2370   78.5999   29.7659 C.3     1  UNL1        0.1535
     27 C           6.1601   78.4832   28.7091 C.2     1  UNL1        0.2443
     28 O           4.9654   78.7816   28.9826 O.2     1  UNL1       -0.2730
     29 N           6.5010   77.9847   27.4062 N.am    1  UNL1       -0.2825
     30 H           7.4958   78.0785   27.0992 H       1  UNL1        0.1549
     31 C           5.5771   77.3435   26.5066 C.ar    1  UNL1        0.0535
     32 C           4.2128   77.1981   26.8193 C.ar    1  UNL1        0.0353
     33 C           3.3700   76.5226   25.9339 C.ar    1  UNL1        0.1002
     34 N           3.8670   75.9975   24.7837 N.ar    1  UNL1       -0.2422
     35 C           5.1822   76.1071   24.4620 C.ar    1  UNL1        0.1002
     36 C           6.0601   76.7755   25.3189 C.ar    1  UNL1        0.0353
     37 C           7.3831   77.3327   30.6324 C.3     1  UNL1        0.0569
     38 C           6.2422   76.3794   30.4154 C.ar    1  UNL1       -0.0017
     39 C           5.0506   76.3302   31.1332 C.ar    1  UNL1        0.0681
     40 N           4.2790   75.3083   30.6975 N.ar    1  UNL1       -0.3523
     41 C           4.9755   74.7084   29.7166 C.ar    1  UNL1        0.0563
     42 C           4.5949   73.5948   28.9690 C.ar    1  UNL1        0.0170
     43 C           5.4899   73.1219   27.9917 C.ar    1  UNL1        0.0015
     44 C           6.7315   73.7641   27.7872 C.ar    1  UNL1        0.0001
     45 C           7.0894   74.8855   28.5575 C.ar    1  UNL1        0.0012
     46 C           6.1805   75.3321   29.5172 C.ar    1  UNL1        0.0131
     47 H           3.3374   75.0380   31.0591 H       1  UNL1        0.1660
@<TRIPOS>BOND
     1     1     2    2
     2     2     3   am
     3     3    26    1
     4    26    37    1
     5    37    38    1
     6    38    39   ar
     7    39    40   ar
     8    40    41   ar
     9    41    42   ar
    10    42    43   ar
    11    43    44   ar
    12    44    45   ar
    13    45    46   ar
    14    26    27    1
    15    27    28    2
    16    27    29   am
    17    29    31    1
    18    31    32   ar
    19    32    33   ar
    20    33    34   ar
    21    34    35   ar
    22    35    36   ar
    23     2     5    1
    24     5     6   ar
    25     6     7   ar
    26     7     8   ar
    27     8    12    1
    28    12    13    1
    29    13    14    1
    30    14    15    1
    31    15    18    1
    32    18    19   ar
    33    19    20   ar
    34    20    21   ar
    35    21    22    1
    36    21    23   ar
    37    23    24    1
    38    23    25   ar
    39    15    16    1
    40    16    17    1
    41     8     9   ar
    42     9    10   ar
    43    10    11    1
    44    46    38   ar
    45    36    31   ar
    46    10     5   ar
    47    46    41   ar
    48    17    12    1
    49    25    18   ar
    50     3     4    1
    51    40    47    1
    52    29    30    1
@<TRIPOS>MOLECULE
*****
 47 52 0 0 0
SMALL
GASTEIGER

@<TRIPOS>ATOM
      1 O           8.6191   79.9260   27.8709 O.2     1  UNL1       -0.2701
      2 C           7.8243   78.9479   27.8983 C.2     1  UNL1        0.2483
      3 N           7.1178   78.6663   29.1121 N.am    1  UNL1       -0.2945
      4 H           6.0818   78.7994   29.1289 H       1  UNL1        0.1501
      5 C           7.6752   78.0766   26.7018 C.ar    1  UNL1        0.0808
      6 C           8.7751   77.8803   25.8467 C.ar    1  UNL1        0.0080
      7 C           8.6960   76.9921   24.7716 C.ar    1  UNL1        0.0148
      8 C           7.5149   76.2777   24.5203 C.ar    1  UNL1        0.0502
      9 C           6.4079   76.4849   25.3594 C.ar    1  UNL1        0.0443
     10 C           6.4774   77.3810   26.4292 C.ar    1  UNL1        0.1457
     11 F           5.3741   77.5361   27.2020 F       1  UNL1       -0.2040
     12 N           7.4645   75.3028   23.4562 N.pl3   1  UNL1       -0.3040
     13 C           8.0975   75.5588   22.1538 C.3     1  UNL1        0.1122
     14 C           7.0136   75.6349   21.0716 C.3     1  UNL1        0.1122
     15 N           5.9879   74.5959   21.2728 N.pl3   1  UNL1       -0.3040
     16 C           6.2493   73.5137   22.2348 C.3     1  UNL1        0.1122
     17 C           6.6017   74.1166   23.6014 C.3     1  UNL1        0.1122
     18 C           4.7035   74.7304   20.6284 C.ar    1  UNL1        0.0488
     19 C           3.5787   74.0443   21.1193 C.ar    1  UNL1        0.0154
     20 C           2.3296   74.2081   20.5160 C.ar    1  UNL1        0.0135
     21 C           2.1827   75.0589   19.4165 C.ar    1  UNL1        0.0683
     22 CL          0.5928   75.2432   18.6884 Cl      1  UNL1       -0.0814
     23 C           3.2977   75.7522   18.9186 C.ar    1  UNL1        0.0694
     24 CL          3.1562   76.8341   17.5395 Cl      1  UNL1       -0.0813
     25 C           4.5485   75.5882   19.5255 C.ar    1  UNL1        0.0268
     26 C           7.7698   78.0479   30.2696 C.3     1  UNL1        0.1535
     27 C           8.7094   79.0396   30.9209 C.2     1  UNL1        0.2443
     28 O           9.5010   78.6643   31.8285 O.2     1  UNL1       -0.2730
     29 N           8.6590   80.4206   30.5305 N.am    1  UNL1       -0.2825
     30 H           8.2784   80.6399   29.5821 H       1  UNL1        0.1549
     31 C           9.0705   81.5226   31.3615 C.ar    1  UNL1        0.0535
     32 C           8.7428   81.5874   32.7284 C.ar    1  UNL1        0.0353
     33 C           9.1229   82.7035   33.4771 C.ar    1  UNL1        0.1002
     34 N           9.7936   83.7265   32.8860 N.ar    1  UNL1       -0.2422
     35 C          10.1098   83.7005   31.5652 C.ar    1  UNL1        0.1002
     36 C           9.7493   82.6030   30.7796 C.ar    1  UNL1        0.0353
     37 C           6.7132   77.4799   31.2385 C.3     1  UNL1        0.0569
     38 C           5.7302   76.5934   30.5277 C.ar    1  UNL1       -0.0017
     39 C           4.3451   76.6081   30.6653 C.ar    1  UNL1        0.0681
     40 N           3.7857   75.6333   29.9128 N.ar    1  UNL1       -0.3523
     41 C           4.8051   74.9997   29.3073 C.ar    1  UNL1        0.0563
     42 C           4.7276   73.9128   28.4375 C.ar    1  UNL1        0.0170
     43 C           5.9307   73.3947   27.9238 C.ar    1  UNL1        0.0015
     44 C           7.1700   73.9670   28.2881 C.ar    1  UNL1        0.0001
     45 C           7.2176   75.0629   29.1689 C.ar    1  UNL1        0.0012
     46 C           6.0082   75.5554   29.6600 C.ar    1  UNL1        0.0131
     47 H           2.7680   75.4148   29.8292 H       1  UNL1        0.1660
@<TRIPOS>BOND
     1     1     2    2
     2     2     3   am
     3     3    26    1
     4    26    37    1
     5    37    38    1
     6    38    39   ar
     7    39    40   ar
     8    40    41   ar
     9    41    42   ar
    10    42    43   ar
    11    43    44   ar
    12    44    45   ar
    13    45    46   ar
    14    26    27    1
    15    27    28    2
    16    27    29   am
    17    29    31    1
    18    31    32   ar
    19    32    33   ar
    20    33    34   ar
    21    34    35   ar
    22    35    36   ar
    23     2     5    1
    24     5     6   ar
    25     6     7   ar
    26     7     8   ar
    27     8    12    1
    28    12    13    1
    29    13    14    1
    30    14    15    1
    31    15    18    1
    32    18    19   ar
    33    19    20   ar
    34    20    21   ar
    35    21    22    1
    36    21    23   ar
    37    23    24    1
    38    23    25   ar
    39    15    16    1
    40    16    17    1
    41     8     9   ar
    42     9    10   ar
    43    10    11    1
    44    46    38   ar
    45    36    31   ar
    46    10     5   ar
    47    46    41   ar
    48    17    12    1
    49    25    18   ar
    50     3     4    1
    51    40    47    1
    52    29    30    1
@<TRIPOS>MOLECULE
*****
 47 52 0 0 0
SMALL
GASTEIGER

@<TRIPOS>ATOM
      1 O           3.5879   76.9048   26.9823 O.2     1  UNL1       -0.2701
      2 C           4.4101   75.9583   27.1133 C.2     1  UNL1        0.2483
      3 N           4.3579   75.1578   28.3000 N.am    1  UNL1       -0.2945
      4 H           4.0649   74.1586   28.2156 H       1  UNL1        0.1501
      5 C           5.4467   75.7239   26.0725 C.ar    1  UNL1        0.0808
      6 C           5.8419   76.7849   25.2373 C.ar    1  UNL1        0.0080
      7 C           6.8806   76.6229   24.3176 C.ar    1  UNL1        0.0148
      8 C           7.5510   75.3956   24.2057 C.ar    1  UNL1        0.0502
      9 C           7.1472   74.3275   25.0234 C.ar    1  UNL1        0.0443
     10 C           6.1009   74.4803   25.9369 C.ar    1  UNL1        0.1457
     11 F           5.7591   73.4109   26.6973 F       1  UNL1       -0.2040
     12 N           8.6752   75.2575   23.3099 N.pl3   1  UNL1       -0.3040
     13 C           9.6324   74.1498   23.4489 C.3     1  UNL1        0.1122
     14 C          11.0078   74.7147   23.8243 C.3     1  UNL1        0.1122
     15 N          11.3059   75.9392   23.0602 N.pl3   1  UNL1       -0.3040
     16 C          10.4520   76.2894   21.9142 C.3     1  UNL1        0.1122
     17 C           8.9862   76.3455   22.3654 C.3     1  UNL1        0.1122
     18 C          12.3377   76.8344   23.5258 C.ar    1  UNL1        0.0488
     19 C          13.6963   76.5095   23.3653 C.ar    1  UNL1        0.0154
     20 C          14.6912   77.3967   23.7823 C.ar    1  UNL1        0.0135
     21 C          14.3474   78.6209   24.3632 C.ar    1  UNL1        0.0683
     22 CL         15.6287   79.7133   24.8697 Cl      1  UNL1       -0.0814
     23 C          12.9941   78.9585   24.5264 C.ar    1  UNL1        0.0694
     24 CL         12.5182   80.4891   25.2498 Cl      1  UNL1       -0.0813
     25 C          11.9982   78.0689   24.1064 C.ar    1  UNL1        0.0268
     26 C           4.8538   75.6423   29.5911 C.3     1  UNL1        0.1535
     27 C           6.2065   75.0305   29.8846 C.2     1  UNL1        0.2443
     28 O           6.5683   74.8284   31.0760 O.2     1  UNL1       -0.2730
     29 N           7.0941   74.7260   28.7975 N.am    1  UNL1       -0.2825
     30 H           6.6676   74.5700   27.8561 H       1  UNL1        0.1549
     31 C           8.5278   74.6463   28.9080 C.ar    1  UNL1        0.0535
     32 C           9.1566   73.8364   29.8718 C.ar    1  UNL1        0.0353
     33 C          10.5498   73.8353   29.9696 C.ar    1  UNL1        0.1002
     34 N          11.2930   74.6214   29.1478 N.ar    1  UNL1       -0.2422
     35 C          10.7145   75.4262   28.2188 C.ar    1  UNL1        0.1002
     36 C           9.3241   75.4575   28.0868 C.ar    1  UNL1        0.0353
     37 C           4.8617   77.1841   29.6166 C.3     1  UNL1        0.0569
     38 C           6.2086   77.7243   30.0055 C.ar    1  UNL1       -0.0017
     39 C           6.6999   77.8839   31.2981 C.ar    1  UNL1        0.0681
     40 N           7.9281   78.4499   31.2696 N.ar    1  UNL1       -0.3523
     41 C           8.2132   78.6549   29.9720 C.ar    1  UNL1        0.0563
     42 C           9.3675   79.2285   29.4405 C.ar    1  UNL1        0.0170
     43 C           9.4533   79.3582   28.0421 C.ar    1  UNL1        0.0015
     44 C           8.3949   78.9185   27.2160 C.ar    1  UNL1        0.0001
     45 C           7.2413   78.3443   27.7805 C.ar    1  UNL1        0.0012
     46 C           7.1864   78.2273   29.1697 C.ar    1  UNL1        0.0131
     47 H           8.5264   78.6863   32.0922 H       1  UNL1        0.1660
@<TRIPOS>BOND
     1     1     2    2
     2     2     3   am
     3     3    26    1
     4    26    37    1
     5    37    38    1
     6    38    39   ar
     7    39    40   ar
     8    40    41   ar
     9    41    42   ar
    10    42    43   ar
    11    43    44   ar
    12    44    45   ar
    13    45    46   ar
    14    26    27    1
    15    27    28    2
    16    27    29   am
    17    29    31    1
    18    31    32   ar
    19    32    33   ar
    20    33    34   ar
    21    34    35   ar
    22    35    36   ar
    23     2     5    1
    24     5     6   ar
    25     6     7   ar
    26     7     8   ar
    27     8    12    1
    28    12    13    1
    29    13    14    1
    30    14    15    1
    31    15    18    1
    32    18    19   ar
    33    19    20   ar
    34    20    21   ar
    35    21    22    1
    36    21    23   ar
    37    23    24    1
    38    23    25   ar
    39    15    16    1
    40    16    17    1
    41     8     9   ar
    42     9    10   ar
    43    10    11    1
    44    46    38   ar
    45    36    31   ar
    46    10     5   ar
    47    46    41   ar
    48    17    12    1
    49    25    18   ar
    50     3     4    1
    51    40    47    1
    52    29    30    1
@<TRIPOS>MOLECULE
*****
 47 52 0 0 0
SMALL
GASTEIGER

@<TRIPOS>ATOM
      1 O           4.5493   78.7565   18.8387 O.2     1  UNL1       -0.2701
      2 C           5.0836   77.7723   19.4173 C.2     1  UNL1        0.2483
      3 N           4.4443   76.4931   19.3358 N.am    1  UNL1       -0.2945
      4 H           4.9186   75.7313   18.8010 H       1  UNL1        0.1501
      5 C           6.3254   77.9620   20.2141 C.ar    1  UNL1        0.0808
      6 C           6.7356   79.2632   20.5578 C.ar    1  UNL1        0.0080
      7 C           7.8410   79.4695   21.3864 C.ar    1  UNL1        0.0148
      8 C           8.5680   78.3813   21.8922 C.ar    1  UNL1        0.0502
      9 C           8.1742   77.0810   21.5360 C.ar    1  UNL1        0.0443
     10 C           7.0765   76.8690   20.6979 C.ar    1  UNL1        0.1457
     11 F           6.7476   75.5897   20.3916 F       1  UNL1       -0.2040
     12 N           9.6605   78.5978   22.8113 N.pl3   1  UNL1       -0.3040
     13 C          10.5731   77.5069   23.1852 C.3     1  UNL1        0.1122
     14 C          10.4120   77.2034   24.6798 C.3     1  UNL1        0.1122
     15 N          10.2850   78.4450   25.4635 N.pl3   1  UNL1       -0.3040
     16 C          10.5914   79.7305   24.8164 C.3     1  UNL1        0.1122
     17 C           9.7505   79.8755   23.5408 C.3     1  UNL1        0.1122
     18 C           9.7395   78.3905   26.7986 C.ar    1  UNL1        0.0488
     19 C          10.5242   77.9457   27.8772 C.ar    1  UNL1        0.0154
     20 C          10.0042   77.9317   29.1735 C.ar    1  UNL1        0.0135
     21 C           8.6962   78.3623   29.4143 C.ar    1  UNL1        0.0683
     22 CL          8.0799   78.3352   31.0609 Cl      1  UNL1       -0.0814
     23 C           7.9032   78.8117   28.3461 C.ar    1  UNL1        0.0694
     24 CL          6.2541   79.3643   28.6055 Cl      1  UNL1       -0.0813
     25 C           8.4265   78.8267   27.0477 C.ar    1  UNL1        0.0268
     26 C           3.2397   76.1717   20.1059 C.3     1  UNL1        0.1535
     27 C           2.1639   75.6445   19.1812 C.2     1  UNL1        0.2443
     28 O           1.9089   76.2385   18.0981 O.2     1  UNL1       -0.2730
     29 N           1.4034   74.4898   19.5694 N.am    1  UNL1       -0.2825
     30 H           1.8403   73.8331   20.2552 H       1  UNL1        0.1549
     31 C           0.0752   74.1882   19.1014 C.ar    1  UNL1        0.0535
     32 C          -0.9827   75.1086   19.2191 C.ar    1  UNL1        0.0353
     33 C          -2.2632   74.7461   18.7956 C.ar    1  UNL1        0.1002
     34 N          -2.4888   73.5074   18.2852 N.ar    1  UNL1       -0.2422
     35 C          -1.4918   72.5915   18.1742 C.ar    1  UNL1        0.1002
     36 C          -0.1959   72.9129   18.5852 C.ar    1  UNL1        0.0353
     37 C           3.5831   75.2056   21.2577 C.3     1  UNL1        0.0569
     38 C           3.9364   75.9473   22.5156 C.ar    1  UNL1       -0.0017
     39 C           3.3070   77.0833   23.0167 C.ar    1  UNL1        0.0681
     40 N           3.9278   77.5100   24.1401 N.ar    1  UNL1       -0.3523
     41 C           4.9466   76.6580   24.3485 C.ar    1  UNL1        0.0563
     42 C           5.8818   76.6954   25.3818 C.ar    1  UNL1        0.0170
     43 C           6.8793   75.7033   25.4020 C.ar    1  UNL1        0.0015
     44 C           6.9202   74.7087   24.3995 C.ar    1  UNL1        0.0001
     45 C           5.9637   74.6965   23.3680 C.ar    1  UNL1        0.0012
     46 C           4.9861   75.6919   23.3761 C.ar    1  UNL1        0.0131
     47 H           3.6699   78.3392   24.7201 H       1  UNL1        0.1660
@<TRIPOS>BOND
     1     1     2    2
     2     2     3   am
     3     3    26    1
     4    26    37    1
     5    37    38    1
     6    38    39   ar
     7    39    40   ar
     8    40    41   ar
     9    41    42   ar
    10    42    43   ar
    11    43    44   ar
    12    44    45   ar
    13    45    46   ar
    14    26    27    1
    15    27    28    2
    16    27    29   am
    17    29    31    1
    18    31    32   ar
    19    32    33   ar
    20    33    34   ar
    21    34    35   ar
    22    35    36   ar
    23     2     5    1
    24     5     6   ar
    25     6     7   ar
    26     7     8   ar
    27     8    12    1
    28    12    13    1
    29    13    14    1
    30    14    15    1
    31    15    18    1
    32    18    19   ar
    33    19    20   ar
    34    20    21   ar
    35    21    22    1
    36    21    23   ar
    37    23    24    1
    38    23    25   ar
    39    15    16    1
    40    16    17    1
    41     8     9   ar
    42     9    10   ar
    43    10    11    1
    44    46    38   ar
    45    36    31   ar
    46    10     5   ar
    47    46    41   ar
    48    17    12    1
    49    25    18   ar
    50     3     4    1
    51    40    47    1
    52    29    30    1
