@<TRIPOS>MOLECULE
*****
 31 34 0 0 0
SMALL
GASTEIGER

@<TRIPOS>ATOM
      1 C         -23.7129  -12.1739  -13.8395 C.ar    1  UNL1       -0.0145
      2 C         -24.4918  -11.3050  -13.0425 C.ar    1  UNL1        0.0134
      3 C         -23.8830  -10.6564  -11.9651 C.ar    1  UNL1        0.0597
      4 C         -22.5496  -10.8544  -11.6808 C.ar    1  UNL1        0.0177
      5 C         -21.7520  -11.7136  -12.4298 C.ar    1  UNL1        0.0079
      6 C         -22.3402  -12.3891  -13.5154 C.ar    1  UNL1        0.0307
      7 BR        -21.2309  -13.5888  -14.5207 Br      1  UNL1       -0.0493
      8 C         -22.2582  -10.0475  -10.6036 C.ar    1  UNL1        0.0177
      9 C         -21.0687   -9.8255   -9.9127 C.ar    1  UNL1        0.0082
     10 C         -21.0887   -8.8983   -8.8551 C.ar    1  UNL1        0.0347
     11 BR        -19.4906   -8.5501   -7.8700 Br      1  UNL1       -0.0490
     12 C         -22.2820   -8.2188   -8.5219 C.ar    1  UNL1        0.0082
     13 C         -23.4683   -8.4600   -9.2385 C.ar    1  UNL1        0.0177
     14 C         -23.4299   -9.3917  -10.2803 C.ar    1  UNL1        0.0600
     15 N         -24.4414   -9.7693  -11.1017 N.ar    1  UNL1       -0.3243
     16 C         -25.3237  -13.9715  -14.4836 C.3     1  UNL1        0.0050
     17 C         -24.3772  -12.8886  -14.9907 C.3     1  UNL1        0.0269
     18 C         -25.8165   -9.2614  -11.1205 C.3     1  UNL1        0.1429
     19 C         -26.0107   -8.2750  -12.2832 C.3     1  UNL1        0.2027
     20 F         -27.2449   -8.4707  -12.8783 F       1  UNL1       -0.2334
     21 C         -25.8685   -6.8110  -11.8314 C.3     1  UNL1        0.1259
     22 N         -24.7900   -6.1205  -12.5455 N.pl3   1  UNL1       -0.3157
     23 H         -25.0566   -5.3183  -13.1602 H       1  UNL1        0.1483
     24 C         -23.4350   -6.5911  -12.6142 C.ar    1  UNL1        0.1317
     25 C         -22.4427   -6.1183  -11.7394 C.ar    1  UNL1        0.0343
     26 C         -21.1461   -6.6265  -11.8353 C.ar    1  UNL1        0.0077
     27 C         -20.8449   -7.5905  -12.7977 C.ar    1  UNL1        0.0578
     28 C         -21.8489   -8.0325  -13.6622 C.ar    1  UNL1        0.2261
     29 N         -23.1069   -7.5201  -13.5537 N.ar    1  UNL1       -0.1969
     30 O         -21.5514   -9.0043  -14.6216 O.3     1  UNL1       -0.4561
     31 C         -22.3270   -9.1821  -15.8007 C.3     1  UNL1        0.2542
@<TRIPOS>BOND
     1    16    17    1
     2    17     1    1
     3     1     2   ar
     4     2     3   ar
     5     3     4   ar
     6     4     5   ar
     7     5     6   ar
     8     6     7    1
     9     4     8   ar
    10     8     9   ar
    11     9    10   ar
    12    10    11    1
    13    10    12   ar
    14    12    13   ar
    15    13    14   ar
    16    14    15   ar
    17    15    18    1
    18    18    19    1
    19    19    20    1
    20    19    21    1
    21    21    22    1
    22    22    24    1
    23    24    25   ar
    24    25    26   ar
    25    26    27   ar
    26    27    28   ar
    27    28    30    1
    28    30    31    1
    29    28    29   ar
    30     6     1   ar
    31    14     8   ar
    32    29    24   ar
    33    15     3   ar
    34    22    23    1
@<TRIPOS>MOLECULE
*****
 31 34 0 0 0
SMALL
GASTEIGER

@<TRIPOS>ATOM
      1 C         -22.8705   -7.7349  -12.5474 C.ar    1  UNL1       -0.0145
      2 C         -22.8637   -9.1190  -12.8324 C.ar    1  UNL1        0.0134
      3 C         -21.8748   -9.9184  -12.2535 C.ar    1  UNL1        0.0597
      4 C         -20.9230   -9.3747  -11.4190 C.ar    1  UNL1        0.0177
      5 C         -20.8842   -8.0153  -11.1259 C.ar    1  UNL1        0.0079
      6 C         -21.8616   -7.1830  -11.7028 C.ar    1  UNL1        0.0307
      7 BR        -21.7765   -5.3078  -11.3070 Br      1  UNL1       -0.0493
      8 C         -20.1387  -10.4221  -10.9902 C.ar    1  UNL1        0.0177
      9 C         -19.0508  -10.4639  -10.1204 C.ar    1  UNL1        0.0082
     10 C         -18.4724  -11.7182   -9.8545 C.ar    1  UNL1        0.0347
     11 BR        -16.9795  -11.8414   -8.6707 Br      1  UNL1       -0.0490
     12 C         -18.9936  -12.8876  -10.4527 C.ar    1  UNL1        0.0082
     13 C         -20.0951  -12.8168  -11.3249 C.ar    1  UNL1        0.0177
     14 C         -20.6501  -11.5597  -11.5834 C.ar    1  UNL1        0.0600
     15 N         -21.7101  -11.2609  -12.3756 N.ar    1  UNL1       -0.3243
     16 C         -25.0365   -7.7260  -13.7919 C.3     1  UNL1        0.0050
     17 C         -23.9275   -6.8701  -13.1892 C.3     1  UNL1        0.0269
     18 C         -22.5577  -12.1923  -13.1260 C.3     1  UNL1        0.1429
     19 C         -21.8863  -12.5826  -14.4524 C.3     1  UNL1        0.2027
     20 F         -21.4635  -13.8998  -14.4077 F       1  UNL1       -0.2334
     21 C         -22.8170  -12.3675  -15.6587 C.3     1  UNL1        0.1259
     22 N         -22.1885  -11.5410  -16.6940 N.pl3   1  UNL1       -0.3157
     23 H         -21.6359  -12.0328  -17.4323 H       1  UNL1        0.1483
     24 C         -22.1139  -10.1076  -16.6495 C.ar    1  UNL1        0.1317
     25 C         -21.0995   -9.4415  -15.9419 C.ar    1  UNL1        0.0343
     26 C         -21.0611   -8.0461  -15.9503 C.ar    1  UNL1        0.0077
     27 C         -22.0283   -7.3266  -16.6525 C.ar    1  UNL1        0.0578
     28 C         -23.0324   -8.0157  -17.3364 C.ar    1  UNL1        0.2261
     29 N         -23.0534   -9.3780  -17.3117 N.ar    1  UNL1       -0.1969
     30 O         -23.9976   -7.2972  -18.0473 O.3     1  UNL1       -0.4561
     31 C         -24.3738   -5.9690  -17.7040 C.3     1  UNL1        0.2542
@<TRIPOS>BOND
     1    16    17    1
     2    17     1    1
     3     1     2   ar
     4     2     3   ar
     5     3     4   ar
     6     4     5   ar
     7     5     6   ar
     8     6     7    1
     9     4     8   ar
    10     8     9   ar
    11     9    10   ar
    12    10    11    1
    13    10    12   ar
    14    12    13   ar
    15    13    14   ar
    16    14    15   ar
    17    15    18    1
    18    18    19    1
    19    19    20    1
    20    19    21    1
    21    21    22    1
    22    22    24    1
    23    24    25   ar
    24    25    26   ar
    25    26    27   ar
    26    27    28   ar
    27    28    30    1
    28    30    31    1
    29    28    29   ar
    30     6     1   ar
    31    14     8   ar
    32    29    24   ar
    33    15     3   ar
    34    22    23    1
@<TRIPOS>MOLECULE
*****
 31 34 0 0 0
SMALL
GASTEIGER

@<TRIPOS>ATOM
      1 C         -23.6712  -11.1657  -13.0098 C.ar    1  UNL1       -0.0145
      2 C         -23.3617   -9.9247  -12.4091 C.ar    1  UNL1        0.0134
      3 C         -24.1997   -8.8336  -12.6530 C.ar    1  UNL1        0.0597
      4 C         -25.3085   -8.9588  -13.4610 C.ar    1  UNL1        0.0177
      5 C         -25.6393  -10.1576  -14.0844 C.ar    1  UNL1        0.0079
      6 C         -24.8078  -11.2719  -13.8657 C.ar    1  UNL1        0.0307
      7 BR        -25.2661  -12.9093  -14.7540 Br      1  UNL1       -0.0493
      8 C         -25.9320   -7.7310  -13.4575 C.ar    1  UNL1        0.0177
      9 C         -27.0998   -7.2880  -14.0753 C.ar    1  UNL1        0.0082
     10 C         -27.4975   -5.9581  -13.8475 C.ar    1  UNL1        0.0347
     11 BR        -29.0887   -5.2917  -14.6655 Br      1  UNL1       -0.0490
     12 C         -26.7303   -5.1152  -13.0122 C.ar    1  UNL1        0.0082
     13 C         -25.5569   -5.5896  -12.3984 C.ar    1  UNL1        0.0177
     14 C         -25.1737   -6.9116  -12.6445 C.ar    1  UNL1        0.0600
     15 N         -24.0960   -7.5745  -12.1550 N.ar    1  UNL1       -0.3243
     16 C         -21.3630  -11.8619  -12.3555 C.3     1  UNL1        0.0050
     17 C         -22.7539  -12.3379  -12.7609 C.3     1  UNL1        0.0269
     18 C         -23.0883   -7.0743  -11.2150 C.3     1  UNL1        0.1429
     19 C         -21.8985   -6.4655  -11.9742 C.3     1  UNL1        0.2027
     20 F         -21.3005   -5.4746  -11.2151 F       1  UNL1       -0.2334
     21 C         -20.8582   -7.5279  -12.3697 C.3     1  UNL1        0.1259
     22 N         -20.5945   -7.5249  -13.8121 N.pl3   1  UNL1       -0.3157
     23 H         -19.8597   -6.8709  -14.1654 H       1  UNL1        0.1483
     24 C         -21.4051   -8.2041  -14.7836 C.ar    1  UNL1        0.1317
     25 C         -22.4262   -7.5434  -15.4867 C.ar    1  UNL1        0.0343
     26 C         -23.1694   -8.2461  -16.4366 C.ar    1  UNL1        0.0077
     27 C         -22.8986   -9.5937  -16.6756 C.ar    1  UNL1        0.0578
     28 C         -21.8859  -10.2276  -15.9523 C.ar    1  UNL1        0.2261
     29 N         -21.1753   -9.5238  -15.0268 N.ar    1  UNL1       -0.1969
     30 O         -21.6074  -11.5753  -16.1959 O.3     1  UNL1       -0.4561
     31 C         -22.3109  -12.3418  -17.1659 C.3     1  UNL1        0.2542
@<TRIPOS>BOND
     1    16    17    1
     2    17     1    1
     3     1     2   ar
     4     2     3   ar
     5     3     4   ar
     6     4     5   ar
     7     5     6   ar
     8     6     7    1
     9     4     8   ar
    10     8     9   ar
    11     9    10   ar
    12    10    11    1
    13    10    12   ar
    14    12    13   ar
    15    13    14   ar
    16    14    15   ar
    17    15    18    1
    18    18    19    1
    19    19    20    1
    20    19    21    1
    21    21    22    1
    22    22    24    1
    23    24    25   ar
    24    25    26   ar
    25    26    27   ar
    26    27    28   ar
    27    28    30    1
    28    30    31    1
    29    28    29   ar
    30     6     1   ar
    31    14     8   ar
    32    29    24   ar
    33    15     3   ar
    34    22    23    1
@<TRIPOS>MOLECULE
*****
 31 34 0 0 0
SMALL
GASTEIGER

@<TRIPOS>ATOM
      1 C         -21.6637   -9.1517  -10.1065 C.ar    1  UNL1       -0.0145
      2 C         -22.9685   -9.0714  -10.6431 C.ar    1  UNL1        0.0134
      3 C         -23.3552  -10.0036  -11.6092 C.ar    1  UNL1        0.0597
      4 C         -22.4871  -10.9855  -12.0337 C.ar    1  UNL1        0.0177
      5 C         -21.1893  -11.0895  -11.5433 C.ar    1  UNL1        0.0079
      6 C         -20.7677  -10.1578  -10.5764 C.ar    1  UNL1        0.0307
      7 BR        -18.9668  -10.3017   -9.9310 Br      1  UNL1       -0.0493
      8 C         -23.1823  -11.7526  -12.9417 C.ar    1  UNL1        0.0177
      9 C         -22.8145  -12.8854  -13.6649 C.ar    1  UNL1        0.0082
     10 C         -23.7807  -13.4690  -14.5043 C.ar    1  UNL1        0.0347
     11 BR        -23.3381  -15.0232  -15.5210 Br      1  UNL1       -0.0490
     12 C         -25.0780  -12.9159  -14.5943 C.ar    1  UNL1        0.0082
     13 C         -25.4233  -11.7731  -13.8503 C.ar    1  UNL1        0.0177
     14 C         -24.4462  -11.2027  -13.0288 C.ar    1  UNL1        0.0600
     15 N         -24.5607  -10.1162  -12.2244 N.ar    1  UNL1       -0.3243
     16 C         -21.3826   -6.7163   -9.6268 C.3     1  UNL1        0.0050
     17 C         -21.2414   -8.1319   -9.0775 C.3     1  UNL1        0.0269
     18 C         -25.7533   -9.2960  -11.9920 C.3     1  UNL1        0.1429
     19 C         -26.0558   -8.4245  -13.2214 C.3     1  UNL1        0.2027
     20 F         -27.4112   -8.1549  -13.2976 F       1  UNL1       -0.2334
     21 C         -25.2558   -7.1101  -13.2113 C.3     1  UNL1        0.1259
     22 N         -24.4074   -6.9770  -14.3998 N.pl3   1  UNL1       -0.3157
     23 H         -24.6195   -6.1923  -15.0568 H       1  UNL1        0.1483
     24 C         -23.4458   -7.9571  -14.8206 C.ar    1  UNL1        0.1317
     25 C         -22.1183   -7.9353  -14.3615 C.ar    1  UNL1        0.0343
     26 C         -21.2306   -8.9257  -14.7853 C.ar    1  UNL1        0.0077
     27 C         -21.6636   -9.9212  -15.6615 C.ar    1  UNL1        0.0578
     28 C         -22.9859   -9.9101  -16.1112 C.ar    1  UNL1        0.2261
     29 N         -23.8347   -8.9317  -15.6881 N.ar    1  UNL1       -0.1969
     30 O         -23.4242  -10.9111  -16.9825 O.3     1  UNL1       -0.4561
     31 C         -22.5369  -11.8399  -17.5937 C.3     1  UNL1        0.2542
@<TRIPOS>BOND
     1    16    17    1
     2    17     1    1
     3     1     2   ar
     4     2     3   ar
     5     3     4   ar
     6     4     5   ar
     7     5     6   ar
     8     6     7    1
     9     4     8   ar
    10     8     9   ar
    11     9    10   ar
    12    10    11    1
    13    10    12   ar
    14    12    13   ar
    15    13    14   ar
    16    14    15   ar
    17    15    18    1
    18    18    19    1
    19    19    20    1
    20    19    21    1
    21    21    22    1
    22    22    24    1
    23    24    25   ar
    24    25    26   ar
    25    26    27   ar
    26    27    28   ar
    27    28    30    1
    28    30    31    1
    29    28    29   ar
    30     6     1   ar
    31    14     8   ar
    32    29    24   ar
    33    15     3   ar
    34    22    23    1
@<TRIPOS>MOLECULE
*****
 31 34 0 0 0
SMALL
GASTEIGER

@<TRIPOS>ATOM
      1 C         -24.2106  -12.3549  -14.0766 C.ar    1  UNL1       -0.0145
      2 C         -24.5821  -11.4615  -13.0468 C.ar    1  UNL1        0.0134
      3 C         -23.6065  -11.0404  -12.1395 C.ar    1  UNL1        0.0597
      4 C         -22.3057  -11.4824  -12.2422 C.ar    1  UNL1        0.0177
      5 C         -21.9023  -12.3744  -13.2305 C.ar    1  UNL1        0.0079
      6 C         -22.8654  -12.8244  -14.1529 C.ar    1  UNL1        0.0307
      7 BR        -22.2957  -14.0737  -15.4927 Br      1  UNL1       -0.0493
      8 C         -21.6019  -10.8542  -11.2391 C.ar    1  UNL1        0.0177
      9 C         -20.2546  -10.9045  -10.8870 C.ar    1  UNL1        0.0082
     10 C         -19.8286  -10.1056   -9.8105 C.ar    1  UNL1        0.0347
     11 BR        -17.9947  -10.1303   -9.2798 Br      1  UNL1       -0.0490
     12 C         -20.7480   -9.2806   -9.1242 C.ar    1  UNL1        0.0082
     13 C         -22.1023   -9.2468   -9.5031 C.ar    1  UNL1        0.0177
     14 C         -22.5077  -10.0549  -10.5696 C.ar    1  UNL1        0.0600
     15 N         -23.7487  -10.1722  -11.1050 N.ar    1  UNL1       -0.3243
     16 C         -26.1835  -13.8550  -14.3894 C.3     1  UNL1        0.0050
     17 C         -25.2700  -12.8239  -15.0436 C.3     1  UNL1        0.0269
     18 C         -24.9630   -9.4480  -10.7174 C.3     1  UNL1        0.1429
     19 C         -25.4311   -8.5312  -11.8589 C.3     1  UNL1        0.2027
     20 F         -26.7874   -8.2790  -11.7471 F       1  UNL1       -0.2334
     21 C         -24.6490   -7.2066  -11.8965 C.3     1  UNL1        0.1259
     22 N         -24.1372   -6.9115  -13.2384 N.pl3   1  UNL1       -0.3157
     23 H         -24.5410   -6.0861  -13.7365 H       1  UNL1        0.1483
     24 C         -23.2757   -7.7846  -13.9853 C.ar    1  UNL1        0.1317
     25 C         -21.9217   -7.9515  -13.6502 C.ar    1  UNL1        0.0343
     26 C         -21.1345   -8.8303  -14.3964 C.ar    1  UNL1        0.0077
     27 C         -21.6932   -9.5282  -15.4675 C.ar    1  UNL1        0.0578
     28 C         -23.0391   -9.3325  -15.7852 C.ar    1  UNL1        0.2261
     29 N         -23.7883   -8.4669  -15.0460 N.ar    1  UNL1       -0.1969
     30 O         -23.6030  -10.0368  -16.8526 O.3     1  UNL1       -0.4561
     31 C         -22.9190  -11.0858  -17.5273 C.3     1  UNL1        0.2542
@<TRIPOS>BOND
     1    16    17    1
     2    17     1    1
     3     1     2   ar
     4     2     3   ar
     5     3     4   ar
     6     4     5   ar
     7     5     6   ar
     8     6     7    1
     9     4     8   ar
    10     8     9   ar
    11     9    10   ar
    12    10    11    1
    13    10    12   ar
    14    12    13   ar
    15    13    14   ar
    16    14    15   ar
    17    15    18    1
    18    18    19    1
    19    19    20    1
    20    19    21    1
    21    21    22    1
    22    22    24    1
    23    24    25   ar
    24    25    26   ar
    25    26    27   ar
    26    27    28   ar
    27    28    30    1
    28    30    31    1
    29    28    29   ar
    30     6     1   ar
    31    14     8   ar
    32    29    24   ar
    33    15     3   ar
    34    22    23    1
@<TRIPOS>MOLECULE
*****
 31 34 0 0 0
SMALL
GASTEIGER

@<TRIPOS>ATOM
      1 C         -20.1992  -10.4801  -10.3461 C.ar    1  UNL1       -0.0145
      2 C         -21.3393   -9.7435  -10.7391 C.ar    1  UNL1        0.0134
      3 C         -22.2243  -10.3155  -11.6565 C.ar    1  UNL1        0.0597
      4 C         -21.9967  -11.5732  -12.1706 C.ar    1  UNL1        0.0177
      5 C         -20.8787  -12.3245  -11.8229 C.ar    1  UNL1        0.0079
      6 C         -19.9637  -11.7701  -10.9085 C.ar    1  UNL1        0.0307
      7 BR        -18.4154  -12.8106  -10.4608 Br      1  UNL1       -0.0493
      8 C         -23.0618  -11.8534  -12.9973 C.ar    1  UNL1        0.0177
      9 C         -23.3698  -12.9820  -13.7543 C.ar    1  UNL1        0.0082
     10 C         -24.5725  -12.9734  -14.4837 C.ar    1  UNL1        0.0347
     11 BR        -25.0508  -14.4903  -15.5400 Br      1  UNL1       -0.0490
     12 C         -25.4311  -11.8522  -14.4342 C.ar    1  UNL1        0.0082
     13 C         -25.0969  -10.7270  -13.6589 C.ar    1  UNL1        0.0177
     14 C         -23.8929  -10.7514  -12.9483 C.ar    1  UNL1        0.0600
     15 N         -23.3809   -9.7914  -12.1379 N.ar    1  UNL1       -0.3243
     16 C         -19.8177   -8.5749   -8.7760 C.3     1  UNL1        0.0050
     17 C         -19.2344   -9.8525   -9.3702 C.3     1  UNL1        0.0269
     18 C         -23.9870   -8.5056  -11.7795 C.3     1  UNL1        0.1429
     19 C         -23.6415   -7.4361  -12.8280 C.3     1  UNL1        0.2027
     20 F         -24.5000   -6.3565  -12.7141 F       1  UNL1       -0.2334
     21 C         -22.1814   -6.9639  -12.7151 C.3     1  UNL1        0.1259
     22 N         -21.3330   -7.5566  -13.7537 N.pl3   1  UNL1       -0.3157
     23 H         -20.3140   -7.3250  -13.7326 H       1  UNL1        0.1483
     24 C         -21.8325   -8.2622  -14.9004 C.ar    1  UNL1        0.1317
     25 C         -22.6073   -7.6229  -15.8825 C.ar    1  UNL1        0.0343
     26 C         -23.0484   -8.3512  -16.9886 C.ar    1  UNL1        0.0077
     27 C         -22.7238   -9.7028  -17.1076 C.ar    1  UNL1        0.0578
     28 C         -21.9627  -10.3149  -16.1092 C.ar    1  UNL1        0.2261
     29 N         -21.5458   -9.5862  -15.0359 N.ar    1  UNL1       -0.1969
     30 O         -21.6292  -11.6667  -16.2304 O.3     1  UNL1       -0.4561
     31 C         -22.0965  -12.4801  -17.2998 C.3     1  UNL1        0.2542
@<TRIPOS>BOND
     1    16    17    1
     2    17     1    1
     3     1     2   ar
     4     2     3   ar
     5     3     4   ar
     6     4     5   ar
     7     5     6   ar
     8     6     7    1
     9     4     8   ar
    10     8     9   ar
    11     9    10   ar
    12    10    11    1
    13    10    12   ar
    14    12    13   ar
    15    13    14   ar
    16    14    15   ar
    17    15    18    1
    18    18    19    1
    19    19    20    1
    20    19    21    1
    21    21    22    1
    22    22    24    1
    23    24    25   ar
    24    25    26   ar
    25    26    27   ar
    26    27    28   ar
    27    28    30    1
    28    30    31    1
    29    28    29   ar
    30     6     1   ar
    31    14     8   ar
    32    29    24   ar
    33    15     3   ar
    34    22    23    1
@<TRIPOS>MOLECULE
*****
 31 34 0 0 0
SMALL
GASTEIGER

@<TRIPOS>ATOM
      1 C         -20.9879   -8.5999  -11.3576 C.ar    1  UNL1       -0.0145
      2 C         -21.0897   -9.6194  -12.3309 C.ar    1  UNL1        0.0134
      3 C         -21.6994   -9.3223  -13.5524 C.ar    1  UNL1        0.0597
      4 C         -22.1924   -8.0619  -13.8100 C.ar    1  UNL1        0.0177
      5 C         -22.1272   -7.0352  -12.8735 C.ar    1  UNL1        0.0079
      6 C         -21.5277   -7.3075  -11.6296 C.ar    1  UNL1        0.0307
      7 BR        -21.4699   -5.8865  -10.3421 Br      1  UNL1       -0.0493
      8 C         -22.6802   -8.0914  -15.0974 C.ar    1  UNL1        0.0177
      9 C         -23.2661   -7.1019  -15.8845 C.ar    1  UNL1        0.0082
     10 C         -23.6373   -7.4438  -17.1976 C.ar    1  UNL1        0.0347
     11 BR        -24.4444   -6.1319  -18.3259 Br      1  UNL1       -0.0490
     12 C         -23.4107   -8.7495  -17.6881 C.ar    1  UNL1        0.0082
     13 C         -22.8143   -9.7282  -16.8725 C.ar    1  UNL1        0.0177
     14 C         -22.4608   -9.3713  -15.5676 C.ar    1  UNL1        0.0600
     15 N         -21.8711  -10.1431  -14.6206 N.ar    1  UNL1       -0.3243
     16 C         -19.4277  -10.1387  -10.1582 C.3     1  UNL1        0.0050
     17 C         -20.3467   -8.9283  -10.0316 C.3     1  UNL1        0.0269
     18 C         -21.4253  -11.5338  -14.7491 C.3     1  UNL1        0.1429
     19 C         -22.3790  -12.4769  -13.9983 C.3     1  UNL1        0.2027
     20 F         -22.2278  -12.3244  -12.6310 F       1  UNL1       -0.2334
     21 C         -23.8485  -12.2520  -14.3954 C.3     1  UNL1        0.1259
     22 N         -24.6775  -11.8893  -13.2417 N.pl3   1  UNL1       -0.3157
     23 H         -25.2175  -12.6545  -12.7779 H       1  UNL1        0.1483
     24 C         -24.9514  -10.5394  -12.8354 C.ar    1  UNL1        0.1317
     25 C         -25.6151   -9.6333  -13.6792 C.ar    1  UNL1        0.0343
     26 C         -25.8758   -8.3393  -13.2251 C.ar    1  UNL1        0.0077
     27 C         -25.4724   -7.9551  -11.9461 C.ar    1  UNL1        0.0578
     28 C         -24.8032   -8.8735  -11.1341 C.ar    1  UNL1        0.2261
     29 N         -24.5554  -10.1303  -11.5987 N.ar    1  UNL1       -0.1969
     30 O         -24.4055   -8.4934   -9.8493 O.3     1  UNL1       -0.4561
     31 C         -23.8631   -9.4133   -8.9096 C.3     1  UNL1        0.2542
@<TRIPOS>BOND
     1    16    17    1
     2    17     1    1
     3     1     2   ar
     4     2     3   ar
     5     3     4   ar
     6     4     5   ar
     7     5     6   ar
     8     6     7    1
     9     4     8   ar
    10     8     9   ar
    11     9    10   ar
    12    10    11    1
    13    10    12   ar
    14    12    13   ar
    15    13    14   ar
    16    14    15   ar
    17    15    18    1
    18    18    19    1
    19    19    20    1
    20    19    21    1
    21    21    22    1
    22    22    24    1
    23    24    25   ar
    24    25    26   ar
    25    26    27   ar
    26    27    28   ar
    27    28    30    1
    28    30    31    1
    29    28    29   ar
    30     6     1   ar
    31    14     8   ar
    32    29    24   ar
    33    15     3   ar
    34    22    23    1
@<TRIPOS>MOLECULE
*****
 31 34 0 0 0
SMALL
GASTEIGER

@<TRIPOS>ATOM
      1 C         -22.4601   -7.4083  -10.6904 C.ar    1  UNL1       -0.0145
      2 C         -22.7370   -7.4024  -12.0761 C.ar    1  UNL1        0.0134
      3 C         -23.3060   -8.5414  -12.6515 C.ar    1  UNL1        0.0597
      4 C         -23.5954   -9.6513  -11.8883 C.ar    1  UNL1        0.0177
      5 C         -23.3235   -9.7043  -10.5250 C.ar    1  UNL1        0.0079
      6 C         -22.7407   -8.5755   -9.9193 C.ar    1  UNL1        0.0307
      7 BR        -22.3499   -8.6770   -8.0438 Br      1  UNL1       -0.0493
      8 C         -24.1786  -10.5651  -12.7374 C.ar    1  UNL1        0.0177
      9 C         -24.6895  -11.8412  -12.5088 C.ar    1  UNL1        0.0082
     10 C         -25.2600  -12.5233  -13.5987 C.ar    1  UNL1        0.0347
     11 BR        -25.9777  -14.2750  -13.3494 Br      1  UNL1       -0.0490
     12 C         -25.3110  -11.9176  -14.8744 C.ar    1  UNL1        0.0082
     13 C         -24.7903  -10.6265  -15.0762 C.ar    1  UNL1        0.0177
     14 C         -24.2194   -9.9687  -13.9825 C.ar    1  UNL1        0.0600
     15 N         -23.6715   -8.7282  -13.9460 N.ar    1  UNL1       -0.3243
     16 C         -21.6305   -5.0914  -11.1197 C.3     1  UNL1        0.0050
     17 C         -21.8274   -6.1844  -10.0747 C.3     1  UNL1        0.0269
     18 C         -23.5791   -7.7577  -15.0409 C.3     1  UNL1        0.1429
     19 C         -22.2178   -7.8687  -15.7458 C.3     1  UNL1        0.2027
     20 F         -21.2036   -8.0045  -14.8137 F       1  UNL1       -0.2334
     21 C         -22.1761   -9.0376  -16.7456 C.3     1  UNL1        0.1259
     22 N         -21.1596  -10.0306  -16.3841 N.pl3   1  UNL1       -0.3157
     23 H         -20.1747   -9.8391  -16.6769 H       1  UNL1        0.1483
     24 C         -21.4529  -11.3262  -15.8387 C.ar    1  UNL1        0.1317
     25 C         -21.9797  -12.3600  -16.6307 C.ar    1  UNL1        0.0343
     26 C         -22.2253  -13.6074  -16.0543 C.ar    1  UNL1        0.0077
     27 C         -21.9532  -13.8160  -14.7020 C.ar    1  UNL1        0.0578
     28 C         -21.4417  -12.7658  -13.9364 C.ar    1  UNL1        0.2261
     29 N         -21.2131  -11.5550  -14.5182 N.ar    1  UNL1       -0.1969
     30 O         -21.1605  -12.9749  -12.5834 O.3     1  UNL1       -0.4561
     31 C         -20.6858  -11.9413  -11.7290 C.3     1  UNL1        0.2542
@<TRIPOS>BOND
     1    16    17    1
     2    17     1    1
     3     1     2   ar
     4     2     3   ar
     5     3     4   ar
     6     4     5   ar
     7     5     6   ar
     8     6     7    1
     9     4     8   ar
    10     8     9   ar
    11     9    10   ar
    12    10    11    1
    13    10    12   ar
    14    12    13   ar
    15    13    14   ar
    16    14    15   ar
    17    15    18    1
    18    18    19    1
    19    19    20    1
    20    19    21    1
    21    21    22    1
    22    22    24    1
    23    24    25   ar
    24    25    26   ar
    25    26    27   ar
    26    27    28   ar
    27    28    30    1
    28    30    31    1
    29    28    29   ar
    30     6     1   ar
    31    14     8   ar
    32    29    24   ar
    33    15     3   ar
    34    22    23    1
@<TRIPOS>MOLECULE
*****
 31 34 0 0 0
SMALL
GASTEIGER

@<TRIPOS>ATOM
      1 C         -23.1511  -11.7219  -13.7116 C.ar    1  UNL1       -0.0145
      2 C         -23.1244  -10.6965  -12.7396 C.ar    1  UNL1        0.0134
      3 C         -22.0646  -10.6620  -11.8297 C.ar    1  UNL1        0.0597
      4 C         -21.0613  -11.6051  -11.8748 C.ar    1  UNL1        0.0177
      5 C         -21.0585  -12.6399  -12.8046 C.ar    1  UNL1        0.0079
      6 C         -22.1189  -12.7067  -13.7276 C.ar    1  UNL1        0.0307
      7 BR        -22.1108  -14.1552  -14.9854 Br      1  UNL1       -0.0493
      8 C         -20.1640  -11.2649  -10.8872 C.ar    1  UNL1        0.0177
      9 C         -18.9582  -11.8444  -10.4973 C.ar    1  UNL1        0.0082
     10 C         -18.2439  -11.2303   -9.4526 C.ar    1  UNL1        0.0347
     11 BR        -16.5847  -11.9762   -8.8729 Br      1  UNL1       -0.0490
     12 C         -18.7435  -10.0618   -8.8346 C.ar    1  UNL1        0.0082
     13 C         -19.9624   -9.4960   -9.2506 C.ar    1  UNL1        0.0177
     14 C         -20.6617  -10.1264  -10.2843 C.ar    1  UNL1        0.0600
     15 N         -21.8392   -9.7537  -10.8457 N.ar    1  UNL1       -0.3243
     16 C         -23.9466  -11.0729  -15.9890 C.3     1  UNL1        0.0050
     17 C         -24.3069  -11.7689  -14.6807 C.3     1  UNL1        0.0269
     18 C         -22.6482   -8.5730  -10.5284 C.3     1  UNL1        0.1429
     19 C         -21.9892   -7.3021  -11.0881 C.3     1  UNL1        0.2027
     20 F         -20.7569   -7.6036  -11.6415 F       1  UNL1       -0.2334
     21 C         -22.8777   -6.5986  -12.1290 C.3     1  UNL1        0.1259
     22 N         -23.3790   -7.5333  -13.1414 N.pl3   1  UNL1       -0.3157
     23 H         -24.0978   -8.2294  -12.8394 H       1  UNL1        0.1483
     24 C         -22.8114   -7.6871  -14.4515 C.ar    1  UNL1        0.1317
     25 C         -21.5336   -8.2382  -14.6438 C.ar    1  UNL1        0.0343
     26 C         -21.0391   -8.3855  -15.9409 C.ar    1  UNL1        0.0077
     27 C         -21.8104   -7.9811  -17.0308 C.ar    1  UNL1        0.0578
     28 C         -23.0720   -7.4247  -16.8084 C.ar    1  UNL1        0.2261
     29 N         -23.5336   -7.2864  -15.5338 N.ar    1  UNL1       -0.1969
     30 O         -23.8498   -7.0265  -17.8991 O.3     1  UNL1       -0.4561
     31 C         -24.5615   -5.7952  -17.9261 C.3     1  UNL1        0.2542
@<TRIPOS>BOND
     1    16    17    1
     2    17     1    1
     3     1     2   ar
     4     2     3   ar
     5     3     4   ar
     6     4     5   ar
     7     5     6   ar
     8     6     7    1
     9     4     8   ar
    10     8     9   ar
    11     9    10   ar
    12    10    11    1
    13    10    12   ar
    14    12    13   ar
    15    13    14   ar
    16    14    15   ar
    17    15    18    1
    18    18    19    1
    19    19    20    1
    20    19    21    1
    21    21    22    1
    22    22    24    1
    23    24    25   ar
    24    25    26   ar
    25    26    27   ar
    26    27    28   ar
    27    28    30    1
    28    30    31    1
    29    28    29   ar
    30     6     1   ar
    31    14     8   ar
    32    29    24   ar
    33    15     3   ar
    34    22    23    1
