@<TRIPOS>MOLECULE
*****
 48 53 0 0 0
SMALL
GASTEIGER

@<TRIPOS>ATOM
      1 C          10.7640   80.9576   25.6604 C.2     1  UNL1        0.2839
      2 O          10.2622   81.3469   24.5716 O.2     1  UNL1       -0.2665
      3 N          12.0806   81.3858   26.0448 N.am    1  UNL1       -0.2766
      4 H          12.5850   80.8278   26.7708 H       1  UNL1        0.1553
      5 C           8.8109   78.5980   24.7195 C.3     1  UNL1        0.0345
      6 C           9.1676   78.9927   26.1212 C.ar    1  UNL1        0.0202
      7 C          10.0156   80.0269   26.5261 C.ar    1  UNL1        0.1946
      8 O          10.0647   80.0790   27.8442 O.2     1  UNL1       -0.4490
      9 C           9.2954   79.1299   28.3227 C.ar    1  UNL1        0.1514
     10 C           9.0402   78.8269   29.6659 C.ar    1  UNL1        0.1099
     11 C           8.1274   77.7806   29.9294 C.ar    1  UNL1        0.0095
     12 C           7.5165   77.0529   28.8743 C.ar    1  UNL1        0.0004
     13 C           7.8169   77.3874   27.5351 C.ar    1  UNL1        0.0028
     14 C           8.7086   78.4323   27.2983 C.ar    1  UNL1        0.0339
     15 C           6.5681   75.9505   29.1745 C.ar    1  UNL1        0.0000
     16 C           6.5304   74.7988   28.3655 C.ar    1  UNL1        0.0000
     17 C           5.6365   73.7621   28.6505 C.ar    1  UNL1        0.0000
     18 C           4.7730   73.8617   29.7437 C.ar    1  UNL1        0.0000
     19 C           4.8015   74.9986   30.5544 C.ar    1  UNL1        0.0000
     20 C           5.6926   76.0388   30.2736 C.ar    1  UNL1        0.0000
     21 C           9.6637   79.5801   30.7786 C.2     1  UNL1        0.3410
     22 O           9.5113   79.1809   31.9636 O.2     1  UNL1       -0.2450
     23 O          10.4409   80.7147   30.5514 O.3     1  UNL1       -0.4770
     24 H          10.7059   81.0132   29.6219 H       1  UNL1        0.2954
     25 C          12.7932   82.4631   25.4130 C.ar    1  UNL1        0.0702
     26 C          13.4239   83.4331   26.2014 C.ar    1  UNL1        0.0191
     27 C          14.0994   84.4969   25.6018 C.ar    1  UNL1        0.0356
     28 C          14.1344   84.5932   24.2030 C.ar    1  UNL1        0.1318
     29 N          13.4818   83.6603   23.4549 N.ar    1  UNL1       -0.2279
     30 C          12.8206   82.6140   24.0168 C.ar    1  UNL1        0.1149
     31 N          14.8114   85.6860   23.5550 N.pl3   1  UNL1       -0.2932
     32 C          15.6504   85.4239   22.3786 C.3     1  UNL1        0.0923
     33 C          15.5505   86.5864   21.3847 C.3     1  UNL1        0.0252
     34 C          15.8330   87.9321   22.0808 C.3     1  UNL1        0.0472
     35 C          14.8733   88.1279   23.2693 C.3     1  UNL1        0.0252
     36 C          14.9964   86.9645   24.2562 C.3     1  UNL1        0.0923
     37 C          15.7789   89.1038   21.0794 C.3     1  UNL1        0.2054
     38 O          14.4365   89.5074   20.7919 O.3     1  UNL1       -0.4755
     39 C          13.7459   89.3305   19.5806 C.ar    1  UNL1        0.1388
     40 C          12.3480   89.3048   19.6276 C.ar    1  UNL1        0.0369
     41 C          11.6004   89.1381   18.4613 C.ar    1  UNL1        0.0033
     42 C          12.2429   88.9922   17.2310 C.ar    1  UNL1        0.0066
     43 C          13.6465   89.0081   17.1563 C.ar    1  UNL1        0.0785
     44 C          14.3933   89.1726   18.3375 C.ar    1  UNL1        0.0433
     45 C          14.3321   88.8554   15.8534 C.2     1  UNL1        0.3381
     46 O          15.5287   89.2280   15.7138 O.2     1  UNL1       -0.2451
     47 O          13.6622   88.2966   14.7678 O.3     1  UNL1       -0.4771
     48 H          14.1228   88.1870   13.8722 H       1  UNL1        0.2954
@<TRIPOS>BOND
     1     5     6    1
     2     6     7   ar
     3     7     1    1
     4     1     2    2
     5     1     3   am
     6     3    25    1
     7    25    26   ar
     8    26    27   ar
     9    27    28   ar
    10    28    31    1
    11    31    32    1
    12    32    33    1
    13    33    34    1
    14    34    37    1
    15    37    38    1
    16    38    39    1
    17    39    40   ar
    18    40    41   ar
    19    41    42   ar
    20    42    43   ar
    21    43    45    1
    22    45    46    2
    23    45    47    1
    24    43    44   ar
    25    34    35    1
    26    35    36    1
    27    28    29   ar
    28    29    30   ar
    29     7     8   ar
    30     8     9   ar
    31     9    10   ar
    32    10    21    1
    33    21    22    2
    34    21    23    1
    35    10    11   ar
    36    11    12   ar
    37    12    15    1
    38    15    16   ar
    39    16    17   ar
    40    17    18   ar
    41    18    19   ar
    42    19    20   ar
    43    12    13   ar
    44    13    14   ar
    45    14     6   ar
    46    30    25   ar
    47    14     9   ar
    48    36    31    1
    49    20    15   ar
    50    44    39   ar
    51     3     4    1
    52    47    48    1
    53    23    24    1
@<TRIPOS>MOLECULE
*****
 48 53 0 0 0
SMALL
GASTEIGER

@<TRIPOS>ATOM
      1 C          10.1136   78.9071   24.6088 C.2     1  UNL1        0.2839
      2 O          10.1035   79.1933   23.3813 O.2     1  UNL1       -0.2665
      3 N          11.0473   79.5471   25.4937 N.am    1  UNL1       -0.2766
      4 H          11.2448   79.0890   26.4124 H       1  UNL1        0.1553
      5 C           8.5641   78.9652   27.4130 C.3     1  UNL1        0.0345
      6 C           8.5090   77.9057   26.3536 C.ar    1  UNL1        0.0202
      7 C           9.1918   77.8826   25.1346 C.ar    1  UNL1        0.1946
      8 O           8.9041   76.7740   24.4784 O.2     1  UNL1       -0.4490
      9 C           8.0654   76.0722   25.2033 C.ar    1  UNL1        0.1514
     10 C           7.5057   74.8244   24.9019 C.ar    1  UNL1        0.1099
     11 C           6.6610   74.2439   25.8750 C.ar    1  UNL1        0.0095
     12 C           6.3741   74.9121   27.0945 C.ar    1  UNL1        0.0004
     13 C           6.9524   76.1762   27.3464 C.ar    1  UNL1        0.0028
     14 C           7.7938   76.7233   26.3793 C.ar    1  UNL1        0.0339
     15 C           5.4755   74.2879   28.0983 C.ar    1  UNL1        0.0000
     16 C           5.0684   72.9474   27.9589 C.ar    1  UNL1        0.0000
     17 C           4.2223   72.3621   28.9057 C.ar    1  UNL1        0.0000
     18 C           3.7746   73.1051   30.0002 C.ar    1  UNL1        0.0000
     19 C           4.1721   74.4355   30.1503 C.ar    1  UNL1        0.0000
     20 C           5.0174   75.0263   29.2062 C.ar    1  UNL1        0.0000
     21 C           7.7995   74.1106   23.6377 C.2     1  UNL1        0.3410
     22 O           7.3300   72.9569   23.4501 O.2     1  UNL1       -0.2450
     23 O           8.5675   74.6907   22.6294 O.3     1  UNL1       -0.4770
     24 H           8.8664   75.6564   22.6631 H       1  UNL1        0.2954
     25 C          11.8129   80.7144   25.1488 C.ar    1  UNL1        0.0702
     26 C          11.1615   81.9393   24.9602 C.ar    1  UNL1        0.0191
     27 C          11.8889   83.0753   24.6026 C.ar    1  UNL1        0.0356
     28 C          13.2768   82.9797   24.4239 C.ar    1  UNL1        0.1318
     29 N          13.8857   81.7705   24.5746 N.ar    1  UNL1       -0.2279
     30 C          13.1982   80.6516   24.9259 C.ar    1  UNL1        0.1149
     31 N          14.0528   84.1304   24.0418 N.pl3   1  UNL1       -0.2932
     32 C          15.0165   84.0214   22.9392 C.3     1  UNL1        0.0923
     33 C          15.0636   85.3301   22.1428 C.3     1  UNL1        0.0252
     34 C          15.2973   86.5345   23.0757 C.3     1  UNL1        0.0472
     35 C          14.2106   86.5815   24.1659 C.3     1  UNL1        0.0252
     36 C          14.1874   85.2720   24.9578 C.3     1  UNL1        0.0923
     37 C          15.3908   87.8515   22.2785 C.3     1  UNL1        0.2054
     38 O          14.1027   88.4155   22.0137 O.3     1  UNL1       -0.4755
     39 C          13.4177   88.4094   20.7865 C.ar    1  UNL1        0.1388
     40 C          12.0215   88.4897   20.8215 C.ar    1  UNL1        0.0369
     41 C          11.2798   88.4939   19.6396 C.ar    1  UNL1        0.0033
     42 C          11.9264   88.4152   18.4052 C.ar    1  UNL1        0.0066
     43 C          13.3279   88.3273   18.3418 C.ar    1  UNL1        0.0785
     44 C          14.0684   88.3197   19.5383 C.ar    1  UNL1        0.0433
     45 C          14.0180   88.2454   17.0349 C.2     1  UNL1        0.3381
     46 O          14.0688   87.1531   16.4069 O.2     1  UNL1       -0.2451
     47 O          14.6173   89.3755   16.4844 O.3     1  UNL1       -0.4771
     48 H          15.0913   89.3301   15.5902 H       1  UNL1        0.2954
@<TRIPOS>BOND
     1     5     6    1
     2     6     7   ar
     3     7     1    1
     4     1     2    2
     5     1     3   am
     6     3    25    1
     7    25    26   ar
     8    26    27   ar
     9    27    28   ar
    10    28    31    1
    11    31    32    1
    12    32    33    1
    13    33    34    1
    14    34    37    1
    15    37    38    1
    16    38    39    1
    17    39    40   ar
    18    40    41   ar
    19    41    42   ar
    20    42    43   ar
    21    43    45    1
    22    45    46    2
    23    45    47    1
    24    43    44   ar
    25    34    35    1
    26    35    36    1
    27    28    29   ar
    28    29    30   ar
    29     7     8   ar
    30     8     9   ar
    31     9    10   ar
    32    10    21    1
    33    21    22    2
    34    21    23    1
    35    10    11   ar
    36    11    12   ar
    37    12    15    1
    38    15    16   ar
    39    16    17   ar
    40    17    18   ar
    41    18    19   ar
    42    19    20   ar
    43    12    13   ar
    44    13    14   ar
    45    14     6   ar
    46    30    25   ar
    47    14     9   ar
    48    36    31    1
    49    20    15   ar
    50    44    39   ar
    51     3     4    1
    52    47    48    1
    53    23    24    1
@<TRIPOS>MOLECULE
*****
 48 53 0 0 0
SMALL
GASTEIGER

@<TRIPOS>ATOM
      1 C          10.1229   79.6837   25.5375 C.2     1  UNL1        0.2839
      2 O           9.7539   79.9465   24.3613 O.2     1  UNL1       -0.2665
      3 N          11.3387   80.2460   26.0575 N.am    1  UNL1       -0.2766
      4 H          11.7733   79.7881   26.8907 H       1  UNL1        0.1553
      5 C           8.2207   77.3147   24.5190 C.3     1  UNL1        0.0345
      6 C           8.5008   77.7258   25.9334 C.ar    1  UNL1        0.0202
      7 C           9.3269   78.7640   26.3719 C.ar    1  UNL1        0.1946
      8 O           9.3038   78.8317   27.6900 O.2     1  UNL1       -0.4490
      9 C           8.5081   77.8890   28.1369 C.ar    1  UNL1        0.1514
     10 C           8.1793   77.6022   29.4676 C.ar    1  UNL1        0.1099
     11 C           7.2519   76.5599   29.6930 C.ar    1  UNL1        0.0095
     12 C           6.6986   75.8202   28.6147 C.ar    1  UNL1        0.0004
     13 C           7.0723   76.1386   27.2901 C.ar    1  UNL1        0.0028
     14 C           7.9772   77.1798   27.0902 C.ar    1  UNL1        0.0339
     15 C           5.7335   74.7222   28.8756 C.ar    1  UNL1        0.0000
     16 C           5.7160   73.5758   28.0585 C.ar    1  UNL1        0.0000
     17 C           4.8064   72.5433   28.3064 C.ar    1  UNL1        0.0000
     18 C           3.9069   72.6419   29.3702 C.ar    1  UNL1        0.0000
     19 C           3.9150   73.7735   30.1886 C.ar    1  UNL1        0.0000
     20 C           4.8218   74.8095   29.9449 C.ar    1  UNL1        0.0000
     21 C           8.7421   78.3681   30.6037 C.2     1  UNL1        0.3410
     22 O           8.0701   78.4977   31.6613 O.2     1  UNL1       -0.2450
     23 O          10.0140   78.9355   30.5474 O.3     1  UNL1       -0.4770
     24 H          10.6515   78.7622   29.7814 H       1  UNL1        0.2954
     25 C          12.0561   81.3264   25.4363 C.ar    1  UNL1        0.0702
     26 C          11.3855   82.5159   25.1271 C.ar    1  UNL1        0.0191
     27 C          12.0635   83.5641   24.5033 C.ar    1  UNL1        0.0356
     28 C          13.4199   83.4143   24.1792 C.ar    1  UNL1        0.1318
     29 N          14.0437   82.2348   24.4536 N.ar    1  UNL1       -0.2279
     30 C          13.4046   81.2017   25.0638 C.ar    1  UNL1        0.1149
     31 N          14.1433   84.4720   23.5231 N.pl3   1  UNL1       -0.2932
     32 C          15.0889   84.1454   22.4482 C.3     1  UNL1        0.0923
     33 C          15.0698   85.2377   21.3731 C.3     1  UNL1        0.0252
     34 C          15.2747   86.6309   21.9996 C.3     1  UNL1        0.0472
     35 C          14.2083   86.8902   23.0800 C.3     1  UNL1        0.0252
     36 C          14.2512   85.7969   24.1502 C.3     1  UNL1        0.0923
     37 C          15.3017   87.7325   20.9206 C.3     1  UNL1        0.2054
     38 O          14.2115   87.6153   20.0012 O.3     1  UNL1       -0.4755
     39 C          14.2922   87.5990   18.5981 C.ar    1  UNL1        0.1388
     40 C          14.0749   88.8037   17.9210 C.ar    1  UNL1        0.0369
     41 C          14.1454   88.8593   16.5284 C.ar    1  UNL1        0.0033
     42 C          14.4321   87.7076   15.7940 C.ar    1  UNL1        0.0066
     43 C          14.6485   86.4829   16.4491 C.ar    1  UNL1        0.0785
     44 C          14.5717   86.4344   17.8532 C.ar    1  UNL1        0.0433
     45 C          14.9546   85.2593   15.6743 C.2     1  UNL1        0.3381
     46 O          14.3343   85.0083   14.6055 O.2     1  UNL1       -0.2451
     47 O          15.9329   84.3729   16.1177 O.3     1  UNL1       -0.4771
     48 H          16.1504   83.5333   15.5943 H       1  UNL1        0.2954
@<TRIPOS>BOND
     1     5     6    1
     2     6     7   ar
     3     7     1    1
     4     1     2    2
     5     1     3   am
     6     3    25    1
     7    25    26   ar
     8    26    27   ar
     9    27    28   ar
    10    28    31    1
    11    31    32    1
    12    32    33    1
    13    33    34    1
    14    34    37    1
    15    37    38    1
    16    38    39    1
    17    39    40   ar
    18    40    41   ar
    19    41    42   ar
    20    42    43   ar
    21    43    45    1
    22    45    46    2
    23    45    47    1
    24    43    44   ar
    25    34    35    1
    26    35    36    1
    27    28    29   ar
    28    29    30   ar
    29     7     8   ar
    30     8     9   ar
    31     9    10   ar
    32    10    21    1
    33    21    22    2
    34    21    23    1
    35    10    11   ar
    36    11    12   ar
    37    12    15    1
    38    15    16   ar
    39    16    17   ar
    40    17    18   ar
    41    18    19   ar
    42    19    20   ar
    43    12    13   ar
    44    13    14   ar
    45    14     6   ar
    46    30    25   ar
    47    14     9   ar
    48    36    31    1
    49    20    15   ar
    50    44    39   ar
    51     3     4    1
    52    47    48    1
    53    23    24    1
@<TRIPOS>MOLECULE
*****
 48 53 0 0 0
SMALL
GASTEIGER

@<TRIPOS>ATOM
      1 C          11.4352   78.5649   26.0673 C.2     1  UNL1        0.2839
      2 O          12.3003   78.1906   25.2305 O.2     1  UNL1       -0.2665
      3 N          11.3394   79.9494   26.4395 N.am    1  UNL1       -0.2766
      4 H          10.8454   80.1843   27.3304 H       1  UNL1        0.1553
      5 C           8.2717   78.2758   25.6473 C.3     1  UNL1        0.0345
      6 C           9.1645   77.4399   26.5145 C.ar    1  UNL1        0.0202
      7 C          10.5432   77.5742   26.6987 C.ar    1  UNL1        0.1946
      8 O          10.9736   76.6661   27.5546 O.2     1  UNL1       -0.4490
      9 C           9.9485   75.9422   27.9372 C.ar    1  UNL1        0.1514
     10 C           9.9412   74.8764   28.8456 C.ar    1  UNL1        0.1099
     11 C           8.6914   74.2832   29.1345 C.ar    1  UNL1        0.0095
     12 C           7.4994   74.7347   28.5090 C.ar    1  UNL1        0.0004
     13 C           7.5605   75.8048   27.5887 C.ar    1  UNL1        0.0028
     14 C           8.8014   76.3845   27.3297 C.ar    1  UNL1        0.0339
     15 C           6.1985   74.0898   28.8198 C.ar    1  UNL1        0.0000
     16 C           5.4114   74.5475   29.8937 C.ar    1  UNL1        0.0000
     17 C           4.1868   73.9385   30.1842 C.ar    1  UNL1        0.0000
     18 C           3.7340   72.8693   29.4079 C.ar    1  UNL1        0.0000
     19 C           4.5052   72.4067   28.3394 C.ar    1  UNL1        0.0000
     20 C           5.7310   73.0113   28.0449 C.ar    1  UNL1        0.0000
     21 C          11.1741   74.3972   29.5121 C.2     1  UNL1        0.3410
     22 O          11.0886   73.7506   30.5898 O.2     1  UNL1       -0.2450
     23 O          12.4371   74.6211   28.9666 O.3     1  UNL1       -0.4770
     24 H          12.5672   75.0199   28.0462 H       1  UNL1        0.2954
     25 C          11.9785   81.0211   25.7250 C.ar    1  UNL1        0.0702
     26 C          13.0892   81.6627   26.2864 C.ar    1  UNL1        0.0191
     27 C          13.7052   82.7195   25.6148 C.ar    1  UNL1        0.0356
     28 C          13.1980   83.1414   24.3770 C.ar    1  UNL1        0.1318
     29 N          12.0933   82.5293   23.8666 N.ar    1  UNL1       -0.2279
     30 C          11.4790   81.4959   24.5011 C.ar    1  UNL1        0.1149
     31 N          13.8030   84.2375   23.6663 N.pl3   1  UNL1       -0.2932
     32 C          15.0252   84.0087   22.8851 C.3     1  UNL1        0.0923
     33 C          15.0200   84.8780   21.6228 C.3     1  UNL1        0.0252
     34 C          14.7554   86.3556   21.9726 C.3     1  UNL1        0.0472
     35 C          13.4327   86.4895   22.7499 C.3     1  UNL1        0.0252
     36 C          13.4618   85.6246   24.0123 C.3     1  UNL1        0.0923
     37 C          14.7927   87.2453   20.7134 C.3     1  UNL1        0.2054
     38 O          13.5191   87.8319   20.4284 O.3     1  UNL1       -0.4755
     39 C          13.0837   88.3381   19.1916 C.ar    1  UNL1        0.1388
     40 C          11.8187   88.9333   19.1423 C.ar    1  UNL1        0.0369
     41 C          11.3273   89.4611   17.9477 C.ar    1  UNL1        0.0033
     42 C          12.0957   89.3977   16.7842 C.ar    1  UNL1        0.0066
     43 C          13.3675   88.7995   16.8046 C.ar    1  UNL1        0.0785
     44 C          13.8541   88.2661   18.0124 C.ar    1  UNL1        0.0433
     45 C          14.1866   88.7317   15.5735 C.2     1  UNL1        0.3381
     46 O          15.3741   89.1555   15.5723 O.2     1  UNL1       -0.2451
     47 O          13.6535   88.1970   14.4032 O.3     1  UNL1       -0.4771
     48 H          14.2061   88.1453   13.5558 H       1  UNL1        0.2954
@<TRIPOS>BOND
     1     5     6    1
     2     6     7   ar
     3     7     1    1
     4     1     2    2
     5     1     3   am
     6     3    25    1
     7    25    26   ar
     8    26    27   ar
     9    27    28   ar
    10    28    31    1
    11    31    32    1
    12    32    33    1
    13    33    34    1
    14    34    37    1
    15    37    38    1
    16    38    39    1
    17    39    40   ar
    18    40    41   ar
    19    41    42   ar
    20    42    43   ar
    21    43    45    1
    22    45    46    2
    23    45    47    1
    24    43    44   ar
    25    34    35    1
    26    35    36    1
    27    28    29   ar
    28    29    30   ar
    29     7     8   ar
    30     8     9   ar
    31     9    10   ar
    32    10    21    1
    33    21    22    2
    34    21    23    1
    35    10    11   ar
    36    11    12   ar
    37    12    15    1
    38    15    16   ar
    39    16    17   ar
    40    17    18   ar
    41    18    19   ar
    42    19    20   ar
    43    12    13   ar
    44    13    14   ar
    45    14     6   ar
    46    30    25   ar
    47    14     9   ar
    48    36    31    1
    49    20    15   ar
    50    44    39   ar
    51     3     4    1
    52    47    48    1
    53    23    24    1
@<TRIPOS>MOLECULE
*****
 48 53 0 0 0
SMALL
GASTEIGER

@<TRIPOS>ATOM
      1 C          11.5177   78.6365   26.0906 C.2     1  UNL1        0.2839
      2 O          12.3927   78.2634   25.2636 O.2     1  UNL1       -0.2665
      3 N          11.4188   80.0201   26.4653 N.am    1  UNL1       -0.2766
      4 H          10.9140   80.2533   27.3506 H       1  UNL1        0.1553
      5 C           8.3507   78.3860   25.6717 C.3     1  UNL1        0.0345
      6 C           9.2363   77.5278   26.5243 C.ar    1  UNL1        0.0202
      7 C          10.6166   77.6453   26.7082 C.ar    1  UNL1        0.1946
      8 O          11.0392   76.7197   27.5491 O.2     1  UNL1       -0.4490
      9 C          10.0074   76.0004   27.9223 C.ar    1  UNL1        0.1514
     10 C           9.9907   74.9208   28.8141 C.ar    1  UNL1        0.1099
     11 C           8.7354   74.3357   29.0960 C.ar    1  UNL1        0.0095
     12 C           7.5471   74.8090   28.4796 C.ar    1  UNL1        0.0004
     13 C           7.6176   75.8925   27.5758 C.ar    1  UNL1        0.0028
     14 C           8.8638   76.4636   27.3237 C.ar    1  UNL1        0.0339
     15 C           6.2403   74.1724   28.7827 C.ar    1  UNL1        0.0000
     16 C           5.4469   74.6393   29.8479 C.ar    1  UNL1        0.0000
     17 C           4.2167   74.0382   30.1311 C.ar    1  UNL1        0.0000
     18 C           3.7645   72.9680   29.3561 C.ar    1  UNL1        0.0000
     19 C           4.5418   72.4963   28.2960 C.ar    1  UNL1        0.0000
     20 C           5.7732   73.0930   28.0088 C.ar    1  UNL1        0.0000
     21 C          11.2198   74.4188   29.4709 C.2     1  UNL1        0.3410
     22 O          11.1291   73.7513   30.5354 O.2     1  UNL1       -0.2450
     23 O          12.4846   74.6441   28.9302 O.3     1  UNL1       -0.4770
     24 H          12.6180   75.0603   28.0180 H       1  UNL1        0.2954
     25 C          12.0681   81.0930   25.7617 C.ar    1  UNL1        0.0702
     26 C          13.0491   81.8530   26.4099 C.ar    1  UNL1        0.0191
     27 C          13.6710   82.9119   25.7470 C.ar    1  UNL1        0.0356
     28 C          13.2996   83.2161   24.4291 C.ar    1  UNL1        0.1318
     29 N          12.3158   82.4889   23.8300 N.ar    1  UNL1       -0.2279
     30 C          11.6988   81.4512   24.4547 C.ar    1  UNL1        0.1149
     31 N          13.9129   84.3107   23.7233 N.pl3   1  UNL1       -0.2932
     32 C          14.9442   84.0361   22.7146 C.3     1  UNL1        0.0923
     33 C          14.8382   85.0379   21.5595 C.3     1  UNL1        0.0252
     34 C          14.8320   86.4866   22.0854 C.3     1  UNL1        0.0472
     35 C          13.6895   86.6792   23.0999 C.3     1  UNL1        0.0252
     36 C          13.8195   85.6792   24.2513 C.3     1  UNL1        0.0923
     37 C          14.7707   87.5034   20.9274 C.3     1  UNL1        0.2054
     38 O          16.0703   87.9588   20.5387 O.3     1  UNL1       -0.4755
     39 C          17.1149   88.3507   21.3934 C.ar    1  UNL1        0.1388
     40 C          18.2402   88.9458   20.8132 C.ar    1  UNL1        0.0369
     41 C          19.3111   89.3634   21.6043 C.ar    1  UNL1        0.0033
     42 C          19.2710   89.1884   22.9884 C.ar    1  UNL1        0.0066
     43 C          18.1550   88.5876   23.5963 C.ar    1  UNL1        0.0785
     44 C          17.0810   88.1656   22.7912 C.ar    1  UNL1        0.0433
     45 C          18.1074   88.4015   25.0640 C.2     1  UNL1        0.3381
     46 O          17.0100   88.1809   25.6446 O.2     1  UNL1       -0.2451
     47 O          19.2759   88.4668   25.8191 O.3     1  UNL1       -0.4771
     48 H          19.2540   88.3400   26.8239 H       1  UNL1        0.2954
@<TRIPOS>BOND
     1     5     6    1
     2     6     7   ar
     3     7     1    1
     4     1     2    2
     5     1     3   am
     6     3    25    1
     7    25    26   ar
     8    26    27   ar
     9    27    28   ar
    10    28    31    1
    11    31    32    1
    12    32    33    1
    13    33    34    1
    14    34    37    1
    15    37    38    1
    16    38    39    1
    17    39    40   ar
    18    40    41   ar
    19    41    42   ar
    20    42    43   ar
    21    43    45    1
    22    45    46    2
    23    45    47    1
    24    43    44   ar
    25    34    35    1
    26    35    36    1
    27    28    29   ar
    28    29    30   ar
    29     7     8   ar
    30     8     9   ar
    31     9    10   ar
    32    10    21    1
    33    21    22    2
    34    21    23    1
    35    10    11   ar
    36    11    12   ar
    37    12    15    1
    38    15    16   ar
    39    16    17   ar
    40    17    18   ar
    41    18    19   ar
    42    19    20   ar
    43    12    13   ar
    44    13    14   ar
    45    14     6   ar
    46    30    25   ar
    47    14     9   ar
    48    36    31    1
    49    20    15   ar
    50    44    39   ar
    51     3     4    1
    52    47    48    1
    53    23    24    1
@<TRIPOS>MOLECULE
*****
 48 53 0 0 0
SMALL
GASTEIGER

@<TRIPOS>ATOM
      1 C          10.4524   80.4195   25.5364 C.2     1  UNL1        0.2839
      2 O          10.1111   80.6138   24.3387 O.2     1  UNL1       -0.2665
      3 N          11.6351   81.0432   26.0624 N.am    1  UNL1       -0.2766
      4 H          12.0580   80.6396   26.9291 H       1  UNL1        0.1553
      5 C           8.6790   77.9260   24.5850 C.3     1  UNL1        0.0345
      6 C           8.8892   78.4249   25.9831 C.ar    1  UNL1        0.0202
      7 C           9.6592   79.5170   26.3919 C.ar    1  UNL1        0.1946
      8 O           9.5830   79.6562   27.7024 O.2     1  UNL1       -0.4490
      9 C           8.8058   78.7094   28.1726 C.ar    1  UNL1        0.1514
     10 C           8.4369   78.4839   29.5046 C.ar    1  UNL1        0.1099
     11 C           7.5403   77.4203   29.7547 C.ar    1  UNL1        0.0095
     12 C           7.0564   76.6015   28.7006 C.ar    1  UNL1        0.0004
     13 C           7.4689   76.8606   27.3745 C.ar    1  UNL1        0.0028
     14 C           8.3419   77.9235   27.1491 C.ar    1  UNL1        0.0339
     15 C           6.1230   75.4829   28.9878 C.ar    1  UNL1        0.0000
     16 C           5.2008   75.5747   30.0476 C.ar    1  UNL1        0.0000
     17 C           4.3229   74.5200   30.3158 C.ar    1  UNL1        0.0000
     18 C           4.3542   73.3651   29.5311 C.ar    1  UNL1        0.0000
     19 C           5.2637   73.2624   28.4762 C.ar    1  UNL1        0.0000
     20 C           6.1445   74.3135   28.2040 C.ar    1  UNL1        0.0000
     21 C           8.9270   79.3324   30.6153 C.2     1  UNL1        0.3410
     22 O           9.8215   78.8939   31.3863 O.2     1  UNL1       -0.2450
     23 O           8.4415   80.6225   30.8220 O.3     1  UNL1       -0.4770
     24 H           7.8193   81.0789   30.1680 H       1  UNL1        0.2954
     25 C          12.3388   82.1140   25.4097 C.ar    1  UNL1        0.0702
     26 C          13.1643   82.9596   26.1605 C.ar    1  UNL1        0.0191
     27 C          13.8350   84.0169   25.5443 C.ar    1  UNL1        0.0356
     28 C          13.6690   84.2329   24.1684 C.ar    1  UNL1        0.1318
     29 N          12.8311   83.4223   23.4636 N.ar    1  UNL1       -0.2279
     30 C          12.1704   82.3845   24.0417 C.ar    1  UNL1        0.1149
     31 N          14.3365   85.3232   23.5065 N.pl3   1  UNL1       -0.2932
     32 C          13.5907   86.5502   23.1988 C.3     1  UNL1        0.0923
     33 C          14.5000   87.7755   23.3439 C.3     1  UNL1        0.0252
     34 C          15.7973   87.5983   22.5308 C.3     1  UNL1        0.0472
     35 C          16.5222   86.3093   22.9604 C.3     1  UNL1        0.0252
     36 C          15.6034   85.0963   22.7967 C.3     1  UNL1        0.0923
     37 C          16.6990   88.8451   22.6347 C.3     1  UNL1        0.2054
     38 O          17.8365   88.6211   23.4734 O.3     1  UNL1       -0.4755
     39 C          17.9271   88.8728   24.8532 C.ar    1  UNL1        0.1388
     40 C          19.1769   89.2357   25.3665 C.ar    1  UNL1        0.0369
     41 C          19.3359   89.5049   26.7265 C.ar    1  UNL1        0.0033
     42 C          18.2452   89.4118   27.5923 C.ar    1  UNL1        0.0066
     43 C          16.9798   89.0431   27.1037 C.ar    1  UNL1        0.0785
     44 C          16.8286   88.7694   25.7317 C.ar    1  UNL1        0.0433
     45 C          15.8199   88.9448   28.0180 C.2     1  UNL1        0.3381
     46 O          15.8477   89.5051   29.1473 O.2     1  UNL1       -0.2451
     47 O          14.6845   88.2329   27.6390 O.3     1  UNL1       -0.4771
     48 H          13.8852   88.1605   28.2572 H       1  UNL1        0.2954
@<TRIPOS>BOND
     1     5     6    1
     2     6     7   ar
     3     7     1    1
     4     1     2    2
     5     1     3   am
     6     3    25    1
     7    25    26   ar
     8    26    27   ar
     9    27    28   ar
    10    28    31    1
    11    31    32    1
    12    32    33    1
    13    33    34    1
    14    34    37    1
    15    37    38    1
    16    38    39    1
    17    39    40   ar
    18    40    41   ar
    19    41    42   ar
    20    42    43   ar
    21    43    45    1
    22    45    46    2
    23    45    47    1
    24    43    44   ar
    25    34    35    1
    26    35    36    1
    27    28    29   ar
    28    29    30   ar
    29     7     8   ar
    30     8     9   ar
    31     9    10   ar
    32    10    21    1
    33    21    22    2
    34    21    23    1
    35    10    11   ar
    36    11    12   ar
    37    12    15    1
    38    15    16   ar
    39    16    17   ar
    40    17    18   ar
    41    18    19   ar
    42    19    20   ar
    43    12    13   ar
    44    13    14   ar
    45    14     6   ar
    46    30    25   ar
    47    14     9   ar
    48    36    31    1
    49    20    15   ar
    50    44    39   ar
    51     3     4    1
    52    47    48    1
    53    23    24    1
@<TRIPOS>MOLECULE
*****
 48 53 0 0 0
SMALL
GASTEIGER

@<TRIPOS>ATOM
      1 C           9.6354   79.1367   25.3303 C.2     1  UNL1        0.2839
      2 O           9.3517   79.5686   24.1806 O.2     1  UNL1       -0.2665
      3 N          10.8479   79.5511   25.9805 N.am    1  UNL1       -0.2766
      4 H          11.2064   78.9652   26.7685 H       1  UNL1        0.1553
      5 C           9.3817   76.0025   24.7138 C.3     1  UNL1        0.0345
      6 C           8.6311   76.8025   25.7358 C.ar    1  UNL1        0.0202
      7 C           8.7414   78.1709   25.9964 C.ar    1  UNL1        0.1946
      8 O           7.9019   78.5157   26.9550 O.2     1  UNL1       -0.4490
      9 C           7.2506   77.4430   27.3376 C.ar    1  UNL1        0.1514
     10 C           6.2564   77.3466   28.3190 C.ar    1  UNL1        0.1099
     11 C           5.6645   76.0783   28.5158 C.ar    1  UNL1        0.0095
     12 C           6.0809   74.9468   27.7659 C.ar    1  UNL1        0.0004
     13 C           7.0980   75.0922   26.7963 C.ar    1  UNL1        0.0028
     14 C           7.6574   76.3550   26.6087 C.ar    1  UNL1        0.0339
     15 C           5.4522   73.6215   27.9965 C.ar    1  UNL1        0.0000
     16 C           4.3619   73.4902   28.8776 C.ar    1  UNL1        0.0000
     17 C           3.7717   72.2411   29.0928 C.ar    1  UNL1        0.0000
     18 C           4.2604   71.1117   28.4323 C.ar    1  UNL1        0.0000
     19 C           5.3408   71.2290   27.5551 C.ar    1  UNL1        0.0000
     20 C           5.9355   72.4755   27.3367 C.ar    1  UNL1        0.0000
     21 C           5.8055   78.5179   29.1056 C.2     1  UNL1        0.3410
     22 O           4.8918   78.3792   29.9615 O.2     1  UNL1       -0.2450
     23 O           6.3825   79.7764   28.9433 O.3     1  UNL1       -0.4770
     24 H           7.2008   79.9276   28.3682 H       1  UNL1        0.2954
     25 C          11.6599   80.6540   25.5423 C.ar    1  UNL1        0.0702
     26 C          11.0886   81.9253   25.4101 C.ar    1  UNL1        0.0191
     27 C          11.8590   82.9999   24.9637 C.ar    1  UNL1        0.0356
     28 C          13.2082   82.7957   24.6391 C.ar    1  UNL1        0.1318
     29 N          13.7345   81.5432   24.7380 N.ar    1  UNL1       -0.2279
     30 C          13.0044   80.4825   25.1736 C.ar    1  UNL1        0.1149
     31 N          14.0253   83.8811   24.1631 N.pl3   1  UNL1       -0.2932
     32 C          15.0840   83.6149   23.1808 C.3     1  UNL1        0.0923
     33 C          15.2140   84.7916   22.2072 C.3     1  UNL1        0.0252
     34 C          15.3724   86.1220   22.9690 C.3     1  UNL1        0.0472
     35 C          14.1919   86.3243   23.9370 C.3     1  UNL1        0.0252
     36 C          14.0860   85.1464   24.9085 C.3     1  UNL1        0.0923
     37 C          15.5488   87.3068   21.9976 C.3     1  UNL1        0.2054
     38 O          14.5022   87.3677   21.0238 O.3     1  UNL1       -0.4755
     39 C          14.2602   86.4468   19.9900 C.ar    1  UNL1        0.1388
     40 C          12.9285   86.1938   19.6440 C.ar    1  UNL1        0.0369
     41 C          12.6177   85.2948   18.6231 C.ar    1  UNL1        0.0033
     42 C          13.6370   84.6342   17.9357 C.ar    1  UNL1        0.0066
     43 C          14.9833   84.8653   18.2675 C.ar    1  UNL1        0.0785
     44 C          15.2882   85.7703   19.3008 C.ar    1  UNL1        0.0433
     45 C          16.0675   84.1681   17.5399 C.2     1  UNL1        0.3381
     46 O          16.8680   83.4137   18.1564 O.2     1  UNL1       -0.2451
     47 O          16.2137   84.3376   16.1653 O.3     1  UNL1       -0.4771
     48 H          16.9519   83.8643   15.6581 H       1  UNL1        0.2954
@<TRIPOS>BOND
     1     5     6    1
     2     6     7   ar
     3     7     1    1
     4     1     2    2
     5     1     3   am
     6     3    25    1
     7    25    26   ar
     8    26    27   ar
     9    27    28   ar
    10    28    31    1
    11    31    32    1
    12    32    33    1
    13    33    34    1
    14    34    37    1
    15    37    38    1
    16    38    39    1
    17    39    40   ar
    18    40    41   ar
    19    41    42   ar
    20    42    43   ar
    21    43    45    1
    22    45    46    2
    23    45    47    1
    24    43    44   ar
    25    34    35    1
    26    35    36    1
    27    28    29   ar
    28    29    30   ar
    29     7     8   ar
    30     8     9   ar
    31     9    10   ar
    32    10    21    1
    33    21    22    2
    34    21    23    1
    35    10    11   ar
    36    11    12   ar
    37    12    15    1
    38    15    16   ar
    39    16    17   ar
    40    17    18   ar
    41    18    19   ar
    42    19    20   ar
    43    12    13   ar
    44    13    14   ar
    45    14     6   ar
    46    30    25   ar
    47    14     9   ar
    48    36    31    1
    49    20    15   ar
    50    44    39   ar
    51     3     4    1
    52    47    48    1
    53    23    24    1
