@<TRIPOS>MOLECULE
*****
 52 57 0 0 0
SMALL
GASTEIGER

@<TRIPOS>ATOM
      1 N         -10.5824  -11.0787   30.3025 N.am    1  UNL1       -0.2945
      2 C          -9.6300  -12.1239   30.5577 C.2     1  UNL1        0.2483
      3 O          -9.4352  -12.5025   31.7451 O.2     1  UNL1       -0.2701
      4 H         -10.4954  -10.5347   29.4158 H       1  UNL1        0.1501
      5 C          -8.9033  -12.7918   29.4435 C.ar    1  UNL1        0.0808
      6 C          -9.5399  -13.7733   28.6604 C.ar    1  UNL1        0.0080
      7 C          -8.8317  -14.4829   27.6890 C.ar    1  UNL1        0.0148
      8 C          -7.4683  -14.2299   27.4687 C.ar    1  UNL1        0.0502
      9 C          -6.8379  -13.2269   28.2245 C.ar    1  UNL1        0.0443
     10 C          -7.5417  -12.5176   29.2023 C.ar    1  UNL1        0.1457
     11 F          -6.8833  -11.5651   29.9108 F       1  UNL1       -0.2040
     12 N          -6.7255  -14.9978   26.4950 N.pl3   1  UNL1       -0.3040
     13 C          -5.2932  -15.2594   26.7082 C.3     1  UNL1        0.1122
     14 C          -4.7973  -16.4247   25.8466 C.3     1  UNL1        0.1122
     15 N          -5.1843  -16.2334   24.4413 N.pl3   1  UNL1       -0.3041
     16 C          -6.4766  -15.6098   24.1151 C.3     1  UNL1        0.1122
     17 C          -7.4095  -15.5769   25.3293 C.3     1  UNL1        0.1122
     18 C          -4.3470  -16.7432   23.3793 C.ar    1  UNL1        0.0479
     19 C          -3.9632  -15.9144   22.3102 C.ar    1  UNL1        0.0145
     20 C          -3.1561  -16.4077   21.2812 C.ar    1  UNL1        0.0051
     21 C          -2.7014  -17.7363   21.3061 C.ar    1  UNL1        0.0715
     22 C          -3.1087  -18.5748   22.3566 C.ar    1  UNL1        0.0051
     23 C          -3.9151  -18.0817   23.3862 C.ar    1  UNL1        0.0145
     24 C          -1.8726  -18.2818   20.1705 C.3     1  UNL1        0.4186
     25 F          -0.8458  -19.0508   20.6850 F       1  UNL1       -0.1659
     26 F          -1.3324  -17.2513   19.4206 F       1  UNL1       -0.1659
     27 F          -2.6471  -19.0657   19.3327 F       1  UNL1       -0.1659
     28 C         -11.6439  -10.7436   31.2646 C.3     1  UNL1        0.1535
     29 C         -12.0469  -11.9440   32.0924 C.2     1  UNL1        0.2443
     30 O         -12.3095  -11.8082   33.3189 O.2     1  UNL1       -0.2730
     31 N         -12.1496  -13.2349   31.4685 N.am    1  UNL1       -0.2825
     32 H         -11.7019  -13.3622   30.5327 H       1  UNL1        0.1549
     33 C         -12.7299  -14.3918   32.0953 C.ar    1  UNL1        0.0535
     34 C         -13.8882  -14.2990   32.8859 C.ar    1  UNL1        0.0353
     35 C         -14.4304  -15.4555   33.4522 C.ar    1  UNL1        0.1002
     36 N         -13.8490  -16.6632   33.2269 N.ar    1  UNL1       -0.2422
     37 C         -12.7398  -16.7854   32.4512 C.ar    1  UNL1        0.1002
     38 C         -12.1664  -15.6545   31.8651 C.ar    1  UNL1        0.0353
     39 C         -11.2299   -9.5619   32.1700 C.3     1  UNL1        0.0569
     40 C          -8.5283   -6.3081   30.2814 C.ar    1  UNL1        0.0348
     41 C          -9.2638   -5.1341   29.9580 C.ar    1  UNL1        0.0043
     42 C         -10.6554   -5.0782   30.1497 C.ar    1  UNL1        0.0170
     43 C         -11.2889   -6.1980   30.6791 C.ar    1  UNL1        0.0563
     44 N         -12.5942   -6.3309   30.9705 N.ar    1  UNL1       -0.3523
     45 C         -12.7345   -7.5654   31.5029 C.ar    1  UNL1        0.0681
     46 C         -11.5060   -8.2181   31.5492 C.ar    1  UNL1       -0.0017
     47 C         -10.5935   -7.3312   31.0054 C.ar    1  UNL1        0.0132
     48 C          -9.2180   -7.4325   30.7966 C.ar    1  UNL1        0.0040
     49 H         -13.3470   -5.6202   30.8338 H       1  UNL1        0.1660
     50 C          -6.3015   -7.6576   30.1058 C.3     1  UNL1        0.0773
     51 C          -7.0508   -6.3593   30.1210 C.2     1  UNL1        0.1735
     52 O          -6.3989   -5.2889   29.9812 O.2     1  UNL1       -0.2913
@<TRIPOS>BOND
     1    50    51    1
     2    51    52    2
     3    51    40    1
     4    40    41   ar
     5    41    42   ar
     6    42    43   ar
     7    43    44   ar
     8    44    45   ar
     9    45    46   ar
    10    46    39    1
    11    39    28    1
    12    28     1    1
    13     1     2   am
    14     2     3    2
    15     2     5    1
    16     5     6   ar
    17     6     7   ar
    18     7     8   ar
    19     8    12    1
    20    12    13    1
    21    13    14    1
    22    14    15    1
    23    15    18    1
    24    18    19   ar
    25    19    20   ar
    26    20    21   ar
    27    21    24    1
    28    24    25    1
    29    24    26    1
    30    24    27    1
    31    21    22   ar
    32    22    23   ar
    33    15    16    1
    34    16    17    1
    35     8     9   ar
    36     9    10   ar
    37    10    11    1
    38    28    29    1
    39    29    30    2
    40    29    31   am
    41    31    33    1
    42    33    34   ar
    43    34    35   ar
    44    35    36   ar
    45    36    37   ar
    46    37    38   ar
    47    46    47   ar
    48    47    48   ar
    49    48    40   ar
    50    47    43   ar
    51    10     5   ar
    52    38    33   ar
    53    17    12    1
    54    23    18   ar
    55    44    49    1
    56     1     4    1
    57    31    32    1
@<TRIPOS>MOLECULE
*****
 52 57 0 0 0
SMALL
GASTEIGER

@<TRIPOS>ATOM
      1 N         -10.0603  -10.9647   30.4971 N.am    1  UNL1       -0.2945
      2 C          -9.5648  -12.3103   30.5887 C.2     1  UNL1        0.2483
      3 O          -9.7753  -12.9734   31.6409 O.2     1  UNL1       -0.2701
      4 H          -9.6076  -10.3151   29.8168 H       1  UNL1        0.1501
      5 C          -8.8458  -12.9449   29.4502 C.ar    1  UNL1        0.0808
      6 C          -9.4696  -13.9414   28.6759 C.ar    1  UNL1        0.0080
      7 C          -8.7639  -14.6194   27.6803 C.ar    1  UNL1        0.0148
      8 C          -7.4161  -14.3188   27.4265 C.ar    1  UNL1        0.0502
      9 C          -6.8000  -13.3008   28.1739 C.ar    1  UNL1        0.0443
     10 C          -7.5010  -12.6230   29.1758 C.ar    1  UNL1        0.1457
     11 F          -6.8565  -11.6541   29.8747 F       1  UNL1       -0.2040
     12 N          -6.6739  -15.0538   26.4272 N.pl3   1  UNL1       -0.3040
     13 C          -5.3040  -15.5052   26.7187 C.3     1  UNL1        0.1122
     14 C          -4.8595  -16.6158   25.7620 C.3     1  UNL1        0.1122
     15 N          -5.0924  -16.2221   24.3648 N.pl3   1  UNL1       -0.3041
     16 C          -6.2742  -15.4173   24.0171 C.3     1  UNL1        0.1122
     17 C          -7.3060  -15.4122   25.1489 C.3     1  UNL1        0.1122
     18 C          -4.2207  -16.7037   23.3174 C.ar    1  UNL1        0.0479
     19 C          -3.9265  -15.8969   22.2039 C.ar    1  UNL1        0.0145
     20 C          -3.0862  -16.3633   21.1891 C.ar    1  UNL1        0.0051
     21 C          -2.5083  -17.6406   21.2724 C.ar    1  UNL1        0.0715
     22 C          -2.8252  -18.4601   22.3681 C.ar    1  UNL1        0.0051
     23 C          -3.6648  -17.9939   23.3835 C.ar    1  UNL1        0.0145
     24 C          -1.6424  -18.1621   20.1533 C.3     1  UNL1        0.4186
     25 F          -1.1778  -17.0977   19.4037 F       1  UNL1       -0.1659
     26 F          -2.3638  -19.0113   19.3321 F       1  UNL1       -0.1659
     27 F          -0.5615  -18.8642   20.6581 F       1  UNL1       -0.1659
     28 C         -11.1565  -10.4811   31.3510 C.3     1  UNL1        0.1535
     29 C         -12.0972  -11.6003   31.7397 C.2     1  UNL1        0.2443
     30 O         -13.0939  -11.8703   31.0149 O.2     1  UNL1       -0.2730
     31 N         -11.8364  -12.3674   32.9270 N.am    1  UNL1       -0.2825
     32 H         -11.1612  -11.9766   33.6226 H       1  UNL1        0.1549
     33 C         -12.5261  -13.5809   33.2732 C.ar    1  UNL1        0.0535
     34 C         -13.1757  -14.3624   32.3024 C.ar    1  UNL1        0.0353
     35 C         -13.8095  -15.5479   32.6834 C.ar    1  UNL1        0.1002
     36 N         -13.7844  -15.9487   33.9818 N.ar    1  UNL1       -0.2422
     37 C         -13.1477  -15.2230   34.9384 C.ar    1  UNL1        0.1002
     38 C         -12.5005  -14.0323   34.6000 C.ar    1  UNL1        0.0353
     39 C         -10.6156   -9.7542   32.6027 C.3     1  UNL1        0.0569
     40 C          -7.2324   -6.9628   31.1147 C.ar    1  UNL1        0.0348
     41 C          -5.9456   -7.5231   31.3470 C.ar    1  UNL1        0.0043
     42 C          -5.8026   -8.7476   32.0228 C.ar    1  UNL1        0.0170
     43 C          -6.9560   -9.4020   32.4432 C.ar    1  UNL1        0.0563
     44 N          -7.0343  -10.5900   33.0669 N.ar    1  UNL1       -0.3523
     45 C          -8.3526  -10.8389   33.2328 C.ar    1  UNL1        0.0681
     46 C          -9.1141   -9.7987   32.7080 C.ar    1  UNL1       -0.0017
     47 C          -8.2018   -8.8811   32.2176 C.ar    1  UNL1        0.0132
     48 C          -8.3779   -7.6527   31.5805 C.ar    1  UNL1        0.0040
     49 H          -6.2415  -11.2080   33.3497 H       1  UNL1        0.1660
     50 C          -8.7440   -5.1534   29.9960 C.3     1  UNL1        0.0773
     51 C          -7.3932   -5.6895   30.3636 C.2     1  UNL1        0.1735
     52 O          -6.3736   -5.0262   30.0306 O.2     1  UNL1       -0.2913
@<TRIPOS>BOND
     1    50    51    1
     2    51    52    2
     3    51    40    1
     4    40    41   ar
     5    41    42   ar
     6    42    43   ar
     7    43    44   ar
     8    44    45   ar
     9    45    46   ar
    10    46    39    1
    11    39    28    1
    12    28     1    1
    13     1     2   am
    14     2     3    2
    15     2     5    1
    16     5     6   ar
    17     6     7   ar
    18     7     8   ar
    19     8    12    1
    20    12    13    1
    21    13    14    1
    22    14    15    1
    23    15    18    1
    24    18    19   ar
    25    19    20   ar
    26    20    21   ar
    27    21    24    1
    28    24    25    1
    29    24    26    1
    30    24    27    1
    31    21    22   ar
    32    22    23   ar
    33    15    16    1
    34    16    17    1
    35     8     9   ar
    36     9    10   ar
    37    10    11    1
    38    28    29    1
    39    29    30    2
    40    29    31   am
    41    31    33    1
    42    33    34   ar
    43    34    35   ar
    44    35    36   ar
    45    36    37   ar
    46    37    38   ar
    47    46    47   ar
    48    47    48   ar
    49    48    40   ar
    50    47    43   ar
    51    10     5   ar
    52    38    33   ar
    53    17    12    1
    54    23    18   ar
    55    44    49    1
    56     1     4    1
    57    31    32    1
@<TRIPOS>MOLECULE
*****
 52 57 0 0 0
SMALL
GASTEIGER

@<TRIPOS>ATOM
      1 N          -8.4412  -11.8707   32.2627 N.am    1  UNL1       -0.2945
      2 C          -8.3039  -11.4158   30.9066 C.2     1  UNL1        0.2483
      3 O          -8.3921  -10.1820   30.6596 O.2     1  UNL1       -0.2701
      4 H          -8.7170  -12.8642   32.4266 H       1  UNL1        0.1501
      5 C          -8.0197  -12.3697   29.7999 C.ar    1  UNL1        0.0808
      6 C          -6.7508  -12.4021   29.1911 C.ar    1  UNL1        0.0080
      7 C          -6.5114  -13.2129   28.0803 C.ar    1  UNL1        0.0148
      8 C          -7.5311  -14.0180   27.5479 C.ar    1  UNL1        0.0502
      9 C          -8.7891  -14.0144   28.1739 C.ar    1  UNL1        0.0443
     10 C          -9.0352  -13.1998   29.2831 C.ar    1  UNL1        0.1457
     11 F         -10.2705  -13.2270   29.8451 F       1  UNL1       -0.2040
     12 N          -7.2946  -14.8215   26.3698 N.pl3   1  UNL1       -0.3040
     13 C          -8.4069  -15.5636   25.7553 C.3     1  UNL1        0.1122
     14 C          -8.0854  -15.9730   24.3147 C.3     1  UNL1        0.1122
     15 N          -6.7825  -16.6504   24.2454 N.pl3   1  UNL1       -0.3041
     16 C          -5.6829  -16.2161   25.1216 C.3     1  UNL1        0.1122
     17 C          -5.9647  -14.8450   25.7430 C.3     1  UNL1        0.1122
     18 C          -6.5458  -17.6745   23.2534 C.ar    1  UNL1        0.0479
     19 C          -5.2354  -18.0720   22.9341 C.ar    1  UNL1        0.0145
     20 C          -5.0057  -19.0601   21.9726 C.ar    1  UNL1        0.0051
     21 C          -6.0815  -19.6841   21.3201 C.ar    1  UNL1        0.0715
     22 C          -7.3898  -19.2670   21.6148 C.ar    1  UNL1        0.0051
     23 C          -7.6200  -18.2796   22.5768 C.ar    1  UNL1        0.0145
     24 C          -5.8311  -20.7138   20.2472 C.3     1  UNL1        0.4186
     25 F          -4.6676  -20.3945   19.5727 F       1  UNL1       -0.1659
     26 F          -6.8809  -20.7455   19.3455 F       1  UNL1       -0.1659
     27 F          -5.6995  -21.9753   20.8016 F       1  UNL1       -0.1659
     28 C          -8.2341  -10.9711   33.4083 C.3     1  UNL1        0.1535
     29 C          -7.5688   -9.6783   32.9901 C.2     1  UNL1        0.2443
     30 O          -8.2142   -8.5947   33.0220 O.2     1  UNL1       -0.2730
     31 N          -6.1919   -9.6890   32.5775 N.am    1  UNL1       -0.2825
     32 H          -5.7627  -10.6099   32.3321 H       1  UNL1        0.1549
     33 C          -5.4001   -8.5062   32.3729 C.ar    1  UNL1        0.0535
     34 C          -5.3804   -7.8367   31.1373 C.ar    1  UNL1        0.0353
     35 C          -4.6163   -6.6757   30.9949 C.ar    1  UNL1        0.1002
     36 N          -3.9093   -6.1899   32.0491 N.ar    1  UNL1       -0.2422
     37 C          -3.9250   -6.8056   33.2606 C.ar    1  UNL1        0.1002
     38 C          -4.6768   -7.9682   33.4463 C.ar    1  UNL1        0.0353
     39 C          -9.5593  -10.6948   34.1533 C.3     1  UNL1        0.0569
     40 C         -12.6468  -13.9563   33.0211 C.ar    1  UNL1        0.0348
     41 C         -13.5283  -13.5151   31.9954 C.ar    1  UNL1        0.0043
     42 C         -13.4532  -12.2040   31.4935 C.ar    1  UNL1        0.0170
     43 C         -12.4823  -11.3568   32.0178 C.ar    1  UNL1        0.0563
     44 N         -12.2252  -10.0899   31.6498 N.ar    1  UNL1       -0.3523
     45 C         -11.1730   -9.6896   32.3982 C.ar    1  UNL1        0.0681
     46 C         -10.7610  -10.7136   33.2461 C.ar    1  UNL1       -0.0017
     47 C         -11.6196  -11.7699   32.9973 C.ar    1  UNL1        0.0132
     48 C         -11.6887  -13.0526   33.5413 C.ar    1  UNL1        0.0040
     49 H         -12.7215   -9.5313   30.9205 H       1  UNL1        0.1660
     50 C         -12.8549  -16.5240   32.6036 C.3     1  UNL1        0.0773
     51 C         -12.6926  -15.3540   33.5267 C.2     1  UNL1        0.1735
     52 O         -12.5814  -15.5763   34.7630 O.2     1  UNL1       -0.2913
@<TRIPOS>BOND
     1    50    51    1
     2    51    52    2
     3    51    40    1
     4    40    41   ar
     5    41    42   ar
     6    42    43   ar
     7    43    44   ar
     8    44    45   ar
     9    45    46   ar
    10    46    39    1
    11    39    28    1
    12    28     1    1
    13     1     2   am
    14     2     3    2
    15     2     5    1
    16     5     6   ar
    17     6     7   ar
    18     7     8   ar
    19     8    12    1
    20    12    13    1
    21    13    14    1
    22    14    15    1
    23    15    18    1
    24    18    19   ar
    25    19    20   ar
    26    20    21   ar
    27    21    24    1
    28    24    25    1
    29    24    26    1
    30    24    27    1
    31    21    22   ar
    32    22    23   ar
    33    15    16    1
    34    16    17    1
    35     8     9   ar
    36     9    10   ar
    37    10    11    1
    38    28    29    1
    39    29    30    2
    40    29    31   am
    41    31    33    1
    42    33    34   ar
    43    34    35   ar
    44    35    36   ar
    45    36    37   ar
    46    37    38   ar
    47    46    47   ar
    48    47    48   ar
    49    48    40   ar
    50    47    43   ar
    51    10     5   ar
    52    38    33   ar
    53    17    12    1
    54    23    18   ar
    55    44    49    1
    56     1     4    1
    57    31    32    1
@<TRIPOS>MOLECULE
*****
 52 57 0 0 0
SMALL
GASTEIGER

@<TRIPOS>ATOM
      1 N          -8.2992  -11.8563   32.2009 N.am    1  UNL1       -0.2945
      2 C          -8.4246  -11.4652   30.8239 C.2     1  UNL1        0.2483
      3 O          -8.7632  -10.2818   30.5487 O.2     1  UNL1       -0.2701
      4 H          -8.3692  -12.8710   32.4362 H       1  UNL1        0.1501
      5 C          -8.1223  -12.4196   29.7222 C.ar    1  UNL1        0.0808
      6 C          -6.8442  -12.4510   29.1331 C.ar    1  UNL1        0.0080
      7 C          -6.5869  -13.2623   28.0266 C.ar    1  UNL1        0.0148
      8 C          -7.5975  -14.0687   27.4791 C.ar    1  UNL1        0.0502
      9 C          -8.8650  -14.0660   28.0856 C.ar    1  UNL1        0.0443
     10 C          -9.1289  -13.2510   29.1904 C.ar    1  UNL1        0.1457
     11 F         -10.3728  -13.2791   29.7333 F       1  UNL1       -0.2040
     12 N          -7.3421  -14.8727   26.3052 N.pl3   1  UNL1       -0.3040
     13 C          -8.4492  -15.5944   25.6581 C.3     1  UNL1        0.1122
     14 C          -8.0952  -16.0050   24.2255 C.3     1  UNL1        0.1122
     15 N          -6.8022  -16.7038   24.1897 N.pl3   1  UNL1       -0.3041
     16 C          -5.7200  -16.2904   25.0970 C.3     1  UNL1        0.1122
     17 C          -5.9961  -14.9165   25.7151 C.3     1  UNL1        0.1122
     18 C          -6.5554  -17.7288   23.2011 C.ar    1  UNL1        0.0479
     19 C          -7.6185  -18.2906   22.4721 C.ar    1  UNL1        0.0145
     20 C          -7.3808  -19.2842   21.5183 C.ar    1  UNL1        0.0051
     21 C          -6.0732  -19.7272   21.2605 C.ar    1  UNL1        0.0715
     22 C          -5.0133  -19.1899   22.0091 C.ar    1  UNL1        0.0051
     23 C          -5.2503  -18.1957   22.9624 C.ar    1  UNL1        0.0145
     24 C          -5.8233  -20.8343   20.2676 C.3     1  UNL1        0.4186
     25 F          -6.8535  -20.8606   19.3464 F       1  UNL1       -0.1659
     26 F          -5.7592  -22.0599   20.9077 F       1  UNL1       -0.1659
     27 F          -4.6271  -20.6321   19.6008 F       1  UNL1       -0.1659
     28 C          -8.1074  -10.8686   33.2742 C.3     1  UNL1        0.1535
     29 C          -7.5685   -9.5600   32.7394 C.2     1  UNL1        0.2443
     30 O          -6.3456   -9.4500   32.4495 O.2     1  UNL1       -0.2730
     31 N          -8.4617   -8.4510   32.5435 N.am    1  UNL1       -0.2825
     32 H          -9.3969   -8.4888   33.0088 H       1  UNL1        0.1549
     33 C          -8.1116   -7.2451   31.8427 C.ar    1  UNL1        0.0535
     34 C          -8.7979   -6.8392   30.6853 C.ar    1  UNL1        0.0353
     35 C          -8.4389   -5.6454   30.0544 C.ar    1  UNL1        0.1002
     36 N          -7.4427   -4.8754   30.5661 N.ar    1  UNL1       -0.2422
     37 C          -6.7749   -5.2333   31.6944 C.ar    1  UNL1        0.1002
     38 C          -7.1032   -6.4185   32.3569 C.ar    1  UNL1        0.0353
     39 C          -9.4117  -10.6442   34.0718 C.3     1  UNL1        0.0569
     40 C         -12.5473  -13.8854   33.0156 C.ar    1  UNL1        0.0348
     41 C         -13.4599  -13.4329   32.0227 C.ar    1  UNL1        0.0043
     42 C         -13.3960  -12.1182   31.5287 C.ar    1  UNL1        0.0170
     43 C         -12.4052  -11.2787   32.0276 C.ar    1  UNL1        0.0563
     44 N         -12.1552  -10.0099   31.6613 N.ar    1  UNL1       -0.3523
     45 C         -11.0777   -9.6194   32.3780 C.ar    1  UNL1        0.0681
     46 C         -10.6424  -10.6516   33.2042 C.ar    1  UNL1       -0.0017
     47 C         -11.5128  -11.7027   32.9753 C.ar    1  UNL1        0.0132
     48 C         -11.5692  -12.9894   33.5113 C.ar    1  UNL1        0.0040
     49 H         -12.6729   -9.4438   30.9528 H       1  UNL1        0.1660
     50 C         -12.7881  -16.4484   32.5866 C.3     1  UNL1        0.0773
     51 C         -12.5821  -15.2869   33.5117 C.2     1  UNL1        0.1735
     52 O         -12.4237  -15.5198   34.7409 O.2     1  UNL1       -0.2913
@<TRIPOS>BOND
     1    50    51    1
     2    51    52    2
     3    51    40    1
     4    40    41   ar
     5    41    42   ar
     6    42    43   ar
     7    43    44   ar
     8    44    45   ar
     9    45    46   ar
    10    46    39    1
    11    39    28    1
    12    28     1    1
    13     1     2   am
    14     2     3    2
    15     2     5    1
    16     5     6   ar
    17     6     7   ar
    18     7     8   ar
    19     8    12    1
    20    12    13    1
    21    13    14    1
    22    14    15    1
    23    15    18    1
    24    18    19   ar
    25    19    20   ar
    26    20    21   ar
    27    21    24    1
    28    24    25    1
    29    24    26    1
    30    24    27    1
    31    21    22   ar
    32    22    23   ar
    33    15    16    1
    34    16    17    1
    35     8     9   ar
    36     9    10   ar
    37    10    11    1
    38    28    29    1
    39    29    30    2
    40    29    31   am
    41    31    33    1
    42    33    34   ar
    43    34    35   ar
    44    35    36   ar
    45    36    37   ar
    46    37    38   ar
    47    46    47   ar
    48    47    48   ar
    49    48    40   ar
    50    47    43   ar
    51    10     5   ar
    52    38    33   ar
    53    17    12    1
    54    23    18   ar
    55    44    49    1
    56     1     4    1
    57    31    32    1
@<TRIPOS>MOLECULE
*****
 52 57 0 0 0
SMALL
GASTEIGER

@<TRIPOS>ATOM
      1 N          -7.6008  -11.4453   32.0460 N.am    1  UNL1       -0.2945
      2 C          -8.3949  -11.4683   30.8486 C.2     1  UNL1        0.2483
      3 O          -9.3372  -10.6399   30.7192 O.2     1  UNL1       -0.2701
      4 H          -7.0794  -12.3099   32.3115 H       1  UNL1        0.1501
      5 C          -8.0976  -12.4232   29.7462 C.ar    1  UNL1        0.0808
      6 C          -6.8273  -12.4434   29.1398 C.ar    1  UNL1        0.0080
      7 C          -6.5765  -13.2559   28.0326 C.ar    1  UNL1        0.0148
      8 C          -7.5860  -14.0747   27.5017 C.ar    1  UNL1        0.0502
      9 C          -8.8451  -14.0831   28.1254 C.ar    1  UNL1        0.0443
     10 C          -9.1025  -13.2670   29.2309 C.ar    1  UNL1        0.1457
     11 F         -10.3385  -13.3062   29.7908 F       1  UNL1       -0.2040
     12 N          -7.3381  -14.8801   26.3271 N.pl3   1  UNL1       -0.3040
     13 C          -8.4449  -15.6213   25.7018 C.3     1  UNL1        0.1122
     14 C          -8.1087  -16.0330   24.2652 C.3     1  UNL1        0.1122
     15 N          -6.8060  -16.7124   24.2107 N.pl3   1  UNL1       -0.3041
     16 C          -5.7152  -16.2787   25.0980 C.3     1  UNL1        0.1122
     17 C          -6.0016  -14.9063   25.7147 C.3     1  UNL1        0.1122
     18 C          -6.5603  -17.7382   23.2226 C.ar    1  UNL1        0.0479
     19 C          -5.2461  -18.0780   22.8557 C.ar    1  UNL1        0.0145
     20 C          -5.0078  -19.0676   21.8979 C.ar    1  UNL1        0.0051
     21 C          -6.0776  -19.7509   21.2969 C.ar    1  UNL1        0.0715
     22 C          -7.3917  -19.3918   21.6389 C.ar    1  UNL1        0.0051
     23 C          -7.6304  -18.4028   22.5973 C.ar    1  UNL1        0.0145
     24 C          -5.8212  -20.7826   20.2275 C.3     1  UNL1        0.4186
     25 F          -6.8774  -20.7862   19.3360 F       1  UNL1       -0.1659
     26 F          -5.6969  -22.0437   20.7846 F       1  UNL1       -0.1659
     27 F          -4.6532  -20.4962   19.5420 F       1  UNL1       -0.1659
     28 C          -7.5320  -10.2561   32.9094 C.3     1  UNL1        0.1535
     29 C          -7.4966   -8.9789   32.0993 C.2     1  UNL1        0.2443
     30 O          -6.5251   -8.7441   31.3294 O.2     1  UNL1       -0.2730
     31 N          -8.5858   -8.0460   32.1959 N.am    1  UNL1       -0.2825
     32 H          -9.2430   -8.1442   33.0027 H       1  UNL1        0.1549
     33 C          -8.7660   -6.9200   31.3197 C.ar    1  UNL1        0.0535
     34 C          -9.9785   -6.6976   30.6447 C.ar    1  UNL1        0.0353
     35 C         -10.1147   -5.5745   29.8249 C.ar    1  UNL1        0.1002
     36 N          -9.0860   -4.6960   29.6937 N.ar    1  UNL1       -0.2422
     37 C          -7.9091   -4.8755   30.3493 C.ar    1  UNL1        0.1002
     38 C          -7.7316   -5.9845   31.1799 C.ar    1  UNL1        0.0353
     39 C          -8.6939  -10.2324   33.9277 C.3     1  UNL1        0.0569
     40 C         -12.1705  -13.1953   33.1609 C.ar    1  UNL1        0.0348
     41 C         -12.1137  -14.3137   34.0381 C.ar    1  UNL1        0.0043
     42 C         -11.0528  -14.4643   34.9483 C.ar    1  UNL1        0.0170
     43 C         -10.0697  -13.4804   34.9766 C.ar    1  UNL1        0.0563
     44 N          -9.0031  -13.4211   35.7923 N.ar    1  UNL1       -0.3523
     45 C          -8.3626  -12.2705   35.4869 C.ar    1  UNL1        0.0681
     46 C          -9.0315  -11.5963   34.4694 C.ar    1  UNL1       -0.0017
     47 C         -10.1159  -12.3928   34.1464 C.ar    1  UNL1        0.0132
     48 C         -11.1357  -12.2297   33.2086 C.ar    1  UNL1        0.0040
     49 H          -8.7316  -14.1110   36.5276 H       1  UNL1        0.1660
     50 C         -13.2884  -11.9643   31.1495 C.3     1  UNL1        0.0773
     51 C         -13.3112  -13.0078   32.2255 C.2     1  UNL1        0.1735
     52 O         -14.3276  -13.7482   32.3217 O.2     1  UNL1       -0.2913
@<TRIPOS>BOND
     1    50    51    1
     2    51    52    2
     3    51    40    1
     4    40    41   ar
     5    41    42   ar
     6    42    43   ar
     7    43    44   ar
     8    44    45   ar
     9    45    46   ar
    10    46    39    1
    11    39    28    1
    12    28     1    1
    13     1     2   am
    14     2     3    2
    15     2     5    1
    16     5     6   ar
    17     6     7   ar
    18     7     8   ar
    19     8    12    1
    20    12    13    1
    21    13    14    1
    22    14    15    1
    23    15    18    1
    24    18    19   ar
    25    19    20   ar
    26    20    21   ar
    27    21    24    1
    28    24    25    1
    29    24    26    1
    30    24    27    1
    31    21    22   ar
    32    22    23   ar
    33    15    16    1
    34    16    17    1
    35     8     9   ar
    36     9    10   ar
    37    10    11    1
    38    28    29    1
    39    29    30    2
    40    29    31   am
    41    31    33    1
    42    33    34   ar
    43    34    35   ar
    44    35    36   ar
    45    36    37   ar
    46    37    38   ar
    47    46    47   ar
    48    47    48   ar
    49    48    40   ar
    50    47    43   ar
    51    10     5   ar
    52    38    33   ar
    53    17    12    1
    54    23    18   ar
    55    44    49    1
    56     1     4    1
    57    31    32    1
@<TRIPOS>MOLECULE
*****
 52 57 0 0 0
SMALL
GASTEIGER

@<TRIPOS>ATOM
      1 N          -7.9538  -11.2953   31.6628 N.am    1  UNL1       -0.2945
      2 C          -8.8017  -11.7044   30.5772 C.2     1  UNL1        0.2483
      3 O         -10.0048  -11.3258   30.5598 O.2     1  UNL1       -0.2701
      4 H          -7.1038  -11.8651   31.8696 H       1  UNL1        0.1501
      5 C          -8.2734  -12.5303   29.4571 C.ar    1  UNL1        0.0808
      6 C          -9.0684  -13.5331   28.8705 C.ar    1  UNL1        0.0080
      7 C          -8.5418  -14.3851   27.8981 C.ar    1  UNL1        0.0148
      8 C          -7.2074  -14.2575   27.4805 C.ar    1  UNL1        0.0502
      9 C          -6.4210  -13.2355   28.0387 C.ar    1  UNL1        0.0443
     10 C          -6.9423  -12.3835   29.0169 C.ar    1  UNL1        0.1457
     11 F          -6.1376  -11.4184   29.5304 F       1  UNL1       -0.2040
     12 N          -6.6506  -15.1701   26.5075 N.pl3   1  UNL1       -0.3040
     13 C          -5.2536  -15.6141   26.6370 C.3     1  UNL1        0.1122
     14 C          -4.9848  -16.8801   25.8176 C.3     1  UNL1        0.1122
     15 N          -5.4501  -16.7116   24.4333 N.pl3   1  UNL1       -0.3041
     16 C          -6.6693  -15.9347   24.1590 C.3     1  UNL1        0.1122
     17 C          -7.4932  -15.7103   25.4305 C.3     1  UNL1        0.1122
     18 C          -4.7724  -17.3866   23.3498 C.ar    1  UNL1        0.0479
     19 C          -5.4968  -17.8840   22.2521 C.ar    1  UNL1        0.0145
     20 C          -4.8424  -18.5397   21.2055 C.ar    1  UNL1        0.0051
     21 C          -3.4471  -18.6988   21.2252 C.ar    1  UNL1        0.0715
     22 C          -2.7249  -18.2303   22.3350 C.ar    1  UNL1        0.0051
     23 C          -3.3788  -17.5739   23.3814 C.ar    1  UNL1        0.0145
     24 C          -2.7480  -19.4503   20.1205 C.3     1  UNL1        0.4186
     25 F          -3.6914  -20.0811   19.3315 F       1  UNL1       -0.1659
     26 F          -1.8888  -20.4011   20.6436 F       1  UNL1       -0.1659
     27 F          -2.0073  -18.5852   19.3335 F       1  UNL1       -0.1659
     28 C          -8.2697  -10.1248   32.4963 C.3     1  UNL1        0.1535
     29 C          -8.3380   -8.8562   31.6749 C.2     1  UNL1        0.2443
     30 O          -7.6165   -8.7270   30.6480 O.2     1  UNL1       -0.2730
     31 N          -9.2449   -7.8092   32.0590 N.am    1  UNL1       -0.2825
     32 H          -9.6425   -7.8374   33.0252 H       1  UNL1        0.1549
     33 C          -9.5535   -6.6668   31.2418 C.ar    1  UNL1        0.0535
     34 C         -10.8778   -6.2426   31.0375 C.ar    1  UNL1        0.0353
     35 C         -11.1260   -5.1105   30.2572 C.ar    1  UNL1        0.1002
     36 N         -10.0920   -4.4167   29.7123 N.ar    1  UNL1       -0.2422
     37 C          -8.8009   -4.7926   29.9089 C.ar    1  UNL1        0.1002
     38 C          -8.5086   -5.9177   30.6835 C.ar    1  UNL1        0.0353
     39 C          -9.5762  -10.3380   33.2932 C.3     1  UNL1        0.0569
     40 C         -12.3828  -14.0210   33.3992 C.ar    1  UNL1        0.0348
     41 C         -12.0321  -14.9216   34.4431 C.ar    1  UNL1        0.0043
     42 C         -10.9070  -14.6860   35.2524 C.ar    1  UNL1        0.0170
     43 C         -10.1567  -13.5393   35.0129 C.ar    1  UNL1        0.0563
     44 N          -9.0768  -13.1183   35.6934 N.ar    1  UNL1       -0.3523
     45 C          -8.7177  -11.9415   35.1335 C.ar    1  UNL1        0.0681
     46 C          -9.5793  -11.6157   34.0900 C.ar    1  UNL1       -0.0017
     47 C         -10.4874  -12.6574   34.0193 C.ar    1  UNL1        0.0132
     48 C         -11.5770  -12.8781   33.1765 C.ar    1  UNL1        0.0040
     49 H          -8.6175  -13.5906   36.5035 H       1  UNL1        0.1660
     50 C         -14.4607  -15.4541   32.7363 C.3     1  UNL1        0.0773
     51 C         -13.5953  -14.2417   32.5671 C.2     1  UNL1        0.1735
     52 O         -13.9227  -13.3874   31.6991 O.2     1  UNL1       -0.2913
@<TRIPOS>BOND
     1    50    51    1
     2    51    52    2
     3    51    40    1
     4    40    41   ar
     5    41    42   ar
     6    42    43   ar
     7    43    44   ar
     8    44    45   ar
     9    45    46   ar
    10    46    39    1
    11    39    28    1
    12    28     1    1
    13     1     2   am
    14     2     3    2
    15     2     5    1
    16     5     6   ar
    17     6     7   ar
    18     7     8   ar
    19     8    12    1
    20    12    13    1
    21    13    14    1
    22    14    15    1
    23    15    18    1
    24    18    19   ar
    25    19    20   ar
    26    20    21   ar
    27    21    24    1
    28    24    25    1
    29    24    26    1
    30    24    27    1
    31    21    22   ar
    32    22    23   ar
    33    15    16    1
    34    16    17    1
    35     8     9   ar
    36     9    10   ar
    37    10    11    1
    38    28    29    1
    39    29    30    2
    40    29    31   am
    41    31    33    1
    42    33    34   ar
    43    34    35   ar
    44    35    36   ar
    45    36    37   ar
    46    37    38   ar
    47    46    47   ar
    48    47    48   ar
    49    48    40   ar
    50    47    43   ar
    51    10     5   ar
    52    38    33   ar
    53    17    12    1
    54    23    18   ar
    55    44    49    1
    56     1     4    1
    57    31    32    1
@<TRIPOS>MOLECULE
*****
 52 57 0 0 0
SMALL
GASTEIGER

@<TRIPOS>ATOM
      1 N         -10.2464  -11.3484   30.0278 N.am    1  UNL1       -0.2945
      2 C          -9.1999  -12.3003   30.2794 C.2     1  UNL1        0.2483
      3 O          -8.8960  -12.5801   31.4712 O.2     1  UNL1       -0.2701
      4 H         -10.2627  -10.8624   29.1040 H       1  UNL1        0.1501
      5 C          -8.5003  -12.9887   29.1603 C.ar    1  UNL1        0.0808
      6 C          -9.1407  -14.0137   28.4385 C.ar    1  UNL1        0.0080
      7 C          -8.4527  -14.7392   27.4643 C.ar    1  UNL1        0.0148
      8 C          -7.1066  -14.4591   27.1798 C.ar    1  UNL1        0.0502
      9 C          -6.4741  -13.4138   27.8739 C.ar    1  UNL1        0.0443
     10 C          -7.1574  -12.6883   28.8544 C.ar    1  UNL1        0.1457
     11 F          -6.4975  -11.6943   29.5018 F       1  UNL1       -0.2040
     12 N          -6.3826  -15.2420   26.2038 N.pl3   1  UNL1       -0.3040
     13 C          -5.1295  -15.9114   26.5872 C.3     1  UNL1        0.1122
     14 C          -4.7573  -17.0221   25.6002 C.3     1  UNL1        0.1122
     15 N          -4.7885  -16.5212   24.2183 N.pl3   1  UNL1       -0.3041
     16 C          -5.7994  -15.5286   23.8209 C.3     1  UNL1        0.1122
     17 C          -6.9282  -15.4293   24.8513 C.3     1  UNL1        0.1122
     18 C          -3.8952  -17.0710   23.2240 C.ar    1  UNL1        0.0479
     19 C          -3.8164  -18.4605   23.0231 C.ar    1  UNL1        0.0145
     20 C          -2.9505  -18.9930   22.0639 C.ar    1  UNL1        0.0051
     21 C          -2.1555  -18.1475   21.2730 C.ar    1  UNL1        0.0715
     22 C          -2.2095  -16.7614   21.4930 C.ar    1  UNL1        0.0051
     23 C          -3.0759  -16.2284   22.4515 C.ar    1  UNL1        0.0145
     24 C          -1.1851  -18.7253   20.2737 C.3     1  UNL1        0.4186
     25 F          -1.8777  -19.5001   19.3624 F       1  UNL1       -0.1659
     26 F          -0.2400  -19.5124   20.9088 F       1  UNL1       -0.1659
     27 F          -0.5222  -17.7163   19.5964 F       1  UNL1       -0.1659
     28 C         -11.2632  -11.0263   31.0412 C.3     1  UNL1        0.1535
     29 C         -11.5444   -9.5409   31.0980 C.2     1  UNL1        0.2443
     30 O         -12.3733   -9.0847   31.9326 O.2     1  UNL1       -0.2730
     31 N         -10.8458   -8.6513   30.2110 N.am    1  UNL1       -0.2825
     32 H         -10.3591   -9.0677   29.3851 H       1  UNL1        0.1549
     33 C         -10.8662   -7.2177   30.3227 C.ar    1  UNL1        0.0535
     34 C         -11.6995   -6.5618   31.2450 C.ar    1  UNL1        0.0353
     35 C         -11.6643   -5.1680   31.3355 C.ar    1  UNL1        0.1002
     36 N         -10.8187   -4.4537   30.5468 N.ar    1  UNL1       -0.2422
     37 C          -9.9881   -5.0624   29.6599 C.ar    1  UNL1        0.1002
     38 C          -9.9906   -6.4540   29.5386 C.ar    1  UNL1        0.0353
     39 C         -12.5642  -11.8263   30.8067 C.3     1  UNL1        0.0569
     40 C         -10.2837  -13.0956   34.6331 C.ar    1  UNL1        0.0348
     41 C         -10.8814  -14.2284   35.2522 C.ar    1  UNL1        0.0043
     42 C         -12.0659  -14.7887   34.7426 C.ar    1  UNL1        0.0170
     43 C         -12.6269  -14.2129   33.6072 C.ar    1  UNL1        0.0563
     44 N         -13.7262  -14.6191   32.9492 N.ar    1  UNL1       -0.3523
     45 C         -13.8562  -13.7888   31.8904 C.ar    1  UNL1        0.0681
     46 C         -12.8286  -12.8499   31.8790 C.ar    1  UNL1       -0.0017
     47 C         -12.0578  -13.1294   32.9937 C.ar    1  UNL1        0.0132
     48 C         -10.9020  -12.5283   33.4925 C.ar    1  UNL1        0.0040
     49 H         -14.3455  -15.4241   33.1914 H       1  UNL1        0.1660
     50 C          -8.2967  -11.4167   34.4243 C.3     1  UNL1        0.0773
     51 C          -9.0084  -12.5241   35.1414 C.2     1  UNL1        0.1735
     52 O          -8.5068  -12.9661   36.2107 O.2     1  UNL1       -0.2913
@<TRIPOS>BOND
     1    50    51    1
     2    51    52    2
     3    51    40    1
     4    40    41   ar
     5    41    42   ar
     6    42    43   ar
     7    43    44   ar
     8    44    45   ar
     9    45    46   ar
    10    46    39    1
    11    39    28    1
    12    28     1    1
    13     1     2   am
    14     2     3    2
    15     2     5    1
    16     5     6   ar
    17     6     7   ar
    18     7     8   ar
    19     8    12    1
    20    12    13    1
    21    13    14    1
    22    14    15    1
    23    15    18    1
    24    18    19   ar
    25    19    20   ar
    26    20    21   ar
    27    21    24    1
    28    24    25    1
    29    24    26    1
    30    24    27    1
    31    21    22   ar
    32    22    23   ar
    33    15    16    1
    34    16    17    1
    35     8     9   ar
    36     9    10   ar
    37    10    11    1
    38    28    29    1
    39    29    30    2
    40    29    31   am
    41    31    33    1
    42    33    34   ar
    43    34    35   ar
    44    35    36   ar
    45    36    37   ar
    46    37    38   ar
    47    46    47   ar
    48    47    48   ar
    49    48    40   ar
    50    47    43   ar
    51    10     5   ar
    52    38    33   ar
    53    17    12    1
    54    23    18   ar
    55    44    49    1
    56     1     4    1
    57    31    32    1
