@<TRIPOS>MOLECULE
*****
 47 52 0 0 0
SMALL
GASTEIGER

@<TRIPOS>ATOM
      1 O         -66.4409  -40.7361  -22.4351 O.2     1  UNL1       -0.2701
      2 C         -65.1935  -40.8951  -22.5121 C.2     1  UNL1        0.2483
      3 N         -64.3980  -40.8066  -21.3157 N.am    1  UNL1       -0.2945
      4 H         -64.9078  -40.6747  -20.4122 H       1  UNL1        0.1501
      5 C         -64.5827  -41.0981  -23.8379 C.ar    1  UNL1        0.0808
      6 C         -63.5504  -42.0337  -23.9820 C.ar    1  UNL1        0.0080
      7 C         -63.0470  -42.3393  -25.2485 C.ar    1  UNL1        0.0148
      8 C         -63.5665  -41.7099  -26.3926 C.ar    1  UNL1        0.0502
      9 C         -64.5539  -40.7207  -26.2349 C.ar    1  UNL1        0.0443
     10 C         -65.0520  -40.4086  -24.9667 C.ar    1  UNL1        0.1457
     11 F         -65.9898  -39.4351  -24.8419 F       1  UNL1       -0.2040
     12 N         -63.1084  -42.0863  -27.7084 N.pl3   1  UNL1       -0.3040
     13 C         -63.6877  -43.2609  -28.3799 C.3     1  UNL1        0.1122
     14 C         -62.6198  -44.0041  -29.1905 C.3     1  UNL1        0.1123
     15 N         -61.7932  -43.0769  -29.9704 N.pl3   1  UNL1       -0.3034
     16 C         -62.0030  -41.6308  -29.8864 C.3     1  UNL1        0.1123
     17 C         -62.1536  -41.2195  -28.4203 C.3     1  UNL1        0.1122
     18 C         -60.8384  -43.6046  -30.8985 C.ar    1  UNL1        0.0595
     19 C         -59.7118  -44.2842  -30.4175 C.ar    1  UNL1        0.0154
     20 C         -58.7694  -44.8010  -31.3086 C.ar    1  UNL1        0.0022
     21 C         -58.9480  -44.6443  -32.6847 C.ar    1  UNL1        0.0123
     22 C         -60.0724  -43.9726  -33.1783 C.ar    1  UNL1        0.0694
     23 CL        -60.2625  -43.8035  -34.9185 Cl      1  UNL1       -0.0813
     24 C         -61.0258  -43.4502  -32.2851 C.ar    1  UNL1        0.0815
     25 CL        -62.4602  -42.6245  -32.8928 Cl      1  UNL1       -0.0801
     26 C         -62.9285  -40.8523  -21.3052 C.3     1  UNL1        0.1535
     27 C         -62.3605  -39.4810  -21.0293 C.2     1  UNL1        0.2443
     28 O         -61.1119  -39.3087  -21.0570 O.2     1  UNL1       -0.2730
     29 N         -63.2508  -38.3749  -20.8020 N.am    1  UNL1       -0.2825
     30 H         -64.2494  -38.4973  -21.0863 H       1  UNL1        0.1549
     31 C         -62.8678  -37.0982  -20.2582 C.ar    1  UNL1        0.0535
     32 C         -61.9331  -36.2637  -20.8972 C.ar    1  UNL1        0.0353
     33 C         -61.5623  -35.0571  -20.2986 C.ar    1  UNL1        0.1002
     34 N         -62.0969  -34.6949  -19.1033 N.ar    1  UNL1       -0.2422
     35 C         -62.9921  -35.4856  -18.4560 C.ar    1  UNL1        0.1002
     36 C         -63.3846  -36.7031  -19.0159 C.ar    1  UNL1        0.0353
     37 C         -62.4240  -41.8711  -20.2658 C.3     1  UNL1        0.0569
     38 C         -62.0888  -43.1881  -20.9073 C.ar    1  UNL1       -0.0017
     39 C         -62.8593  -44.3466  -20.8718 C.ar    1  UNL1        0.0681
     40 N         -62.1977  -45.3717  -21.4556 N.ar    1  UNL1       -0.3523
     41 C         -61.0117  -44.8739  -21.8467 C.ar    1  UNL1        0.0563
     42 C         -59.9707  -45.5611  -22.4694 C.ar    1  UNL1        0.0170
     43 C         -58.7949  -44.8469  -22.7641 C.ar    1  UNL1        0.0015
     44 C         -58.6854  -43.4787  -22.4294 C.ar    1  UNL1        0.0001
     45 C         -59.7513  -42.8118  -21.7985 C.ar    1  UNL1        0.0012
     46 C         -60.9064  -43.5449  -21.5254 C.ar    1  UNL1        0.0131
     47 H         -62.5341  -46.3550  -21.5581 H       1  UNL1        0.1660
@<TRIPOS>BOND
     1     1     2    2
     2     2     3   am
     3     3    26    1
     4    26    37    1
     5    37    38    1
     6    38    39   ar
     7    39    40   ar
     8    40    41   ar
     9    41    42   ar
    10    42    43   ar
    11    43    44   ar
    12    44    45   ar
    13    45    46   ar
    14    26    27    1
    15    27    28    2
    16    27    29   am
    17    29    31    1
    18    31    32   ar
    19    32    33   ar
    20    33    34   ar
    21    34    35   ar
    22    35    36   ar
    23     2     5    1
    24     5     6   ar
    25     6     7   ar
    26     7     8   ar
    27     8    12    1
    28    12    13    1
    29    13    14    1
    30    14    15    1
    31    15    18    1
    32    18    19   ar
    33    19    20   ar
    34    20    21   ar
    35    21    22   ar
    36    22    23    1
    37    22    24   ar
    38    24    25    1
    39    15    16    1
    40    16    17    1
    41     8     9   ar
    42     9    10   ar
    43    10    11    1
    44    46    38   ar
    45    36    31   ar
    46    10     5   ar
    47    46    41   ar
    48    17    12    1
    49    24    18   ar
    50     3     4    1
    51    40    47    1
    52    29    30    1
@<TRIPOS>MOLECULE
*****
 47 52 0 0 0
SMALL
GASTEIGER

@<TRIPOS>ATOM
      1 O         -66.8744  -40.9752  -22.8196 O.2     1  UNL1       -0.2701
      2 C         -65.6383  -40.8970  -22.5896 C.2     1  UNL1        0.2483
      3 N         -65.1897  -40.3785  -21.3239 N.am    1  UNL1       -0.2945
      4 H         -65.9238  -40.1451  -20.6165 H       1  UNL1        0.1501
      5 C         -64.6913  -41.2756  -23.6536 C.ar    1  UNL1        0.0808
      6 C         -63.6783  -42.2013  -23.3733 C.ar    1  UNL1        0.0080
      7 C         -62.8530  -42.6751  -24.3957 C.ar    1  UNL1        0.0148
      8 C         -63.0258  -42.2267  -25.7163 C.ar    1  UNL1        0.0502
      9 C         -63.9984  -41.2451  -25.9791 C.ar    1  UNL1        0.0443
     10 C         -64.8189  -40.7645  -24.9545 C.ar    1  UNL1        0.1457
     11 F         -65.7350  -39.8023  -25.2326 F       1  UNL1       -0.2040
     12 N         -62.2320  -42.7785  -26.7878 N.pl3   1  UNL1       -0.3040
     13 C         -60.8798  -42.2571  -27.0442 C.3     1  UNL1        0.1122
     14 C         -60.5824  -42.2357  -28.5478 C.3     1  UNL1        0.1123
     15 N         -60.9961  -43.4844  -29.1966 N.pl3   1  UNL1       -0.3034
     16 C         -61.6490  -44.5479  -28.4318 C.3     1  UNL1        0.1123
     17 C         -62.7332  -43.9436  -27.5370 C.3     1  UNL1        0.1122
     18 C         -60.6640  -43.6990  -30.5732 C.ar    1  UNL1        0.0595
     19 C         -59.4423  -44.3003  -30.9024 C.ar    1  UNL1        0.0154
     20 C         -59.1016  -44.5128  -32.2395 C.ar    1  UNL1        0.0022
     21 C         -59.9797  -44.1285  -33.2550 C.ar    1  UNL1        0.0123
     22 C         -61.2060  -43.5321  -32.9393 C.ar    1  UNL1        0.0694
     23 CL        -62.2856  -43.0696  -34.2483 Cl      1  UNL1       -0.0813
     24 C         -61.5551  -43.3160  -31.5935 C.ar    1  UNL1        0.0815
     25 CL        -63.1075  -42.5898  -31.1794 Cl      1  UNL1       -0.0801
     26 C         -63.7785  -40.1281  -20.9962 C.3     1  UNL1        0.1535
     27 C         -63.5835  -38.6940  -20.5668 C.2     1  UNL1        0.2443
     28 O         -62.4672  -38.1372  -20.7493 O.2     1  UNL1       -0.2730
     29 N         -64.6900  -37.9602  -20.0146 N.am    1  UNL1       -0.2825
     30 H         -65.6475  -38.3525  -20.1639 H       1  UNL1        0.1549
     31 C         -64.5887  -36.7066  -19.3140 C.ar    1  UNL1        0.0535
     32 C         -65.6531  -35.7883  -19.2676 C.ar    1  UNL1        0.0353
     33 C         -65.4817  -34.5655  -18.6141 C.ar    1  UNL1        0.1002
     34 N         -64.2921  -34.2627  -18.0321 N.ar    1  UNL1       -0.2422
     35 C         -63.2419  -35.1237  -18.0712 C.ar    1  UNL1        0.1002
     36 C         -63.3683  -36.3537  -18.7202 C.ar    1  UNL1        0.0353
     37 C         -63.2952  -41.0964  -19.9000 C.3     1  UNL1        0.0569
     38 C         -62.0522  -41.8272  -20.3236 C.ar    1  UNL1       -0.0017
     39 C         -60.7806  -41.2813  -20.4725 C.ar    1  UNL1        0.0681
     40 N         -59.9281  -42.2016  -20.9783 N.ar    1  UNL1       -0.3523
     41 C         -60.6534  -43.3184  -21.1626 C.ar    1  UNL1        0.0563
     42 C         -60.2174  -44.5307  -21.6955 C.ar    1  UNL1        0.0170
     43 C         -61.1600  -45.5666  -21.8302 C.ar    1  UNL1        0.0015
     44 C         -62.5027  -45.3683  -21.4380 C.ar    1  UNL1        0.0001
     45 C         -62.9147  -44.1330  -20.9060 C.ar    1  UNL1        0.0012
     46 C         -61.9559  -43.1277  -20.7785 C.ar    1  UNL1        0.0131
     47 H         -58.9176  -42.0613  -21.2015 H       1  UNL1        0.1660
@<TRIPOS>BOND
     1     1     2    2
     2     2     3   am
     3     3    26    1
     4    26    37    1
     5    37    38    1
     6    38    39   ar
     7    39    40   ar
     8    40    41   ar
     9    41    42   ar
    10    42    43   ar
    11    43    44   ar
    12    44    45   ar
    13    45    46   ar
    14    26    27    1
    15    27    28    2
    16    27    29   am
    17    29    31    1
    18    31    32   ar
    19    32    33   ar
    20    33    34   ar
    21    34    35   ar
    22    35    36   ar
    23     2     5    1
    24     5     6   ar
    25     6     7   ar
    26     7     8   ar
    27     8    12    1
    28    12    13    1
    29    13    14    1
    30    14    15    1
    31    15    18    1
    32    18    19   ar
    33    19    20   ar
    34    20    21   ar
    35    21    22   ar
    36    22    23    1
    37    22    24   ar
    38    24    25    1
    39    15    16    1
    40    16    17    1
    41     8     9   ar
    42     9    10   ar
    43    10    11    1
    44    46    38   ar
    45    36    31   ar
    46    10     5   ar
    47    46    41   ar
    48    17    12    1
    49    24    18   ar
    50     3     4    1
    51    40    47    1
    52    29    30    1
@<TRIPOS>MOLECULE
*****
 47 52 0 0 0
SMALL
GASTEIGER

@<TRIPOS>ATOM
      1 O         -66.5445  -41.1128  -22.6959 O.2     1  UNL1       -0.2701
      2 C         -65.3015  -40.9470  -22.5761 C.2     1  UNL1        0.2483
      3 N         -64.7887  -40.2991  -21.3974 N.am    1  UNL1       -0.2945
      4 H         -65.4785  -40.0477  -20.6525 H       1  UNL1        0.1501
      5 C         -64.4186  -41.3612  -23.6811 C.ar    1  UNL1        0.0808
      6 C         -63.4231  -42.3171  -23.4429 C.ar    1  UNL1        0.0080
      7 C         -62.6627  -42.8224  -24.4999 C.ar    1  UNL1        0.0148
      8 C         -62.8840  -42.3759  -25.8139 C.ar    1  UNL1        0.0502
      9 C         -63.8366  -41.3652  -26.0370 C.ar    1  UNL1        0.0443
     10 C         -64.5918  -40.8533  -24.9780 C.ar    1  UNL1        0.1457
     11 F         -65.4895  -39.8640  -25.2190 F       1  UNL1       -0.2040
     12 N         -62.1599  -42.9584  -26.9181 N.pl3   1  UNL1       -0.3040
     13 C         -60.7304  -42.6586  -27.0991 C.3     1  UNL1        0.1122
     14 C         -60.3822  -42.5539  -28.5882 C.3     1  UNL1        0.1123
     15 N         -60.9808  -43.6484  -29.3597 N.pl3   1  UNL1       -0.3034
     16 C         -61.8320  -44.6469  -28.7110 C.3     1  UNL1        0.1123
     17 C         -62.8270  -43.9466  -27.7831 C.3     1  UNL1        0.1122
     18 C         -60.6432  -43.7926  -30.7441 C.ar    1  UNL1        0.0595
     19 C         -59.4077  -44.3499  -31.0983 C.ar    1  UNL1        0.0154
     20 C         -59.0615  -44.4936  -32.4431 C.ar    1  UNL1        0.0022
     21 C         -59.9478  -44.0841  -33.4416 C.ar    1  UNL1        0.0123
     22 C         -61.1877  -43.5313  -33.1010 C.ar    1  UNL1        0.0694
     23 CL        -62.2772  -43.0351  -34.3894 Cl      1  UNL1       -0.0813
     24 C         -61.5425  -43.3845  -31.7474 C.ar    1  UNL1        0.0815
     25 CL        -63.1115  -42.7140  -31.3032 Cl      1  UNL1       -0.0801
     26 C         -63.3745  -39.9439  -21.2087 C.3     1  UNL1        0.1535
     27 C         -63.2479  -38.5139  -20.7420 C.2     1  UNL1        0.2443
     28 O         -62.1682  -37.8914  -20.9326 O.2     1  UNL1       -0.2730
     29 N         -64.3794  -37.8579  -20.1443 N.am    1  UNL1       -0.2825
     30 H         -65.3174  -38.2981  -20.2839 H       1  UNL1        0.1549
     31 C         -64.3302  -36.6208  -19.4097 C.ar    1  UNL1        0.0535
     32 C         -63.1781  -36.2090  -18.7159 C.ar    1  UNL1        0.0353
     33 C         -63.2032  -35.0222  -17.9793 C.ar    1  UNL1        0.1002
     34 N         -64.3357  -34.2734  -17.9286 N.ar    1  UNL1       -0.2422
     35 C         -65.4676  -34.6516  -18.5777 C.ar    1  UNL1        0.1002
     36 C         -65.4878  -35.8344  -19.3196 C.ar    1  UNL1        0.0353
     37 C         -62.7013  -40.9052  -20.2109 C.3     1  UNL1        0.0569
     38 C         -63.6901  -41.4411  -19.2142 C.ar    1  UNL1       -0.0017
     39 C         -64.0729  -40.8369  -18.0203 C.ar    1  UNL1        0.0681
     40 N         -64.8919  -41.6537  -17.3192 N.ar    1  UNL1       -0.3523
     41 C         -65.0182  -42.7728  -18.0534 C.ar    1  UNL1        0.0563
     42 C         -65.7408  -43.9198  -17.7281 C.ar    1  UNL1        0.0170
     43 C         -65.7096  -44.9955  -18.6344 C.ar    1  UNL1        0.0015
     44 C         -64.9619  -44.9035  -19.8295 C.ar    1  UNL1        0.0001
     45 C         -64.2398  -43.7343  -20.1301 C.ar    1  UNL1        0.0012
     46 C         -64.2955  -42.6824  -19.2154 C.ar    1  UNL1        0.0131
     47 H         -65.3182  -41.4598  -16.3858 H       1  UNL1        0.1660
@<TRIPOS>BOND
     1     1     2    2
     2     2     3   am
     3     3    26    1
     4    26    37    1
     5    37    38    1
     6    38    39   ar
     7    39    40   ar
     8    40    41   ar
     9    41    42   ar
    10    42    43   ar
    11    43    44   ar
    12    44    45   ar
    13    45    46   ar
    14    26    27    1
    15    27    28    2
    16    27    29   am
    17    29    31    1
    18    31    32   ar
    19    32    33   ar
    20    33    34   ar
    21    34    35   ar
    22    35    36   ar
    23     2     5    1
    24     5     6   ar
    25     6     7   ar
    26     7     8   ar
    27     8    12    1
    28    12    13    1
    29    13    14    1
    30    14    15    1
    31    15    18    1
    32    18    19   ar
    33    19    20   ar
    34    20    21   ar
    35    21    22   ar
    36    22    23    1
    37    22    24   ar
    38    24    25    1
    39    15    16    1
    40    16    17    1
    41     8     9   ar
    42     9    10   ar
    43    10    11    1
    44    46    38   ar
    45    36    31   ar
    46    10     5   ar
    47    46    41   ar
    48    17    12    1
    49    24    18   ar
    50     3     4    1
    51    40    47    1
    52    29    30    1
@<TRIPOS>MOLECULE
*****
 47 52 0 0 0
SMALL
GASTEIGER

@<TRIPOS>ATOM
      1 O         -60.3457  -47.0908  -20.9091 O.2     1  UNL1       -0.2701
      2 C         -60.8320  -46.1137  -21.5381 C.2     1  UNL1        0.2483
      3 N         -61.3130  -44.9732  -20.8032 N.am    1  UNL1       -0.2945
      4 H         -61.1765  -44.9813  -19.7664 H       1  UNL1        0.1501
      5 C         -60.9554  -46.2015  -23.0041 C.ar    1  UNL1        0.0808
      6 C         -62.2183  -46.0710  -23.5956 C.ar    1  UNL1        0.0080
      7 C         -62.3442  -46.0180  -24.9856 C.ar    1  UNL1        0.0148
      8 C         -61.2072  -46.0987  -25.8076 C.ar    1  UNL1        0.0502
      9 C         -59.9497  -46.3001  -25.2104 C.ar    1  UNL1        0.0443
     10 C         -59.8244  -46.3616  -23.8196 C.ar    1  UNL1        0.1457
     11 F         -58.6016  -46.5774  -23.2712 F       1  UNL1       -0.2040
     12 N         -61.3256  -45.9578  -27.2390 N.pl3   1  UNL1       -0.3040
     13 C         -60.1407  -46.1306  -28.0948 C.3     1  UNL1        0.1122
     14 C         -60.1794  -45.1568  -29.2780 C.3     1  UNL1        0.1123
     15 N         -61.5061  -45.1198  -29.9023 N.pl3   1  UNL1       -0.3034
     16 C         -62.6118  -45.9137  -29.3643 C.3     1  UNL1        0.1123
     17 C         -62.6557  -45.7651  -27.8420 C.3     1  UNL1        0.1122
     18 C         -61.6881  -44.3736  -31.1112 C.ar    1  UNL1        0.0595
     19 C         -62.9091  -43.7284  -31.3462 C.ar    1  UNL1        0.0154
     20 C         -63.1044  -43.0005  -32.5214 C.ar    1  UNL1        0.0022
     21 C         -62.0808  -42.9107  -33.4671 C.ar    1  UNL1        0.0123
     22 C         -60.8540  -43.5457  -33.2416 C.ar    1  UNL1        0.0694
     23 CL        -59.5892  -43.4016  -34.4551 Cl      1  UNL1       -0.0813
     24 C         -60.6513  -44.2803  -32.0588 C.ar    1  UNL1        0.0815
     25 CL        -59.1025  -45.0638  -31.7489 Cl      1  UNL1       -0.0801
     26 C         -62.0091  -43.8355  -21.4219 C.3     1  UNL1        0.1535
     27 C         -62.9570  -43.1978  -20.4351 C.2     1  UNL1        0.2443
     28 O         -64.0512  -43.7650  -20.1692 O.2     1  UNL1       -0.2730
     29 N         -62.5740  -41.9861  -19.7621 N.am    1  UNL1       -0.2825
     30 H         -61.5614  -41.7269  -19.7811 H       1  UNL1        0.1549
     31 C         -63.4647  -41.1275  -19.0259 C.ar    1  UNL1        0.0535
     32 C         -64.3074  -41.6178  -18.0122 C.ar    1  UNL1        0.0353
     33 C         -65.1868  -40.7468  -17.3642 C.ar    1  UNL1        0.1002
     34 N         -65.2320  -39.4352  -17.7156 N.ar    1  UNL1       -0.2422
     35 C         -64.4396  -38.9351  -18.6992 C.ar    1  UNL1        0.1002
     36 C         -63.5514  -39.7726  -19.3771 C.ar    1  UNL1        0.0353
     37 C         -60.9970  -42.8024  -21.9521 C.3     1  UNL1        0.0569
     38 C         -61.0184  -42.7348  -23.4532 C.ar    1  UNL1       -0.0017
     39 C         -59.9475  -42.9772  -24.3086 C.ar    1  UNL1        0.0681
     40 N         -60.2961  -42.7121  -25.5883 N.ar    1  UNL1       -0.3523
     41 C         -61.5724  -42.2917  -25.5464 C.ar    1  UNL1        0.0563
     42 C         -62.3591  -41.8711  -26.6178 C.ar    1  UNL1        0.0170
     43 C         -63.6688  -41.4377  -26.3414 C.ar    1  UNL1        0.0015
     44 C         -64.1557  -41.4302  -25.0152 C.ar    1  UNL1        0.0001
     45 C         -63.3379  -41.8575  -23.9534 C.ar    1  UNL1        0.0012
     46 C         -62.0466  -42.2878  -24.2597 C.ar    1  UNL1        0.0131
     47 H         -59.6865  -42.7955  -26.4321 H       1  UNL1        0.1660
@<TRIPOS>BOND
     1     1     2    2
     2     2     3   am
     3     3    26    1
     4    26    37    1
     5    37    38    1
     6    38    39   ar
     7    39    40   ar
     8    40    41   ar
     9    41    42   ar
    10    42    43   ar
    11    43    44   ar
    12    44    45   ar
    13    45    46   ar
    14    26    27    1
    15    27    28    2
    16    27    29   am
    17    29    31    1
    18    31    32   ar
    19    32    33   ar
    20    33    34   ar
    21    34    35   ar
    22    35    36   ar
    23     2     5    1
    24     5     6   ar
    25     6     7   ar
    26     7     8   ar
    27     8    12    1
    28    12    13    1
    29    13    14    1
    30    14    15    1
    31    15    18    1
    32    18    19   ar
    33    19    20   ar
    34    20    21   ar
    35    21    22   ar
    36    22    23    1
    37    22    24   ar
    38    24    25    1
    39    15    16    1
    40    16    17    1
    41     8     9   ar
    42     9    10   ar
    43    10    11    1
    44    46    38   ar
    45    36    31   ar
    46    10     5   ar
    47    46    41   ar
    48    17    12    1
    49    24    18   ar
    50     3     4    1
    51    40    47    1
    52    29    30    1
@<TRIPOS>MOLECULE
*****
 47 52 0 0 0
SMALL
GASTEIGER

@<TRIPOS>ATOM
      1 O         -59.9216  -47.4416  -24.3797 O.2     1  UNL1       -0.2701
      2 C         -60.4124  -46.3949  -24.8803 C.2     1  UNL1        0.2483
      3 N         -60.4818  -46.2657  -26.3122 N.am    1  UNL1       -0.2945
      4 H         -60.1742  -47.0875  -26.8811 H       1  UNL1        0.1501
      5 C         -60.8361  -45.3070  -23.9807 C.ar    1  UNL1        0.0808
      6 C         -59.9619  -44.2409  -23.7338 C.ar    1  UNL1        0.0080
      7 C         -60.3882  -43.1360  -22.9933 C.ar    1  UNL1        0.0148
      8 C         -61.6969  -43.0817  -22.4840 C.ar    1  UNL1        0.0502
      9 C         -62.5472  -44.1857  -22.6755 C.ar    1  UNL1        0.0443
     10 C         -62.1179  -45.2952  -23.4093 C.ar    1  UNL1        0.1457
     11 F         -62.9523  -46.3552  -23.5609 F       1  UNL1       -0.2040
     12 N         -62.1665  -41.9049  -21.7930 N.pl3   1  UNL1       -0.3040
     13 C         -63.4938  -41.3505  -22.1047 C.3     1  UNL1        0.1122
     14 C         -63.4708  -39.8191  -22.0409 C.3     1  UNL1        0.1123
     15 N         -62.7642  -39.3402  -20.8482 N.pl3   1  UNL1       -0.3034
     16 C         -62.1462  -40.2810  -19.9126 C.3     1  UNL1        0.1123
     17 C         -61.3656  -41.3408  -20.6930 C.3     1  UNL1        0.1122
     18 C         -62.7691  -37.9394  -20.5494 C.ar    1  UNL1        0.0595
     19 C         -61.8634  -37.0920  -21.2006 C.ar    1  UNL1        0.0154
     20 C         -61.8523  -35.7250  -20.9178 C.ar    1  UNL1        0.0022
     21 C         -62.7470  -35.1960  -19.9852 C.ar    1  UNL1        0.0123
     22 C         -63.6611  -36.0309  -19.3320 C.ar    1  UNL1        0.0694
     23 CL        -64.7752  -35.3231  -18.1698 Cl      1  UNL1       -0.0813
     24 C         -63.6774  -37.4094  -19.6134 C.ar    1  UNL1        0.0815
     25 CL        -64.8403  -38.4693  -18.8180 Cl      1  UNL1       -0.0801
     26 C         -60.9188  -45.0436  -27.0032 C.3     1  UNL1        0.1535
     27 C         -60.3057  -44.9692  -28.3807 C.2     1  UNL1        0.2443
     28 O         -59.0540  -45.0493  -28.5088 O.2     1  UNL1       -0.2730
     29 N         -61.1585  -44.8729  -29.5345 N.am    1  UNL1       -0.2825
     30 H         -62.1675  -45.1145  -29.4062 H       1  UNL1        0.1549
     31 C         -60.7255  -44.5159  -30.8603 C.ar    1  UNL1        0.0535
     32 C         -59.4337  -44.8140  -31.3301 C.ar    1  UNL1        0.0353
     33 C         -59.0517  -44.4001  -32.6086 C.ar    1  UNL1        0.1002
     34 N         -59.9207  -43.7085  -33.3910 N.ar    1  UNL1       -0.2422
     35 C         -61.1704  -43.3949  -32.9601 C.ar    1  UNL1        0.1002
     36 C         -61.5902  -43.7833  -31.6862 C.ar    1  UNL1        0.0353
     37 C         -62.4559  -44.9865  -27.0862 C.3     1  UNL1        0.0569
     38 C         -62.9397  -43.5850  -27.3313 C.ar    1  UNL1       -0.0017
     39 C         -62.7775  -42.4927  -26.4841 C.ar    1  UNL1        0.0681
     40 N         -63.4389  -41.4170  -26.9688 N.ar    1  UNL1       -0.3523
     41 C         -64.0279  -41.8245  -28.1066 C.ar    1  UNL1        0.0563
     42 C         -64.8483  -41.0752  -28.9487 C.ar    1  UNL1        0.0170
     43 C         -65.3899  -41.7149  -30.0787 C.ar    1  UNL1        0.0015
     44 C         -65.1062  -43.0748  -30.3363 C.ar    1  UNL1        0.0001
     45 C         -64.2772  -43.8069  -29.4671 C.ar    1  UNL1        0.0012
     46 C         -63.7499  -43.1434  -28.3590 C.ar    1  UNL1        0.0131
     47 H         -63.4973  -40.4703  -26.5319 H       1  UNL1        0.1660
@<TRIPOS>BOND
     1     1     2    2
     2     2     3   am
     3     3    26    1
     4    26    37    1
     5    37    38    1
     6    38    39   ar
     7    39    40   ar
     8    40    41   ar
     9    41    42   ar
    10    42    43   ar
    11    43    44   ar
    12    44    45   ar
    13    45    46   ar
    14    26    27    1
    15    27    28    2
    16    27    29   am
    17    29    31    1
    18    31    32   ar
    19    32    33   ar
    20    33    34   ar
    21    34    35   ar
    22    35    36   ar
    23     2     5    1
    24     5     6   ar
    25     6     7   ar
    26     7     8   ar
    27     8    12    1
    28    12    13    1
    29    13    14    1
    30    14    15    1
    31    15    18    1
    32    18    19   ar
    33    19    20   ar
    34    20    21   ar
    35    21    22   ar
    36    22    23    1
    37    22    24   ar
    38    24    25    1
    39    15    16    1
    40    16    17    1
    41     8     9   ar
    42     9    10   ar
    43    10    11    1
    44    46    38   ar
    45    36    31   ar
    46    10     5   ar
    47    46    41   ar
    48    17    12    1
    49    24    18   ar
    50     3     4    1
    51    40    47    1
    52    29    30    1
@<TRIPOS>MOLECULE
*****
 47 52 0 0 0
SMALL
GASTEIGER

@<TRIPOS>ATOM
      1 O         -59.5025  -47.4399  -24.0005 O.2     1  UNL1       -0.2701
      2 C         -60.1677  -46.5154  -24.5389 C.2     1  UNL1        0.2483
      3 N         -60.3874  -46.5433  -25.9612 N.am    1  UNL1       -0.2945
      4 H         -60.0324  -47.3774  -26.4828 H       1  UNL1        0.1501
      5 C         -60.6400  -45.3982  -23.7016 C.ar    1  UNL1        0.0808
      6 C         -59.8119  -44.2847  -23.5122 C.ar    1  UNL1        0.0080
      7 C         -60.2869  -43.1594  -22.8347 C.ar    1  UNL1        0.0148
      8 C         -61.5989  -43.1316  -22.3318 C.ar    1  UNL1        0.0502
      9 C         -62.4018  -44.2789  -22.4638 C.ar    1  UNL1        0.0443
     10 C         -61.9237  -45.4084  -23.1345 C.ar    1  UNL1        0.1457
     11 F         -62.7127  -46.5089  -23.2289 F       1  UNL1       -0.2040
     12 N         -62.1200  -41.9391  -21.7079 N.pl3   1  UNL1       -0.3040
     13 C         -63.3857  -41.3556  -22.1807 C.3     1  UNL1        0.1122
     14 C         -63.3333  -39.8248  -22.1209 C.3     1  UNL1        0.1123
     15 N         -62.7650  -39.3543  -20.8533 N.pl3   1  UNL1       -0.3034
     16 C         -62.2881  -40.3029  -19.8457 C.3     1  UNL1        0.1123
     17 C         -61.4448  -41.3864  -20.5211 C.3     1  UNL1        0.1122
     18 C         -62.7719  -37.9518  -20.5632 C.ar    1  UNL1        0.0595
     19 C         -61.8612  -37.1085  -21.2129 C.ar    1  UNL1        0.0154
     20 C         -61.8520  -35.7397  -20.9383 C.ar    1  UNL1        0.0022
     21 C         -62.7535  -35.2049  -20.0156 C.ar    1  UNL1        0.0123
     22 C         -63.6724  -36.0357  -19.3640 C.ar    1  UNL1        0.0694
     23 CL        -64.7949  -35.3206  -18.2144 Cl      1  UNL1       -0.0813
     24 C         -63.6869  -37.4159  -19.6371 C.ar    1  UNL1        0.0815
     25 CL        -64.8558  -38.4708  -18.8438 Cl      1  UNL1       -0.0801
     26 C         -61.0397  -45.4588  -26.7096 C.3     1  UNL1        0.1535
     27 C         -60.6753  -45.5348  -28.1727 C.2     1  UNL1        0.2443
     28 O         -60.0601  -46.5456  -28.6080 O.2     1  UNL1       -0.2730
     29 N         -61.0897  -44.4855  -29.0643 N.am    1  UNL1       -0.2825
     30 H         -61.8411  -43.8406  -28.7291 H       1  UNL1        0.1549
     31 C         -60.5862  -44.2809  -30.3975 C.ar    1  UNL1        0.0535
     32 C         -61.3715  -43.7061  -31.4129 C.ar    1  UNL1        0.0353
     33 C         -60.8471  -43.5765  -32.7012 C.ar    1  UNL1        0.1002
     34 N         -59.5882  -44.0089  -32.9731 N.ar    1  UNL1       -0.2422
     35 C         -58.8105  -44.5796  -32.0166 C.ar    1  UNL1        0.1002
     36 C         -59.2984  -44.7346  -30.7174 C.ar    1  UNL1        0.0353
     37 C         -62.5680  -45.5136  -26.5245 C.3     1  UNL1        0.0569
     38 C         -63.2033  -46.4713  -27.4928 C.ar    1  UNL1       -0.0017
     39 C         -63.1281  -47.8605  -27.4535 C.ar    1  UNL1        0.0681
     40 N         -63.7200  -48.3964  -28.5453 N.ar    1  UNL1       -0.3523
     41 C         -64.1556  -47.3577  -29.2793 C.ar    1  UNL1        0.0563
     42 C         -64.8030  -47.4075  -30.5131 C.ar    1  UNL1        0.0170
     43 C         -65.1446  -46.1879  -31.1259 C.ar    1  UNL1        0.0015
     44 C         -64.8311  -44.9602  -30.5012 C.ar    1  UNL1        0.0001
     45 C         -64.1745  -44.9407  -29.2573 C.ar    1  UNL1        0.0012
     46 C         -63.8548  -46.1658  -28.6716 C.ar    1  UNL1        0.0131
     47 H         -63.7990  -49.4112  -28.7785 H       1  UNL1        0.1660
@<TRIPOS>BOND
     1     1     2    2
     2     2     3   am
     3     3    26    1
     4    26    37    1
     5    37    38    1
     6    38    39   ar
     7    39    40   ar
     8    40    41   ar
     9    41    42   ar
    10    42    43   ar
    11    43    44   ar
    12    44    45   ar
    13    45    46   ar
    14    26    27    1
    15    27    28    2
    16    27    29   am
    17    29    31    1
    18    31    32   ar
    19    32    33   ar
    20    33    34   ar
    21    34    35   ar
    22    35    36   ar
    23     2     5    1
    24     5     6   ar
    25     6     7   ar
    26     7     8   ar
    27     8    12    1
    28    12    13    1
    29    13    14    1
    30    14    15    1
    31    15    18    1
    32    18    19   ar
    33    19    20   ar
    34    20    21   ar
    35    21    22   ar
    36    22    23    1
    37    22    24   ar
    38    24    25    1
    39    15    16    1
    40    16    17    1
    41     8     9   ar
    42     9    10   ar
    43    10    11    1
    44    46    38   ar
    45    36    31   ar
    46    10     5   ar
    47    46    41   ar
    48    17    12    1
    49    24    18   ar
    50     3     4    1
    51    40    47    1
    52    29    30    1
@<TRIPOS>MOLECULE
*****
 47 52 0 0 0
SMALL
GASTEIGER

@<TRIPOS>ATOM
      1 O         -65.1232  -41.1223  -28.7005 O.2     1  UNL1       -0.2701
      2 C         -64.4723  -42.0941  -29.1684 C.2     1  UNL1        0.2483
      3 N         -64.3026  -42.2062  -30.5934 N.am    1  UNL1       -0.2945
      4 H         -64.6801  -41.4283  -31.1817 H       1  UNL1        0.1501
      5 C         -63.9649  -43.1224  -28.2424 C.ar    1  UNL1        0.0808
      6 C         -64.3930  -44.4480  -28.3875 C.ar    1  UNL1        0.0080
      7 C         -63.8275  -45.4611  -27.6100 C.ar    1  UNL1        0.0148
      8 C         -62.8258  -45.1631  -26.6704 C.ar    1  UNL1        0.0502
      9 C         -62.4502  -43.8211  -26.4799 C.ar    1  UNL1        0.0443
     10 C         -63.0220  -42.8059  -27.2522 C.ar    1  UNL1        0.1457
     11 F         -62.6558  -41.5174  -27.0327 F       1  UNL1       -0.2040
     12 N         -62.1797  -46.2184  -25.9277 N.pl3   1  UNL1       -0.3040
     13 C         -61.1980  -47.0903  -26.5927 C.3     1  UNL1        0.1122
     14 C         -61.3057  -48.5270  -26.0692 C.3     1  UNL1        0.1123
     15 N         -61.4087  -48.5610  -24.6065 N.pl3   1  UNL1       -0.3034
     16 C         -61.4448  -47.3228  -23.8268 C.3     1  UNL1        0.1123
     17 C         -62.4156  -46.3356  -24.4784 C.3     1  UNL1        0.1122
     18 C         -61.3723  -49.8248  -23.9335 C.ar    1  UNL1        0.0595
     19 C         -60.1825  -50.2500  -23.3284 C.ar    1  UNL1        0.0154
     20 C         -60.1290  -51.4810  -22.6720 C.ar    1  UNL1        0.0022
     21 C         -61.2636  -52.2930  -22.6139 C.ar    1  UNL1        0.0123
     22 C         -62.4602  -51.8771  -23.2092 C.ar    1  UNL1        0.0694
     23 CL        -63.8675  -52.9268  -23.1069 Cl      1  UNL1       -0.0813
     24 C         -62.5203  -50.6372  -23.8716 C.ar    1  UNL1        0.0815
     25 CL        -64.0275  -50.0882  -24.6036 Cl      1  UNL1       -0.0801
     26 C         -63.6711  -43.3579  -31.2540 C.3     1  UNL1        0.1535
     27 C         -64.6975  -44.4255  -31.5470 C.2     1  UNL1        0.2443
     28 O         -65.8928  -44.0931  -31.7716 O.2     1  UNL1       -0.2730
     29 N         -64.2887  -45.8016  -31.6303 N.am    1  UNL1       -0.2825
     30 H         -63.2667  -45.9920  -31.7407 H       1  UNL1        0.1549
     31 C         -65.1771  -46.9343  -31.6206 C.ar    1  UNL1        0.0535
     32 C         -65.1996  -47.8575  -30.5597 C.ar    1  UNL1        0.0353
     33 C         -66.0480  -48.9653  -30.6265 C.ar    1  UNL1        0.1002
     34 N         -66.8422  -49.1531  -31.7127 N.ar    1  UNL1       -0.2422
     35 C         -66.8333  -48.2858  -32.7583 C.ar    1  UNL1        0.1002
     36 C         -65.9951  -47.1692  -32.7352 C.ar    1  UNL1        0.0353
     37 C         -62.9566  -42.9187  -32.5461 C.3     1  UNL1        0.0569
     38 C         -61.5398  -43.4182  -32.5856 C.ar    1  UNL1       -0.0017
     39 C         -60.7386  -43.5479  -33.7163 C.ar    1  UNL1        0.0681
     40 N         -59.5635  -44.1368  -33.3972 N.ar    1  UNL1       -0.3523
     41 C         -59.6217  -44.3920  -32.0785 C.ar    1  UNL1        0.0563
     42 C         -58.6551  -45.0225  -31.2963 C.ar    1  UNL1        0.0170
     43 C         -58.9384  -45.2183  -29.9322 C.ar    1  UNL1        0.0015
     44 C         -60.1691  -44.7885  -29.3876 C.ar    1  UNL1        0.0001
     45 C         -61.1271  -44.1576  -30.2018 C.ar    1  UNL1        0.0012
     46 C         -60.8147  -43.9716  -31.5487 C.ar    1  UNL1        0.0131
     47 H         -58.7820  -44.3666  -34.0505 H       1  UNL1        0.1660
@<TRIPOS>BOND
     1     1     2    2
     2     2     3   am
     3     3    26    1
     4    26    37    1
     5    37    38    1
     6    38    39   ar
     7    39    40   ar
     8    40    41   ar
     9    41    42   ar
    10    42    43   ar
    11    43    44   ar
    12    44    45   ar
    13    45    46   ar
    14    26    27    1
    15    27    28    2
    16    27    29   am
    17    29    31    1
    18    31    32   ar
    19    32    33   ar
    20    33    34   ar
    21    34    35   ar
    22    35    36   ar
    23     2     5    1
    24     5     6   ar
    25     6     7   ar
    26     7     8   ar
    27     8    12    1
    28    12    13    1
    29    13    14    1
    30    14    15    1
    31    15    18    1
    32    18    19   ar
    33    19    20   ar
    34    20    21   ar
    35    21    22   ar
    36    22    23    1
    37    22    24   ar
    38    24    25    1
    39    15    16    1
    40    16    17    1
    41     8     9   ar
    42     9    10   ar
    43    10    11    1
    44    46    38   ar
    45    36    31   ar
    46    10     5   ar
    47    46    41   ar
    48    17    12    1
    49    24    18   ar
    50     3     4    1
    51    40    47    1
    52    29    30    1
@<TRIPOS>MOLECULE
*****
 47 52 0 0 0
SMALL
GASTEIGER

@<TRIPOS>ATOM
      1 O         -59.9125  -47.3877  -27.0561 O.2     1  UNL1       -0.2701
      2 C         -60.6627  -46.3812  -26.9498 C.2     1  UNL1        0.2483
      3 N         -61.1789  -45.7598  -28.1412 N.am    1  UNL1       -0.2945
      4 H         -60.9547  -46.2182  -29.0541 H       1  UNL1        0.1501
      5 C         -60.9305  -45.8319  -25.6087 C.ar    1  UNL1        0.0808
      6 C         -60.1597  -44.7609  -25.1392 C.ar    1  UNL1        0.0080
      7 C         -60.4793  -44.1381  -23.9306 C.ar    1  UNL1        0.0148
      8 C         -61.5746  -44.5800  -23.1691 C.ar    1  UNL1        0.0502
      9 C         -62.3018  -45.7001  -23.6109 C.ar    1  UNL1        0.0443
     10 C         -61.9770  -46.3288  -24.8164 C.ar    1  UNL1        0.1457
     11 F         -62.6826  -47.4203  -25.2081 F       1  UNL1       -0.2040
     12 N         -61.9587  -43.8843  -21.9644 N.pl3   1  UNL1       -0.3040
     13 C         -62.9769  -44.4643  -21.0739 C.3     1  UNL1        0.1122
     14 C         -63.8548  -43.3651  -20.4650 C.3     1  UNL1        0.1123
     15 N         -63.0498  -42.2379  -19.9829 N.pl3   1  UNL1       -0.3034
     16 C         -61.5955  -42.2283  -20.1481 C.3     1  UNL1        0.1123
     17 C         -61.2391  -42.6604  -21.5721 C.3     1  UNL1        0.1122
     18 C         -63.6900  -41.1843  -19.2539 C.ar    1  UNL1        0.0595
     19 C         -64.4360  -41.4922  -18.1088 C.ar    1  UNL1        0.0154
     20 C         -65.0697  -40.4775  -17.3893 C.ar    1  UNL1        0.0022
     21 C         -64.9600  -39.1496  -17.8074 C.ar    1  UNL1        0.0123
     22 C         -64.2127  -38.8280  -18.9464 C.ar    1  UNL1        0.0694
     23 CL        -64.0944  -37.1426  -19.4345 Cl      1  UNL1       -0.0813
     24 C         -63.5713  -39.8464  -19.6753 C.ar    1  UNL1        0.0815
     25 CL        -62.6049  -39.4538  -21.0968 Cl      1  UNL1       -0.0801
     26 C         -61.9586  -44.5133  -28.1417 C.3     1  UNL1        0.1535
     27 C         -61.7967  -43.7909  -29.4573 C.2     1  UNL1        0.2443
     28 O         -62.2302  -42.6130  -29.5767 O.2     1  UNL1       -0.2730
     29 N         -61.0938  -44.4289  -30.5374 N.am    1  UNL1       -0.2825
     30 H         -60.5001  -45.2562  -30.3004 H       1  UNL1        0.1549
     31 C         -61.1054  -43.9922  -31.9091 C.ar    1  UNL1        0.0535
     32 C         -62.2638  -43.4795  -32.5204 C.ar    1  UNL1        0.0353
     33 C         -62.2295  -43.1165  -33.8690 C.ar    1  UNL1        0.1002
     34 N         -61.0858  -43.2635  -34.5873 N.ar    1  UNL1       -0.2422
     35 C         -59.9549  -43.7675  -34.0280 C.ar    1  UNL1        0.1002
     36 C         -59.9478  -44.1493  -32.6848 C.ar    1  UNL1        0.0353
     37 C         -63.4447  -44.8020  -27.8570 C.3     1  UNL1        0.0569
     38 C         -63.9441  -45.9605  -28.6736 C.ar    1  UNL1       -0.0017
     39 C         -63.7638  -47.3115  -28.3914 C.ar    1  UNL1        0.0681
     40 N         -64.2453  -48.0728  -29.4003 N.ar    1  UNL1       -0.3523
     41 C         -64.7151  -47.2144  -30.3221 C.ar    1  UNL1        0.0563
     42 C         -65.2810  -47.5272  -31.5573 C.ar    1  UNL1        0.0170
     43 C         -65.6787  -46.4626  -32.3867 C.ar    1  UNL1        0.0015
     44 C         -65.4998  -45.1246  -31.9698 C.ar    1  UNL1        0.0001
     45 C         -64.9230  -44.8390  -30.7190 C.ar    1  UNL1        0.0012
     46 C         -64.5450  -45.9156  -29.9163 C.ar    1  UNL1        0.0131
     47 H         -64.2310  -49.1154  -29.4581 H       1  UNL1        0.1660
@<TRIPOS>BOND
     1     1     2    2
     2     2     3   am
     3     3    26    1
     4    26    37    1
     5    37    38    1
     6    38    39   ar
     7    39    40   ar
     8    40    41   ar
     9    41    42   ar
    10    42    43   ar
    11    43    44   ar
    12    44    45   ar
    13    45    46   ar
    14    26    27    1
    15    27    28    2
    16    27    29   am
    17    29    31    1
    18    31    32   ar
    19    32    33   ar
    20    33    34   ar
    21    34    35   ar
    22    35    36   ar
    23     2     5    1
    24     5     6   ar
    25     6     7   ar
    26     7     8   ar
    27     8    12    1
    28    12    13    1
    29    13    14    1
    30    14    15    1
    31    15    18    1
    32    18    19   ar
    33    19    20   ar
    34    20    21   ar
    35    21    22   ar
    36    22    23    1
    37    22    24   ar
    38    24    25    1
    39    15    16    1
    40    16    17    1
    41     8     9   ar
    42     9    10   ar
    43    10    11    1
    44    46    38   ar
    45    36    31   ar
    46    10     5   ar
    47    46    41   ar
    48    17    12    1
    49    24    18   ar
    50     3     4    1
    51    40    47    1
    52    29    30    1
@<TRIPOS>MOLECULE
*****
 47 52 0 0 0
SMALL
GASTEIGER

@<TRIPOS>ATOM
      1 O         -60.0252  -42.3289  -19.6157 O.2     1  UNL1       -0.2701
      2 C         -61.0895  -41.9136  -20.1464 C.2     1  UNL1        0.2483
      3 N         -62.0387  -41.1872  -19.3442 N.am    1  UNL1       -0.2945
      4 H         -61.7679  -40.9791  -18.3557 H       1  UNL1        0.1501
      5 C         -61.3583  -42.2466  -21.5567 C.ar    1  UNL1        0.0808
      6 C         -60.7368  -41.5030  -22.5680 C.ar    1  UNL1        0.0080
      7 C         -60.8704  -41.8818  -23.9057 C.ar    1  UNL1        0.0148
      8 C         -61.6324  -43.0100  -24.2540 C.ar    1  UNL1        0.0502
      9 C         -62.3111  -43.7111  -23.2409 C.ar    1  UNL1        0.0443
     10 C         -62.1843  -43.3272  -21.9028 C.ar    1  UNL1        0.1457
     11 F         -62.8669  -44.0092  -20.9481 F       1  UNL1       -0.2040
     12 N         -61.7014  -43.4533  -25.6257 N.pl3   1  UNL1       -0.3040
     13 C         -61.3835  -44.8501  -25.9634 C.3     1  UNL1        0.1122
     14 C         -60.6589  -44.9310  -27.3118 C.3     1  UNL1        0.1123
     15 N         -61.3048  -44.0863  -28.3220 N.pl3   1  UNL1       -0.3034
     16 C         -62.4665  -43.2634  -27.9820 C.3     1  UNL1        0.1123
     17 C         -62.2098  -42.5363  -26.6603 C.3     1  UNL1        0.1122
     18 C         -60.8497  -44.1487  -29.6786 C.ar    1  UNL1        0.0595
     19 C         -59.5944  -44.7033  -29.9602 C.ar    1  UNL1        0.0154
     20 C         -59.1342  -44.7678  -31.2767 C.ar    1  UNL1        0.0022
     21 C         -59.9256  -44.2815  -32.3193 C.ar    1  UNL1        0.0123
     22 C         -61.1842  -43.7305  -32.0520 C.ar    1  UNL1        0.0694
     23 CL        -62.1518  -43.1359  -33.3949 Cl      1  UNL1       -0.0813
     24 C         -61.6536  -43.6633  -30.7273 C.ar    1  UNL1        0.0815
     25 CL        -63.2477  -42.9959  -30.3778 Cl      1  UNL1       -0.0801
     26 C         -63.3625  -40.7650  -19.8248 C.3     1  UNL1        0.1535
     27 C         -63.8250  -39.5346  -19.0824 C.2     1  UNL1        0.2443
     28 O         -64.4412  -39.6631  -17.9900 O.2     1  UNL1       -0.2730
     29 N         -63.5017  -38.2308  -19.5955 N.am    1  UNL1       -0.2825
     30 H         -62.7465  -38.1731  -20.3162 H       1  UNL1        0.1549
     31 C         -64.1013  -36.9955  -19.1630 C.ar    1  UNL1        0.0535
     32 C         -65.3843  -36.6004  -19.5826 C.ar    1  UNL1        0.0353
     33 C         -65.8964  -35.3679  -19.1700 C.ar    1  UNL1        0.1002
     34 N         -65.1570  -34.5530  -18.3732 N.ar    1  UNL1       -0.2422
     35 C         -63.9099  -34.9014  -17.9620 C.ar    1  UNL1        0.1002
     36 C         -63.3574  -36.1215  -18.3572 C.ar    1  UNL1        0.0353
     37 C         -63.3325  -40.5070  -21.3431 C.3     1  UNL1        0.0569
     38 C         -64.7158  -40.5277  -21.9299 C.ar    1  UNL1       -0.0017
     39 C         -65.9049  -40.7452  -21.2401 C.ar    1  UNL1        0.0681
     40 N         -66.9455  -40.8104  -22.1018 N.ar    1  UNL1       -0.3523
     41 C         -66.4218  -40.6497  -23.3296 C.ar    1  UNL1        0.0563
     42 C         -67.1002  -40.6739  -24.5474 C.ar    1  UNL1        0.0170
     43 C         -66.3451  -40.5158  -25.7239 C.ar    1  UNL1        0.0015
     44 C         -64.9444  -40.3435  -25.6579 C.ar    1  UNL1        0.0001
     45 C         -64.2862  -40.3262  -24.4148 C.ar    1  UNL1        0.0012
     46 C         -65.0627  -40.4788  -23.2658 C.ar    1  UNL1        0.0131
     47 H         -67.9477  -40.9762  -21.8599 H       1  UNL1        0.1660
@<TRIPOS>BOND
     1     1     2    2
     2     2     3   am
     3     3    26    1
     4    26    37    1
     5    37    38    1
     6    38    39   ar
     7    39    40   ar
     8    40    41   ar
     9    41    42   ar
    10    42    43   ar
    11    43    44   ar
    12    44    45   ar
    13    45    46   ar
    14    26    27    1
    15    27    28    2
    16    27    29   am
    17    29    31    1
    18    31    32   ar
    19    32    33   ar
    20    33    34   ar
    21    34    35   ar
    22    35    36   ar
    23     2     5    1
    24     5     6   ar
    25     6     7   ar
    26     7     8   ar
    27     8    12    1
    28    12    13    1
    29    13    14    1
    30    14    15    1
    31    15    18    1
    32    18    19   ar
    33    19    20   ar
    34    20    21   ar
    35    21    22   ar
    36    22    23    1
    37    22    24   ar
    38    24    25    1
    39    15    16    1
    40    16    17    1
    41     8     9   ar
    42     9    10   ar
    43    10    11    1
    44    46    38   ar
    45    36    31   ar
    46    10     5   ar
    47    46    41   ar
    48    17    12    1
    49    24    18   ar
    50     3     4    1
    51    40    47    1
    52    29    30    1
