@<TRIPOS>MOLECULE
*****
 40 44 0 0 0
SMALL
GASTEIGER

@<TRIPOS>ATOM
      1 C         -24.8406   -6.0650  -12.8408 C.2     1  UNL1        0.2506
      2 O         -24.5284   -5.3189  -11.8735 O.2     1  UNL1       -0.2699
      3 N         -23.9718   -7.1484  -13.2314 N.am    1  UNL1       -0.2680
      4 C         -23.9739   -7.6454  -14.6110 C.3     1  UNL1        0.1412
      5 C         -24.8792   -8.8706  -14.7185 C.3     1  UNL1        0.2268
      6 O         -24.8991   -9.6131  -13.4999 O.3     1  UNL1       -0.4739
      7 C         -23.7331  -10.0602  -12.8717 C.ar    1  UNL1        0.1362
      8 C         -23.5373  -11.4392  -12.7539 C.ar    1  UNL1        0.0366
      9 C         -22.3794  -11.9453  -12.1642 C.ar    1  UNL1        0.0031
     10 C         -21.3974  -11.0759  -11.6650 C.ar    1  UNL1       -0.0000
     11 C         -21.6054   -9.6888  -11.7577 C.ar    1  UNL1        0.0004
     12 C         -22.7633   -9.1632  -12.3578 C.ar    1  UNL1        0.0317
     13 C         -22.9658   -7.6581  -12.2887 C.3     1  UNL1        0.1236
     14 C         -20.1644  -11.6124  -11.0352 C.ar    1  UNL1        0.0015
     15 C         -19.7333  -12.9408  -11.3100 C.ar    1  UNL1        0.0016
     16 C         -18.5655  -13.4576  -10.7179 C.ar    1  UNL1        0.0206
     17 C         -17.8525  -12.6276   -9.8596 C.ar    1  UNL1        0.0985
     18 N         -16.7190  -12.9107   -9.1929 N.ar    1  UNL1       -0.2241
     19 C         -16.4688  -11.7568   -8.5196 C.ar    1  UNL1        0.1750
     20 N         -17.3907  -10.7895   -8.7431 N.ar    1  UNL1       -0.3349
     21 C         -18.2569  -11.3571   -9.5904 C.ar    1  UNL1        0.0757
     22 C         -19.4044  -10.8057  -10.1531 C.ar    1  UNL1        0.0185
     23 H         -17.4164   -9.8249   -8.3443 H       1  UNL1        0.1675
     24 C         -27.2512   -6.6168  -13.3047 C.ar    1  UNL1        0.0503
     25 C         -28.4345   -6.3295  -14.0065 C.ar    1  UNL1        0.0325
     26 C         -28.5099   -5.2581  -14.9104 C.ar    1  UNL1        0.1053
     27 C         -27.3815   -4.4184  -15.0920 C.ar    1  UNL1        0.0243
     28 C         -26.1834   -4.7449  -14.4330 C.ar    1  UNL1        0.0052
     29 C         -26.1133   -5.8206  -13.5416 C.ar    1  UNL1        0.0665
     30 S         -30.0407   -5.0112  -15.7736 S.O2    1  UNL1        0.0103
     31 C         -31.0286   -3.8063  -14.9128 C.3     1  UNL1        0.1816
     32 O         -29.7855   -4.5589  -17.1841 O.2     1  UNL1       -0.1686
     33 O         -30.8056   -6.3042  -15.8312 O.2     1  UNL1       -0.1686
     34 C         -27.3984   -3.2339  -16.0356 C.3     1  UNL1        0.1649
     35 O         -27.1874   -3.6447  -17.3598 O.3     1  UNL1       -0.3772
     36 H         -27.2695   -2.8293  -17.9197 H       1  UNL1        0.2109
     37 N         -27.1972   -7.7048  -12.3551 N.pl3   1  UNL1       -0.3325
     38 H         -27.0035   -8.6723  -12.6973 H       1  UNL1        0.1468
     39 C         -26.3944   -8.5038  -10.1694 C.3     1  UNL1        0.0229
     40 C         -27.3239   -7.5434  -10.9054 C.3     1  UNL1        0.0871
@<TRIPOS>BOND
     1    39    40    1
     2    40    37    1
     3    37    24    1
     4    24    25   ar
     5    25    26   ar
     6    26    30    1
     7    30    31    1
     8    30    32    2
     9    30    33    2
    10    26    27   ar
    11    27    34    1
    12    34    35    1
    13    27    28   ar
    14    28    29   ar
    15    29     1    1
    16     1     2    2
    17     1     3   am
    18     3     4    1
    19     4     5    1
    20     5     6    1
    21     6     7    1
    22     7     8   ar
    23     8     9   ar
    24     9    10   ar
    25    10    14    1
    26    14    15   ar
    27    15    16   ar
    28    16    17   ar
    29    17    18   ar
    30    18    19   ar
    31    19    20   ar
    32    20    21   ar
    33    21    22   ar
    34    10    11   ar
    35    11    12   ar
    36    12    13    1
    37    29    24   ar
    38    13     3    1
    39    12     7   ar
    40    22    14   ar
    41    21    17   ar
    42    37    38    1
    43    35    36    1
    44    20    23    1
@<TRIPOS>MOLECULE
*****
 40 44 0 0 0
SMALL
GASTEIGER

@<TRIPOS>ATOM
      1 C         -22.4869  -10.6699  -12.2751 C.2     1  UNL1        0.2506
      2 O         -23.2939  -11.6318  -12.3899 O.2     1  UNL1       -0.2699
      3 N         -22.7570   -9.4138  -12.9314 N.am    1  UNL1       -0.2680
      4 C         -21.6588   -8.5170  -13.3056 C.3     1  UNL1        0.1412
      5 C         -21.4719   -7.4502  -12.2290 C.3     1  UNL1        0.2268
      6 O         -22.7072   -7.1333  -11.5885 O.3     1  UNL1       -0.4739
      7 C         -23.8487   -6.7540  -12.3006 C.ar    1  UNL1        0.1362
      8 C         -24.3540   -5.4670  -12.0953 C.ar    1  UNL1        0.0366
      9 C         -25.4720   -5.0212  -12.7995 C.ar    1  UNL1        0.0031
     10 C         -26.1178   -5.8650  -13.7161 C.ar    1  UNL1       -0.0000
     11 C         -25.6276   -7.1690  -13.9034 C.ar    1  UNL1        0.0004
     12 C         -24.4960   -7.6299  -13.2078 C.ar    1  UNL1        0.0317
     13 C         -24.1229   -9.0946  -13.3705 C.3     1  UNL1        0.1236
     14 C         -27.3095   -5.3931  -14.4659 C.ar    1  UNL1        0.0015
     15 C         -28.5850   -5.9825  -14.2385 C.ar    1  UNL1        0.0016
     16 C         -29.7201   -5.5412  -14.9443 C.ar    1  UNL1        0.0206
     17 C         -29.5508   -4.5143  -15.8666 C.ar    1  UNL1        0.0985
     18 N         -30.4884   -3.9412  -16.6425 N.ar    1  UNL1       -0.2241
     19 C         -29.7796   -3.0102  -17.3342 C.ar    1  UNL1        0.1750
     20 N         -28.4623   -2.9887  -17.0183 N.ar    1  UNL1       -0.3349
     21 C         -28.3359   -3.9452  -16.0912 C.ar    1  UNL1        0.0757
     22 C         -27.1876   -4.3501  -15.4166 C.ar    1  UNL1        0.0185
     23 H         -27.7198   -2.3679  -17.4100 H       1  UNL1        0.1675
     24 C         -20.5206  -12.0327  -11.4961 C.ar    1  UNL1        0.0503
     25 C         -19.3837  -12.1397  -10.6767 C.ar    1  UNL1        0.0325
     26 C         -18.9846  -11.0898   -9.8348 C.ar    1  UNL1        0.1053
     27 C         -19.7179   -9.8759   -9.8384 C.ar    1  UNL1        0.0243
     28 C         -20.8871   -9.7953  -10.6148 C.ar    1  UNL1        0.0052
     29 C         -21.2842  -10.8499  -11.4435 C.ar    1  UNL1        0.0665
     30 S         -17.5575  -11.3477   -8.8117 S.O2    1  UNL1        0.0103
     31 C         -17.3176  -13.0909   -8.5431 C.3     1  UNL1        0.1816
     32 O         -16.3349  -10.7492   -9.4490 O.2     1  UNL1       -0.1686
     33 O         -17.7607  -10.6816   -7.4794 O.2     1  UNL1       -0.1686
     34 C         -19.3327   -8.6958   -8.9707 C.3     1  UNL1        0.1649
     35 O         -19.7627   -8.8838   -7.6491 O.3     1  UNL1       -0.3772
     36 H         -19.4263   -8.1046   -7.1345 H       1  UNL1        0.2109
     37 N         -20.9025  -13.1105  -12.3798 N.pl3   1  UNL1       -0.3325
     38 H         -21.6104  -13.8079  -12.0586 H       1  UNL1        0.1468
     39 C         -21.5264  -13.7784  -14.6655 C.3     1  UNL1        0.0229
     40 C         -20.4170  -13.2651  -13.7524 C.3     1  UNL1        0.0871
@<TRIPOS>BOND
     1    39    40    1
     2    40    37    1
     3    37    24    1
     4    24    25   ar
     5    25    26   ar
     6    26    30    1
     7    30    31    1
     8    30    32    2
     9    30    33    2
    10    26    27   ar
    11    27    34    1
    12    34    35    1
    13    27    28   ar
    14    28    29   ar
    15    29     1    1
    16     1     2    2
    17     1     3   am
    18     3     4    1
    19     4     5    1
    20     5     6    1
    21     6     7    1
    22     7     8   ar
    23     8     9   ar
    24     9    10   ar
    25    10    14    1
    26    14    15   ar
    27    15    16   ar
    28    16    17   ar
    29    17    18   ar
    30    18    19   ar
    31    19    20   ar
    32    20    21   ar
    33    21    22   ar
    34    10    11   ar
    35    11    12   ar
    36    12    13    1
    37    29    24   ar
    38    13     3    1
    39    12     7   ar
    40    22    14   ar
    41    21    17   ar
    42    37    38    1
    43    35    36    1
    44    20    23    1
@<TRIPOS>MOLECULE
*****
 40 44 0 0 0
SMALL
GASTEIGER

@<TRIPOS>ATOM
      1 C         -20.8423   -6.8531   -9.0568 C.2     1  UNL1        0.2506
      2 O         -20.3403   -5.7882   -9.5080 O.2     1  UNL1       -0.2699
      3 N         -22.2329   -7.1566   -9.2928 N.am    1  UNL1       -0.2680
      4 C         -22.9765   -8.0148   -8.3649 C.3     1  UNL1        0.1412
      5 C         -22.9938   -9.4496   -8.8876 C.3     1  UNL1        0.2268
      6 O         -22.9676   -9.4855  -10.3140 O.3     1  UNL1       -0.4739
      7 C         -23.8870   -8.7866  -11.1016 C.ar    1  UNL1        0.1362
      8 C         -24.7516   -9.5251  -11.9145 C.ar    1  UNL1        0.0366
      9 C         -25.7103   -8.8851  -12.6993 C.ar    1  UNL1        0.0031
     10 C         -25.8121   -7.4855  -12.6966 C.ar    1  UNL1       -0.0000
     11 C         -24.9252   -6.7398  -11.9009 C.ar    1  UNL1        0.0004
     12 C         -23.9594   -7.3709  -11.0972 C.ar    1  UNL1        0.0317
     13 C         -22.9566   -6.4819  -10.3797 C.3     1  UNL1        0.1236
     14 C         -26.8311   -6.8017  -13.5327 C.ar    1  UNL1        0.0015
     15 C         -28.1466   -7.3333  -13.6455 C.ar    1  UNL1        0.0016
     16 C         -29.1191   -6.6916  -14.4354 C.ar    1  UNL1        0.0206
     17 C         -28.7497   -5.5259  -15.0976 C.ar    1  UNL1        0.0985
     18 N         -29.5106   -4.7556  -15.8959 N.ar    1  UNL1       -0.2241
     19 C         -28.6560   -3.7640  -16.2619 C.ar    1  UNL1        0.1750
     20 N         -27.4177   -3.8926  -15.7276 N.ar    1  UNL1       -0.3349
     21 C         -27.4949   -5.0106  -14.9964 C.ar    1  UNL1        0.0757
     22 C         -26.5026   -5.6117  -14.2273 C.ar    1  UNL1        0.0185
     23 H         -26.5952   -3.2628  -15.8584 H       1  UNL1        0.1675
     24 C         -19.5574   -9.0077   -8.8639 C.ar    1  UNL1        0.0503
     25 C         -18.7321   -9.8484   -8.0973 C.ar    1  UNL1        0.0325
     26 C         -18.3018   -9.4813   -6.8126 C.ar    1  UNL1        0.1053
     27 C         -18.6715   -8.2164   -6.2884 C.ar    1  UNL1        0.0243
     28 C         -19.5446   -7.4052   -7.0339 C.ar    1  UNL1        0.0052
     29 C         -19.9775   -7.7826   -8.3093 C.ar    1  UNL1        0.0665
     30 S         -17.2964  -10.6367   -5.9162 S.O2    1  UNL1        0.0103
     31 C         -16.7668  -11.9427   -7.0036 C.3     1  UNL1        0.1816
     32 O         -16.1032   -9.9461   -5.3173 O.2     1  UNL1       -0.1686
     33 O         -18.0946  -11.2416   -4.7950 O.2     1  UNL1       -0.1686
     34 C         -18.2272   -7.7475   -4.9185 C.3     1  UNL1        0.1649
     35 O         -16.8915   -7.3207   -4.9435 O.3     1  UNL1       -0.3772
     36 H         -16.6929   -6.9775   -4.0336 H       1  UNL1        0.2109
     37 N         -19.9682   -9.3858  -10.1968 N.pl3   1  UNL1       -0.3325
     38 H         -20.3880   -8.6653  -10.8256 H       1  UNL1        0.1468
     39 C         -20.9269  -11.0802  -11.7034 C.3     1  UNL1        0.0229
     40 C         -19.7713  -10.7160  -10.7761 C.3     1  UNL1        0.0871
@<TRIPOS>BOND
     1    39    40    1
     2    40    37    1
     3    37    24    1
     4    24    25   ar
     5    25    26   ar
     6    26    30    1
     7    30    31    1
     8    30    32    2
     9    30    33    2
    10    26    27   ar
    11    27    34    1
    12    34    35    1
    13    27    28   ar
    14    28    29   ar
    15    29     1    1
    16     1     2    2
    17     1     3   am
    18     3     4    1
    19     4     5    1
    20     5     6    1
    21     6     7    1
    22     7     8   ar
    23     8     9   ar
    24     9    10   ar
    25    10    14    1
    26    14    15   ar
    27    15    16   ar
    28    16    17   ar
    29    17    18   ar
    30    18    19   ar
    31    19    20   ar
    32    20    21   ar
    33    21    22   ar
    34    10    11   ar
    35    11    12   ar
    36    12    13    1
    37    29    24   ar
    38    13     3    1
    39    12     7   ar
    40    22    14   ar
    41    21    17   ar
    42    37    38    1
    43    35    36    1
    44    20    23    1
@<TRIPOS>MOLECULE
*****
 40 44 0 0 0
SMALL
GASTEIGER

@<TRIPOS>ATOM
      1 C         -20.8576   -7.8029   -9.2437 C.2     1  UNL1        0.2506
      2 O         -20.5869   -6.5957   -9.0005 O.2     1  UNL1       -0.2699
      3 N         -22.1194   -8.1563   -9.8473 N.am    1  UNL1       -0.2680
      4 C         -22.7056   -9.4822   -9.6273 C.3     1  UNL1        0.1412
      5 C         -22.3521  -10.4043  -10.7921 C.3     1  UNL1        0.2268
      6 O         -22.2190   -9.6761  -12.0122 O.3     1  UNL1       -0.4739
      7 C         -23.2187   -8.8263  -12.4944 C.ar    1  UNL1        0.1362
      8 C         -23.8289   -9.1520  -13.7090 C.ar    1  UNL1        0.0366
      9 C         -24.8532   -8.3591  -14.2256 C.ar    1  UNL1        0.0031
     10 C         -25.2779   -7.2107  -13.5399 C.ar    1  UNL1       -0.0000
     11 C         -24.6464   -6.8664  -12.3321 C.ar    1  UNL1        0.0004
     12 C         -23.6187   -7.6607  -11.7939 C.ar    1  UNL1        0.0317
     13 C         -22.9027   -7.1367  -10.5594 C.3     1  UNL1        0.1236
     14 C         -26.3673   -6.3640  -14.0887 C.ar    1  UNL1        0.0015
     15 C         -26.0750   -5.0942  -14.6615 C.ar    1  UNL1        0.0016
     16 C         -27.1012   -4.2850  -15.1845 C.ar    1  UNL1        0.0206
     17 C         -28.4034   -4.7688  -15.1217 C.ar    1  UNL1        0.0985
     18 N         -29.5264   -4.1707  -15.5584 N.ar    1  UNL1       -0.2241
     19 C         -30.4908   -5.0775  -15.2497 C.ar    1  UNL1        0.1750
     20 N         -30.0116   -6.1933  -14.6492 N.ar    1  UNL1       -0.3349
     21 C         -28.6926   -5.9807  -14.5757 C.ar    1  UNL1        0.0757
     22 C         -27.7101   -6.8130  -14.0470 C.ar    1  UNL1        0.0185
     23 H         -30.5501   -7.0254  -14.3206 H       1  UNL1        0.1675
     24 C         -19.1728   -8.8382   -7.6879 C.ar    1  UNL1        0.0503
     25 C         -18.2280   -9.8496   -7.4432 C.ar    1  UNL1        0.0325
     26 C         -17.9730  -10.8590   -8.3848 C.ar    1  UNL1        0.1053
     27 C         -18.7127  -10.8871   -9.5945 C.ar    1  UNL1        0.0243
     28 C         -19.6134   -9.8408   -9.8600 C.ar    1  UNL1        0.0052
     29 C         -19.8544   -8.8325   -8.9209 C.ar    1  UNL1        0.0665
     30 S         -16.7298  -12.0624   -7.9902 S.O2    1  UNL1        0.0103
     31 C         -15.4494  -12.0315   -9.2263 C.3     1  UNL1        0.1816
     32 O         -16.1447  -11.7924   -6.6322 O.2     1  UNL1       -0.1686
     33 O         -17.3410  -13.4358   -7.9684 O.2     1  UNL1       -0.1686
     34 C         -18.5037  -11.9572  -10.6456 C.3     1  UNL1        0.1649
     35 O         -18.9118  -13.2123  -10.1713 O.3     1  UNL1       -0.3772
     36 H         -18.7999  -13.8447  -10.9281 H       1  UNL1        0.2109
     37 N         -19.4462   -7.8226   -6.6969 N.pl3   1  UNL1       -0.3325
     38 H         -20.1450   -7.0763   -6.9097 H       1  UNL1        0.1468
     39 C         -19.7617   -8.5143   -4.3556 C.3     1  UNL1        0.0229
     40 C         -18.8594   -7.7976   -5.3557 C.3     1  UNL1        0.0871
@<TRIPOS>BOND
     1    39    40    1
     2    40    37    1
     3    37    24    1
     4    24    25   ar
     5    25    26   ar
     6    26    30    1
     7    30    31    1
     8    30    32    2
     9    30    33    2
    10    26    27   ar
    11    27    34    1
    12    34    35    1
    13    27    28   ar
    14    28    29   ar
    15    29     1    1
    16     1     2    2
    17     1     3   am
    18     3     4    1
    19     4     5    1
    20     5     6    1
    21     6     7    1
    22     7     8   ar
    23     8     9   ar
    24     9    10   ar
    25    10    14    1
    26    14    15   ar
    27    15    16   ar
    28    16    17   ar
    29    17    18   ar
    30    18    19   ar
    31    19    20   ar
    32    20    21   ar
    33    21    22   ar
    34    10    11   ar
    35    11    12   ar
    36    12    13    1
    37    29    24   ar
    38    13     3    1
    39    12     7   ar
    40    22    14   ar
    41    21    17   ar
    42    37    38    1
    43    35    36    1
    44    20    23    1
@<TRIPOS>MOLECULE
*****
 40 44 0 0 0
SMALL
GASTEIGER

@<TRIPOS>ATOM
      1 C         -25.5606   -8.5273  -11.1252 C.2     1  UNL1        0.2506
      2 O         -26.3724   -8.5666  -10.1612 O.2     1  UNL1       -0.2699
      3 N         -26.0056   -8.1078  -12.4318 N.am    1  UNL1       -0.2680
      4 C         -25.3153   -8.5727  -13.6392 C.3     1  UNL1        0.1412
      5 C         -24.3028   -7.5235  -14.0932 C.3     1  UNL1        0.2268
      6 O         -24.7340   -6.2043  -13.7609 O.3     1  UNL1       -0.4739
      7 C         -25.9857   -5.7055  -14.1328 C.ar    1  UNL1        0.1362
      8 C         -26.0258   -4.6162  -15.0078 C.ar    1  UNL1        0.0366
      9 C         -27.2451   -4.0942  -15.4384 C.ar    1  UNL1        0.0031
     10 C         -28.4538   -4.6460  -14.9868 C.ar    1  UNL1       -0.0000
     11 C         -28.4154   -5.7237  -14.0852 C.ar    1  UNL1        0.0004
     12 C         -27.1941   -6.2670  -13.6491 C.ar    1  UNL1        0.0317
     13 C         -27.2493   -7.3369  -12.5706 C.3     1  UNL1        0.1236
     14 C         -29.7534   -4.0909  -15.4426 C.ar    1  UNL1        0.0015
     15 C         -29.8217   -3.2797  -16.6102 C.ar    1  UNL1        0.0016
     16 C         -31.0494   -2.7496  -17.0498 C.ar    1  UNL1        0.0206
     17 C         -32.1865   -3.0457  -16.3061 C.ar    1  UNL1        0.0985
     18 N         -33.4507   -2.6511  -16.5417 N.ar    1  UNL1       -0.2241
     19 C         -34.1406   -3.2229  -15.5196 C.ar    1  UNL1        0.1750
     20 N         -33.3614   -3.9432  -14.6774 N.ar    1  UNL1       -0.3349
     21 C         -32.1310   -3.8194  -15.1887 C.ar    1  UNL1        0.0757
     22 C         -30.9396   -4.3637  -14.7179 C.ar    1  UNL1        0.0185
     23 H         -33.6561   -4.4717  -13.8264 H       1  UNL1        0.1675
     24 C         -23.6466  -10.1555  -11.2526 C.ar    1  UNL1        0.0503
     25 C         -22.2953  -10.4418  -10.9931 C.ar    1  UNL1        0.0325
     26 C         -21.4449   -9.4944  -10.4017 C.ar    1  UNL1        0.1053
     27 C         -21.9454   -8.2032  -10.0953 C.ar    1  UNL1        0.0243
     28 C         -23.3111   -7.9416  -10.3022 C.ar    1  UNL1        0.0052
     29 C         -24.1547   -8.8946  -10.8825 C.ar    1  UNL1        0.0665
     30 S         -19.7673   -9.9760  -10.0807 S.O2    1  UNL1        0.0103
     31 C         -19.5423  -11.6900  -10.5051 C.3     1  UNL1        0.1816
     32 O         -18.8121   -9.1193  -10.8636 O.2     1  UNL1       -0.1686
     33 O         -19.4590   -9.8003   -8.6198 O.2     1  UNL1       -0.1686
     34 C         -21.0797   -7.1265   -9.4748 C.3     1  UNL1        0.1649
     35 O         -20.8514   -7.3880   -8.1160 O.3     1  UNL1       -0.3772
     36 H         -20.2354   -6.6782   -7.7967 H       1  UNL1        0.2109
     37 N         -24.5027  -11.1303  -11.8891 N.pl3   1  UNL1       -0.3325
     38 H         -25.5206  -11.1455  -11.6563 H       1  UNL1        0.1468
     39 C         -25.2296  -12.5217  -13.7853 C.3     1  UNL1        0.0229
     40 C         -24.0583  -12.0756  -12.9152 C.3     1  UNL1        0.0871
@<TRIPOS>BOND
     1    39    40    1
     2    40    37    1
     3    37    24    1
     4    24    25   ar
     5    25    26   ar
     6    26    30    1
     7    30    31    1
     8    30    32    2
     9    30    33    2
    10    26    27   ar
    11    27    34    1
    12    34    35    1
    13    27    28   ar
    14    28    29   ar
    15    29     1    1
    16     1     2    2
    17     1     3   am
    18     3     4    1
    19     4     5    1
    20     5     6    1
    21     6     7    1
    22     7     8   ar
    23     8     9   ar
    24     9    10   ar
    25    10    14    1
    26    14    15   ar
    27    15    16   ar
    28    16    17   ar
    29    17    18   ar
    30    18    19   ar
    31    19    20   ar
    32    20    21   ar
    33    21    22   ar
    34    10    11   ar
    35    11    12   ar
    36    12    13    1
    37    29    24   ar
    38    13     3    1
    39    12     7   ar
    40    22    14   ar
    41    21    17   ar
    42    37    38    1
    43    35    36    1
    44    20    23    1
@<TRIPOS>MOLECULE
*****
 40 44 0 0 0
SMALL
GASTEIGER

@<TRIPOS>ATOM
      1 C         -22.5689  -10.6131  -11.9783 C.2     1  UNL1        0.2506
      2 O         -23.4107  -11.5498  -12.0385 O.2     1  UNL1       -0.2699
      3 N         -22.7908   -9.3900  -12.7105 N.am    1  UNL1       -0.2680
      4 C         -21.6593   -8.5585  -13.1332 C.3     1  UNL1        0.1412
      5 C         -21.4356   -7.4360  -12.1222 C.3     1  UNL1        0.2268
      6 O         -22.6598   -7.0357  -11.5076 O.3     1  UNL1       -0.4739
      7 C         -23.7848   -6.6585  -12.2465 C.ar    1  UNL1        0.1362
      8 C         -24.2427   -5.3437  -12.1217 C.ar    1  UNL1        0.0366
      9 C         -25.3418   -4.9005  -12.8566 C.ar    1  UNL1        0.0031
     10 C         -26.0162   -5.7740  -13.7236 C.ar    1  UNL1       -0.0000
     11 C         -25.5741   -7.1041  -13.8295 C.ar    1  UNL1        0.0004
     12 C         -24.4620   -7.5633  -13.1021 C.ar    1  UNL1        0.0317
     13 C         -24.1429   -9.0479  -13.1744 C.3     1  UNL1        0.1236
     14 C         -27.1879   -5.3048  -14.5060 C.ar    1  UNL1        0.0015
     15 C         -28.4849   -5.8312  -14.2485 C.ar    1  UNL1        0.0016
     16 C         -29.6013   -5.3921  -14.9848 C.ar    1  UNL1        0.0206
     17 C         -29.3918   -4.4305  -15.9674 C.ar    1  UNL1        0.0985
     18 N         -30.3057   -3.8716  -16.7810 N.ar    1  UNL1       -0.2241
     19 C         -29.5611   -3.0117  -17.5252 C.ar    1  UNL1        0.1750
     20 N         -28.2446   -3.0200  -17.2055 N.ar    1  UNL1       -0.3349
     21 C         -28.1560   -3.9220  -16.2211 C.ar    1  UNL1        0.0757
     22 C         -27.0251   -4.3272  -15.5181 C.ar    1  UNL1        0.0185
     23 H         -27.4786   -2.4524  -17.6313 H       1  UNL1        0.1675
     24 C         -21.1330   -9.9573  -10.0189 C.ar    1  UNL1        0.0503
     25 C         -19.9755  -10.1770   -9.2525 C.ar    1  UNL1        0.0325
     26 C         -19.0796  -11.2138   -9.5572 C.ar    1  UNL1        0.1053
     27 C         -19.3658  -12.0880  -10.6366 C.ar    1  UNL1        0.0243
     28 C         -20.4929  -11.8283  -11.4356 C.ar    1  UNL1        0.0052
     29 C         -21.3756  -10.7866  -11.1318 C.ar    1  UNL1        0.0665
     30 S         -17.6282  -11.3749   -8.5486 S.O2    1  UNL1        0.0103
     31 C         -17.8288  -10.4328   -7.0518 C.3     1  UNL1        0.1816
     32 O         -17.3698  -12.8188   -8.2206 O.2     1  UNL1       -0.1686
     33 O         -16.4327  -10.8455   -9.2907 O.2     1  UNL1       -0.1686
     34 C         -18.4541  -13.2386  -11.0090 C.3     1  UNL1        0.1649
     35 O         -19.1489  -14.2119  -11.7417 O.3     1  UNL1       -0.3772
     36 H         -18.4787  -14.8982  -11.9966 H       1  UNL1        0.2109
     37 N         -22.0617   -8.9047   -9.6756 N.pl3   1  UNL1       -0.3325
     38 H         -22.1032   -8.0465  -10.2692 H       1  UNL1        0.1468
     39 C         -24.4114   -9.3505   -9.0923 C.3     1  UNL1        0.0229
     40 C         -23.0248   -8.9789   -8.5753 C.3     1  UNL1        0.0871
@<TRIPOS>BOND
     1    39    40    1
     2    40    37    1
     3    37    24    1
     4    24    25   ar
     5    25    26   ar
     6    26    30    1
     7    30    31    1
     8    30    32    2
     9    30    33    2
    10    26    27   ar
    11    27    34    1
    12    34    35    1
    13    27    28   ar
    14    28    29   ar
    15    29     1    1
    16     1     2    2
    17     1     3   am
    18     3     4    1
    19     4     5    1
    20     5     6    1
    21     6     7    1
    22     7     8   ar
    23     8     9   ar
    24     9    10   ar
    25    10    14    1
    26    14    15   ar
    27    15    16   ar
    28    16    17   ar
    29    17    18   ar
    30    18    19   ar
    31    19    20   ar
    32    20    21   ar
    33    21    22   ar
    34    10    11   ar
    35    11    12   ar
    36    12    13    1
    37    29    24   ar
    38    13     3    1
    39    12     7   ar
    40    22    14   ar
    41    21    17   ar
    42    37    38    1
    43    35    36    1
    44    20    23    1
@<TRIPOS>MOLECULE
*****
 40 44 0 0 0
SMALL
GASTEIGER

@<TRIPOS>ATOM
      1 C         -22.0110   -6.0816  -11.4077 C.2     1  UNL1        0.2506
      2 O         -21.4941   -5.0248  -11.8612 O.2     1  UNL1       -0.2699
      3 N         -23.4435   -6.2524  -11.4210 N.am    1  UNL1       -0.2680
      4 C         -24.0992   -7.1261  -10.4427 C.3     1  UNL1        0.1412
      5 C         -24.3361   -8.5043  -11.0563 C.3     1  UNL1        0.2268
      6 O         -24.5505   -8.4185  -12.4646 O.3     1  UNL1       -0.4739
      7 C         -25.5189   -7.5833  -13.0291 C.ar    1  UNL1        0.1362
      8 C         -26.5712   -8.1778  -13.7313 C.ar    1  UNL1        0.0366
      9 C         -27.5832   -7.3983  -14.2905 C.ar    1  UNL1        0.0031
     10 C         -27.5529   -6.0005  -14.1696 C.ar    1  UNL1       -0.0000
     11 C         -26.4808   -5.3992  -13.4877 C.ar    1  UNL1        0.0004
     12 C         -25.4579   -6.1721  -12.9105 C.ar    1  UNL1        0.0317
     13 C         -24.2717   -5.4308  -12.3151 C.3     1  UNL1        0.1236
     14 C         -28.6286   -5.1682  -14.7656 C.ar    1  UNL1        0.0015
     15 C         -29.9644   -5.2625  -14.2836 C.ar    1  UNL1        0.0016
     16 C         -30.9904   -4.4771  -14.8422 C.ar    1  UNL1        0.0206
     17 C         -30.6529   -3.6107  -15.8763 C.ar    1  UNL1        0.0985
     18 N         -31.4645   -2.7742  -16.5479 N.ar    1  UNL1       -0.2241
     19 C         -30.6199   -2.1785  -17.4308 C.ar    1  UNL1        0.1750
     20 N         -29.3396   -2.6098  -17.3295 N.ar    1  UNL1       -0.3349
     21 C         -29.3793   -3.5141  -16.3440 C.ar    1  UNL1        0.0757
     22 C         -28.3346   -4.2712  -15.8218 C.ar    1  UNL1        0.0185
     23 H         -28.5146   -2.3049  -17.8924 H       1  UNL1        0.1675
     24 C         -20.4907   -8.0571  -11.7493 C.ar    1  UNL1        0.0503
     25 C         -19.6563   -9.0402  -11.1901 C.ar    1  UNL1        0.0325
     26 C         -19.4245   -9.1059   -9.8072 C.ar    1  UNL1        0.1053
     27 C         -20.0100   -8.1350   -8.9551 C.ar    1  UNL1        0.0243
     28 C         -20.8900   -7.1905   -9.5118 C.ar    1  UNL1        0.0052
     29 C         -21.1242   -7.1380  -10.8898 C.ar    1  UNL1        0.0665
     30 S         -18.3870  -10.4134   -9.2043 S.O2    1  UNL1        0.0103
     31 C         -18.9402  -11.9719   -9.8627 C.3     1  UNL1        0.1816
     32 O         -16.9537  -10.1698   -9.5860 O.2     1  UNL1       -0.1686
     33 O         -18.4649  -10.4729   -7.7041 O.2     1  UNL1       -0.1686
     34 C         -19.7870   -8.1338   -7.4572 C.3     1  UNL1        0.1649
     35 O         -18.5720   -7.5135   -7.1317 O.3     1  UNL1       -0.3772
     36 H         -18.5245   -7.4996   -6.1403 H       1  UNL1        0.2109
     37 N         -20.6965   -7.9835  -13.1778 N.pl3   1  UNL1       -0.3325
     38 H         -20.1167   -7.3248  -13.7441 H       1  UNL1        0.1468
     39 C         -22.2367   -8.0708  -15.0961 C.3     1  UNL1        0.0229
     40 C         -21.6270   -8.8331  -13.9235 C.3     1  UNL1        0.0871
@<TRIPOS>BOND
     1    39    40    1
     2    40    37    1
     3    37    24    1
     4    24    25   ar
     5    25    26   ar
     6    26    30    1
     7    30    31    1
     8    30    32    2
     9    30    33    2
    10    26    27   ar
    11    27    34    1
    12    34    35    1
    13    27    28   ar
    14    28    29   ar
    15    29     1    1
    16     1     2    2
    17     1     3   am
    18     3     4    1
    19     4     5    1
    20     5     6    1
    21     6     7    1
    22     7     8   ar
    23     8     9   ar
    24     9    10   ar
    25    10    14    1
    26    14    15   ar
    27    15    16   ar
    28    16    17   ar
    29    17    18   ar
    30    18    19   ar
    31    19    20   ar
    32    20    21   ar
    33    21    22   ar
    34    10    11   ar
    35    11    12   ar
    36    12    13    1
    37    29    24   ar
    38    13     3    1
    39    12     7   ar
    40    22    14   ar
    41    21    17   ar
    42    37    38    1
    43    35    36    1
    44    20    23    1
@<TRIPOS>MOLECULE
*****
 40 44 0 0 0
SMALL
GASTEIGER

@<TRIPOS>ATOM
      1 C         -21.5218   -6.8679  -10.4655 C.2     1  UNL1        0.2506
      2 O         -21.0530   -5.7367  -10.7660 O.2     1  UNL1       -0.2699
      3 N         -22.9286   -7.1389  -10.6358 N.am    1  UNL1       -0.2680
      4 C         -23.5979   -8.1507   -9.8120 C.3     1  UNL1        0.1412
      5 C         -23.6655   -9.4741  -10.5710 C.3     1  UNL1        0.2268
      6 O         -23.7568   -9.2637  -11.9796 O.3     1  UNL1       -0.4739
      7 C         -24.7341   -8.4479  -12.5570 C.ar    1  UNL1        0.1362
      8 C         -25.6663   -9.0433  -13.4116 C.ar    1  UNL1        0.0366
      9 C         -26.6830   -8.2864  -13.9931 C.ar    1  UNL1        0.0031
     10 C         -26.7770   -6.9091  -13.7409 C.ar    1  UNL1       -0.0000
     11 C         -25.8239   -6.3036  -12.9038 C.ar    1  UNL1        0.0004
     12 C         -24.7986   -7.0549  -12.3028 C.ar    1  UNL1        0.0317
     13 C         -23.7356   -6.2936  -11.5272 C.3     1  UNL1        0.1236
     14 C         -27.8577   -6.1008  -14.3604 C.ar    1  UNL1        0.0015
     15 C         -29.2165   -6.5113  -14.2549 C.ar    1  UNL1        0.0016
     16 C         -30.2474   -5.7511  -14.8386 C.ar    1  UNL1        0.0206
     17 C         -29.8919   -4.5910  -15.5180 C.ar    1  UNL1        0.0985
     18 N         -30.7049   -3.7207  -16.1433 N.ar    1  UNL1       -0.2241
     19 C         -29.8385   -2.7898  -16.6232 C.ar    1  UNL1        0.1750
     20 N         -28.5436   -3.0499  -16.3215 N.ar    1  UNL1       -0.3349
     21 C         -28.5962   -4.1910  -15.6246 C.ar    1  UNL1        0.0757
     22 C         -27.5456   -4.9115  -15.0637 C.ar    1  UNL1        0.0185
     23 H         -27.7013   -2.4877  -16.5760 H       1  UNL1        0.1675
     24 C         -20.2004   -8.9875  -10.7687 C.ar    1  UNL1        0.0503
     25 C         -19.3214   -9.9414  -10.2277 C.ar    1  UNL1        0.0325
     26 C         -18.8222   -9.8217   -8.9212 C.ar    1  UNL1        0.1053
     27 C         -19.1770   -8.6924   -8.1399 C.ar    1  UNL1        0.0243
     28 C         -20.1022   -7.7725   -8.6636 C.ar    1  UNL1        0.0052
     29 C         -20.6034   -7.9044   -9.9628 C.ar    1  UNL1        0.0665
     30 S         -17.7518  -11.1053   -8.3245 S.O2    1  UNL1        0.0103
     31 C         -17.5524  -10.9511   -6.5625 C.3     1  UNL1        0.1816
     32 O         -18.3084  -12.4592   -8.6659 O.2     1  UNL1       -0.1686
     33 O         -16.4005  -10.9816   -8.9718 O.2     1  UNL1       -0.1686
     34 C         -18.6602   -8.4892   -6.7309 C.3     1  UNL1        0.1649
     35 O         -18.2273   -7.1687   -6.5414 O.3     1  UNL1       -0.3772
     36 H         -17.9602   -7.0986   -5.5880 H       1  UNL1        0.2109
     37 N         -20.6828   -9.1082  -12.1255 N.pl3   1  UNL1       -0.3325
     38 H         -21.2199   -9.9598  -12.4028 H       1  UNL1        0.1468
     39 C         -21.5708   -8.2546  -14.2569 C.3     1  UNL1        0.0229
     40 C         -20.5371   -8.0719  -13.1496 C.3     1  UNL1        0.0871
@<TRIPOS>BOND
     1    39    40    1
     2    40    37    1
     3    37    24    1
     4    24    25   ar
     5    25    26   ar
     6    26    30    1
     7    30    31    1
     8    30    32    2
     9    30    33    2
    10    26    27   ar
    11    27    34    1
    12    34    35    1
    13    27    28   ar
    14    28    29   ar
    15    29     1    1
    16     1     2    2
    17     1     3   am
    18     3     4    1
    19     4     5    1
    20     5     6    1
    21     6     7    1
    22     7     8   ar
    23     8     9   ar
    24     9    10   ar
    25    10    14    1
    26    14    15   ar
    27    15    16   ar
    28    16    17   ar
    29    17    18   ar
    30    18    19   ar
    31    19    20   ar
    32    20    21   ar
    33    21    22   ar
    34    10    11   ar
    35    11    12   ar
    36    12    13    1
    37    29    24   ar
    38    13     3    1
    39    12     7   ar
    40    22    14   ar
    41    21    17   ar
    42    37    38    1
    43    35    36    1
    44    20    23    1
@<TRIPOS>MOLECULE
*****
 40 44 0 0 0
SMALL
GASTEIGER

@<TRIPOS>ATOM
      1 C         -28.2405   -7.3787  -13.9637 C.2     1  UNL1        0.2506
      2 O         -28.4453   -8.4744  -14.5530 O.2     1  UNL1       -0.2699
      3 N         -27.2315   -7.2847  -12.9368 N.am    1  UNL1       -0.2680
      4 C         -27.3393   -6.2783  -11.8758 C.3     1  UNL1        0.1412
      5 C         -26.5058   -5.0514  -12.2394 C.3     1  UNL1        0.2268
      6 O         -25.3671   -5.4077  -13.0225 O.3     1  UNL1       -0.4739
      7 C         -24.4488   -6.3802  -12.6164 C.ar    1  UNL1        0.1362
      8 C         -23.1324   -5.9794  -12.3706 C.ar    1  UNL1        0.0366
      9 C         -22.1789   -6.8984  -11.9340 C.ar    1  UNL1        0.0031
     10 C         -22.5231   -8.2462  -11.7487 C.ar    1  UNL1       -0.0000
     11 C         -23.8395   -8.6565  -12.0221 C.ar    1  UNL1        0.0004
     12 C         -24.8144   -7.7400  -12.4540 C.ar    1  UNL1        0.0317
     13 C         -26.1699   -8.2981  -12.8567 C.3     1  UNL1        0.1236
     14 C         -21.5090   -9.2270  -11.2855 C.ar    1  UNL1        0.0015
     15 C         -21.6014  -10.5951  -11.6672 C.ar    1  UNL1        0.0016
     16 C         -20.6445  -11.5317  -11.2331 C.ar    1  UNL1        0.0206
     17 C         -19.6114  -11.0741  -10.4225 C.ar    1  UNL1        0.0985
     18 N         -18.5971  -11.7866   -9.8999 N.ar    1  UNL1       -0.2241
     19 C         -17.8968  -10.8506   -9.2064 C.ar    1  UNL1        0.1750
     20 N         -18.4330   -9.6086   -9.2812 N.ar    1  UNL1       -0.3349
     21 C         -19.5150   -9.7689  -10.0519 C.ar    1  UNL1        0.0757
     22 C         -20.4383   -8.8093  -10.4574 C.ar    1  UNL1        0.0185
     23 H         -18.0807   -8.7312   -8.8383 H       1  UNL1        0.1675
     24 C         -28.4626   -5.1408  -15.0920 C.ar    1  UNL1        0.0503
     25 C         -29.2745   -4.0476  -15.4400 C.ar    1  UNL1        0.0325
     26 C         -30.6355   -4.0063  -15.0988 C.ar    1  UNL1        0.1053
     27 C         -31.2190   -5.1089  -14.4240 C.ar    1  UNL1        0.0243
     28 C         -30.3905   -6.1728  -14.0264 C.ar    1  UNL1        0.0052
     29 C         -29.0327   -6.2019  -14.3611 C.ar    1  UNL1        0.0665
     30 S         -31.5575   -2.5590  -15.5514 S.O2    1  UNL1        0.0103
     31 C         -31.0666   -2.0167  -17.1741 C.3     1  UNL1        0.1816
     32 O         -33.0334   -2.8425  -15.5248 O.2     1  UNL1       -0.1686
     33 O         -31.2789   -1.4526  -14.5724 O.2     1  UNL1       -0.1686
     34 C         -32.6844   -5.1404  -14.0428 C.3     1  UNL1        0.1649
     35 O         -32.9578   -6.2208  -13.1914 O.3     1  UNL1       -0.3772
     36 H         -33.9150   -6.1415  -12.9412 H       1  UNL1        0.2109
     37 N         -27.0701   -5.1829  -15.4759 N.pl3   1  UNL1       -0.3325
     38 H         -26.4863   -6.0008  -15.1915 H       1  UNL1        0.1468
     39 C         -25.7161   -4.8362  -17.5023 C.3     1  UNL1        0.0229
     40 C         -26.4136   -4.1787  -16.3152 C.3     1  UNL1        0.0871
@<TRIPOS>BOND
     1    39    40    1
     2    40    37    1
     3    37    24    1
     4    24    25   ar
     5    25    26   ar
     6    26    30    1
     7    30    31    1
     8    30    32    2
     9    30    33    2
    10    26    27   ar
    11    27    34    1
    12    34    35    1
    13    27    28   ar
    14    28    29   ar
    15    29     1    1
    16     1     2    2
    17     1     3   am
    18     3     4    1
    19     4     5    1
    20     5     6    1
    21     6     7    1
    22     7     8   ar
    23     8     9   ar
    24     9    10   ar
    25    10    14    1
    26    14    15   ar
    27    15    16   ar
    28    16    17   ar
    29    17    18   ar
    30    18    19   ar
    31    19    20   ar
    32    20    21   ar
    33    21    22   ar
    34    10    11   ar
    35    11    12   ar
    36    12    13    1
    37    29    24   ar
    38    13     3    1
    39    12     7   ar
    40    22    14   ar
    41    21    17   ar
    42    37    38    1
    43    35    36    1
    44    20    23    1
