@<TRIPOS>MOLECULE
*****
 50 55 0 0 0
SMALL
GASTEIGER

@<TRIPOS>ATOM
      1 O         -61.3207  -42.6672  -19.8876 O.2     1  UNL1       -0.2701
      2 C         -62.0228  -42.0033  -20.6983 C.2     1  UNL1        0.2481
      3 N         -62.9704  -41.0420  -20.2108 N.am    1  UNL1       -0.2945
      4 H         -63.4087  -40.3826  -20.8936 H       1  UNL1        0.1501
      5 C         -61.8341  -42.1979  -22.1513 C.ar    1  UNL1        0.0792
      6 C         -62.8868  -41.8541  -23.0169 C.ar    1  UNL1        0.1454
      7 F         -64.0430  -41.3376  -22.5261 F       1  UNL1       -0.2040
      8 C         -62.7786  -42.0760  -24.3897 C.ar    1  UNL1        0.0443
      9 C         -61.6198  -42.6497  -24.9334 C.ar    1  UNL1        0.0500
     10 C         -60.5587  -42.9787  -24.0741 C.ar    1  UNL1        0.0129
     11 C         -60.6338  -42.7290  -22.6912 C.ar    1  UNL1        0.0147
     12 N         -61.5206  -42.9027  -26.3530 N.pl3   1  UNL1       -0.3040
     13 C         -62.2362  -42.0452  -27.3091 C.3     1  UNL1        0.1122
     14 C         -61.4846  -41.9703  -28.6417 C.3     1  UNL1        0.1122
     15 N         -61.1565  -43.3102  -29.1537 N.pl3   1  UNL1       -0.3040
     16 C         -61.2004  -44.4708  -28.2522 C.3     1  UNL1        0.1122
     17 C         -60.7745  -44.0757  -26.8348 C.3     1  UNL1        0.1122
     18 C         -60.8763  -43.4915  -30.5600 C.ar    1  UNL1        0.0488
     19 C         -59.6407  -44.0140  -30.9839 C.ar    1  UNL1        0.0154
     20 C         -59.3740  -44.1916  -32.3435 C.ar    1  UNL1        0.0135
     21 C         -60.3335  -43.8528  -33.3019 C.ar    1  UNL1        0.0683
     22 CL        -59.9599  -44.0915  -35.0036 Cl      1  UNL1       -0.0814
     23 C         -61.5719  -43.3324  -32.8933 C.ar    1  UNL1        0.0694
     24 CL        -62.8058  -42.8910  -34.0662 Cl      1  UNL1       -0.0813
     25 C         -61.8385  -43.1553  -31.5306 C.ar    1  UNL1        0.0268
     26 C         -59.4359  -43.0647  -21.8266 C.3     1  UNL1        0.1639
     27 O         -58.5567  -43.9213  -22.5087 O.3     1  UNL1       -0.3772
     28 H         -58.7014  -44.8363  -22.1517 H       1  UNL1        0.2109
     29 C         -63.3179  -40.9513  -18.7889 C.3     1  UNL1        0.1535
     30 C         -63.8088  -39.5663  -18.4689 C.2     1  UNL1        0.2443
     31 O         -64.5822  -39.3911  -17.4876 O.2     1  UNL1       -0.2730
     32 N         -63.3287  -38.4445  -19.2261 N.am    1  UNL1       -0.2825
     33 H         -62.4572  -38.5740  -19.7890 H       1  UNL1        0.1549
     34 C         -63.9175  -37.1337  -19.1828 C.ar    1  UNL1        0.0535
     35 C         -65.2574  -36.9673  -19.5589 C.ar    1  UNL1        0.0353
     36 C         -65.8410  -35.6996  -19.4963 C.ar    1  UNL1        0.1002
     37 N         -65.1170  -34.6365  -19.0570 N.ar    1  UNL1       -0.2422
     38 C         -63.8218  -34.7698  -18.6670 C.ar    1  UNL1        0.1002
     39 C         -63.1994  -36.0198  -18.7150 C.ar    1  UNL1        0.0353
     40 C         -64.3926  -41.9866  -18.4114 C.3     1  UNL1        0.0569
     41 C         -65.1998  -42.4034  -19.6075 C.ar    1  UNL1       -0.0017
     42 C         -65.4750  -43.7082  -20.0058 C.ar    1  UNL1        0.0681
     43 N         -66.2996  -43.7110  -21.0778 N.ar    1  UNL1       -0.3523
     44 C         -66.5510  -42.4203  -21.3565 C.ar    1  UNL1        0.0563
     45 C         -67.3699  -41.9186  -22.3669 C.ar    1  UNL1        0.0170
     46 C         -67.5059  -40.5221  -22.4703 C.ar    1  UNL1        0.0015
     47 C         -66.8292  -39.6684  -21.5709 C.ar    1  UNL1        0.0001
     48 C         -66.0115  -40.2032  -20.5588 C.ar    1  UNL1        0.0012
     49 C         -65.8964  -41.5914  -20.4813 C.ar    1  UNL1        0.0131
     50 H         -66.6775  -44.5490  -21.5733 H       1  UNL1        0.1660
@<TRIPOS>BOND
     1     1     2    2
     2     2     3   am
     3     3    29    1
     4    29    40    1
     5    40    41    1
     6    41    42   ar
     7    42    43   ar
     8    43    44   ar
     9    44    45   ar
    10    45    46   ar
    11    46    47   ar
    12    47    48   ar
    13    48    49   ar
    14    29    30    1
    15    30    31    2
    16    30    32   am
    17    32    34    1
    18    34    35   ar
    19    35    36   ar
    20    36    37   ar
    21    37    38   ar
    22    38    39   ar
    23     2     5    1
    24     5     6   ar
    25     6     7    1
    26     6     8   ar
    27     8     9   ar
    28     9    12    1
    29    12    13    1
    30    13    14    1
    31    14    15    1
    32    15    18    1
    33    18    19   ar
    34    19    20   ar
    35    20    21   ar
    36    21    22    1
    37    21    23   ar
    38    23    24    1
    39    23    25   ar
    40    15    16    1
    41    16    17    1
    42     9    10   ar
    43    10    11   ar
    44    11    26    1
    45    26    27    1
    46    49    41   ar
    47    39    34   ar
    48    11     5   ar
    49    49    44   ar
    50    17    12    1
    51    25    18   ar
    52     3     4    1
    53    43    50    1
    54    32    33    1
    55    27    28    1
@<TRIPOS>MOLECULE
*****
 50 55 0 0 0
SMALL
GASTEIGER

@<TRIPOS>ATOM
      1 O         -60.4339  -46.0287  -24.9776 O.2     1  UNL1       -0.2701
      2 C         -61.6372  -45.6960  -24.7978 C.2     1  UNL1        0.2481
      3 N         -62.6959  -46.5217  -25.3048 N.am    1  UNL1       -0.2945
      4 H         -63.6747  -46.3248  -24.9943 H       1  UNL1        0.1501
      5 C         -61.9454  -44.4710  -24.0303 C.ar    1  UNL1        0.0792
      6 C         -62.0533  -44.5644  -22.6320 C.ar    1  UNL1        0.1454
      7 F         -61.8597  -45.7523  -22.0028 F       1  UNL1       -0.2040
      8 C         -62.4020  -43.4489  -21.8706 C.ar    1  UNL1        0.0443
      9 C         -62.6555  -42.2135  -22.4846 C.ar    1  UNL1        0.0500
     10 C         -62.5318  -42.1116  -23.8800 C.ar    1  UNL1        0.0129
     11 C         -62.1455  -43.2160  -24.6620 C.ar    1  UNL1        0.0147
     12 N         -63.0422  -41.0656  -21.6959 N.pl3   1  UNL1       -0.3040
     13 C         -62.0221  -40.2715  -20.9958 C.3     1  UNL1        0.1122
     14 C         -62.4619  -38.8097  -20.8699 C.3     1  UNL1        0.1122
     15 N         -63.8147  -38.6987  -20.3018 N.pl3   1  UNL1       -0.3040
     16 C         -64.7023  -39.8708  -20.2870 C.3     1  UNL1        0.1122
     17 C         -64.4680  -40.7468  -21.5216 C.3     1  UNL1        0.1122
     18 C         -64.2334  -37.4612  -19.6835 C.ar    1  UNL1        0.0488
     19 C         -63.3454  -36.7254  -18.8776 C.ar    1  UNL1        0.0154
     20 C         -63.7515  -35.5277  -18.2843 C.ar    1  UNL1        0.0135
     21 C         -65.0474  -35.0437  -18.4852 C.ar    1  UNL1        0.0683
     22 CL        -65.5206  -33.5321  -17.7214 Cl      1  UNL1       -0.0814
     23 C         -65.9437  -35.7663  -19.2889 C.ar    1  UNL1        0.0694
     24 CL        -67.5835  -35.1941  -19.5654 Cl      1  UNL1       -0.0813
     25 C         -65.5355  -36.9660  -19.8835 C.ar    1  UNL1        0.0268
     26 C         -61.9855  -43.0269  -26.1566 C.3     1  UNL1        0.1639
     27 O         -63.2089  -43.2290  -26.8156 O.3     1  UNL1       -0.3772
     28 H         -63.1778  -44.1338  -27.2229 H       1  UNL1        0.2109
     29 C         -62.4359  -47.6360  -26.2220 C.3     1  UNL1        0.1535
     30 C         -62.5057  -48.9402  -25.4765 C.2     1  UNL1        0.2443
     31 O         -63.5875  -49.5892  -25.4571 O.2     1  UNL1       -0.2730
     32 N         -61.3230  -49.4792  -24.8658 N.am    1  UNL1       -0.2825
     33 H         -60.3988  -49.1045  -25.1796 H       1  UNL1        0.1549
     34 C         -61.3281  -50.5638  -23.9221 C.ar    1  UNL1        0.0535
     35 C         -62.5497  -51.0440  -23.4307 C.ar    1  UNL1        0.0353
     36 C         -62.5611  -52.1130  -22.5314 C.ar    1  UNL1        0.1002
     37 N         -61.3938  -52.6945  -22.1484 N.ar    1  UNL1       -0.2422
     38 C         -60.1950  -52.2641  -22.6227 C.ar    1  UNL1        0.1002
     39 C         -60.1385  -51.1970  -23.5228 C.ar    1  UNL1        0.0353
     40 C         -63.4427  -47.6453  -27.3862 C.3     1  UNL1        0.0569
     41 C         -63.2357  -46.4734  -28.3026 C.ar    1  UNL1       -0.0017
     42 C         -64.2275  -45.6584  -28.8403 C.ar    1  UNL1        0.0681
     43 N         -63.6756  -44.6502  -29.5531 N.ar    1  UNL1       -0.3523
     44 C         -62.3449  -44.8188  -29.4662 C.ar    1  UNL1        0.0563
     45 C         -61.3534  -44.0123  -30.0226 C.ar    1  UNL1        0.0170
     46 C         -60.0115  -44.3660  -29.7913 C.ar    1  UNL1        0.0015
     47 C         -59.6945  -45.5041  -29.0168 C.ar    1  UNL1        0.0001
     48 C         -60.7162  -46.2981  -28.4650 C.ar    1  UNL1        0.0012
     49 C         -62.0369  -45.9221  -28.7115 C.ar    1  UNL1        0.0131
     50 H         -64.1839  -43.8866  -30.0521 H       1  UNL1        0.1660
@<TRIPOS>BOND
     1     1     2    2
     2     2     3   am
     3     3    29    1
     4    29    40    1
     5    40    41    1
     6    41    42   ar
     7    42    43   ar
     8    43    44   ar
     9    44    45   ar
    10    45    46   ar
    11    46    47   ar
    12    47    48   ar
    13    48    49   ar
    14    29    30    1
    15    30    31    2
    16    30    32   am
    17    32    34    1
    18    34    35   ar
    19    35    36   ar
    20    36    37   ar
    21    37    38   ar
    22    38    39   ar
    23     2     5    1
    24     5     6   ar
    25     6     7    1
    26     6     8   ar
    27     8     9   ar
    28     9    12    1
    29    12    13    1
    30    13    14    1
    31    14    15    1
    32    15    18    1
    33    18    19   ar
    34    19    20   ar
    35    20    21   ar
    36    21    22    1
    37    21    23   ar
    38    23    24    1
    39    23    25   ar
    40    15    16    1
    41    16    17    1
    42     9    10   ar
    43    10    11   ar
    44    11    26    1
    45    26    27    1
    46    49    41   ar
    47    39    34   ar
    48    11     5   ar
    49    49    44   ar
    50    17    12    1
    51    25    18   ar
    52     3     4    1
    53    43    50    1
    54    32    33    1
    55    27    28    1
@<TRIPOS>MOLECULE
*****
 50 55 0 0 0
SMALL
GASTEIGER

@<TRIPOS>ATOM
      1 O         -60.1451  -46.5306  -23.6104 O.2     1  UNL1       -0.2701
      2 C         -61.0437  -45.7875  -24.0914 C.2     1  UNL1        0.2481
      3 N         -61.7348  -46.1757  -25.2878 N.am    1  UNL1       -0.2945
      4 H         -62.5885  -45.6404  -25.5671 H       1  UNL1        0.1501
      5 C         -61.4024  -44.5355  -23.3925 C.ar    1  UNL1        0.0792
      6 C         -61.7959  -44.6080  -22.0451 C.ar    1  UNL1        0.1454
      7 F         -61.8265  -45.8019  -21.3985 F       1  UNL1       -0.2040
      8 C         -62.2014  -43.4619  -21.3612 C.ar    1  UNL1        0.0443
      9 C         -62.2285  -42.2158  -22.0046 C.ar    1  UNL1        0.0500
     10 C         -61.8196  -42.1361  -23.3459 C.ar    1  UNL1        0.0129
     11 C         -61.3722  -43.2741  -24.0424 C.ar    1  UNL1        0.0147
     12 N         -62.6741  -41.0343  -21.3013 N.pl3   1  UNL1       -0.3040
     13 C         -61.7096  -39.9920  -20.9207 C.3     1  UNL1        0.1122
     14 C         -62.3800  -38.6151  -20.8897 C.3     1  UNL1        0.1122
     15 N         -63.6096  -38.6301  -20.0817 N.pl3   1  UNL1       -0.3040
     16 C         -64.2517  -39.9097  -19.7472 C.3     1  UNL1        0.1122
     17 C         -64.0813  -40.9188  -20.8870 C.3     1  UNL1        0.1122
     18 C         -64.1324  -37.3925  -19.5487 C.ar    1  UNL1        0.0488
     19 C         -63.3293  -36.5605  -18.7473 C.ar    1  UNL1        0.0154
     20 C         -63.8360  -35.3630  -18.2366 C.ar    1  UNL1        0.0135
     21 C         -65.1494  -34.9751  -18.5167 C.ar    1  UNL1        0.0683
     22 CL        -65.7502  -33.4605  -17.8555 Cl      1  UNL1       -0.0814
     23 C         -65.9616  -35.7944  -19.3170 C.ar    1  UNL1        0.0694
     24 CL        -67.6200  -35.3449  -19.6916 Cl      1  UNL1       -0.0813
     25 C         -65.4527  -36.9939  -19.8288 C.ar    1  UNL1        0.0268
     26 C         -60.9010  -43.1112  -25.4730 C.3     1  UNL1        0.1639
     27 O         -61.8927  -43.5344  -26.3727 O.3     1  UNL1       -0.3772
     28 H         -61.6298  -44.4348  -26.6981 H       1  UNL1        0.2109
     29 C         -61.2873  -47.3068  -26.1070 C.3     1  UNL1        0.1535
     30 C         -61.7052  -48.6011  -25.4653 C.2     1  UNL1        0.2443
     31 O         -62.8842  -49.0217  -25.6225 O.2     1  UNL1       -0.2730
     32 N         -60.7404  -49.3900  -24.7519 N.am    1  UNL1       -0.2825
     33 H         -59.7280  -49.1940  -24.9241 H       1  UNL1        0.1549
     34 C         -61.0796  -50.4905  -23.8913 C.ar    1  UNL1        0.0535
     35 C         -60.0671  -51.3444  -23.4329 C.ar    1  UNL1        0.0353
     36 C         -60.3883  -52.4013  -22.5777 C.ar    1  UNL1        0.1002
     37 N         -61.6741  -52.5897  -22.1795 N.ar    1  UNL1       -0.2422
     38 C         -62.6745  -51.7670  -22.5913 C.ar    1  UNL1        0.1002
     39 C         -62.3969  -50.6987  -23.4478 C.ar    1  UNL1        0.0353
     40 C         -61.8598  -47.2221  -27.5333 C.3     1  UNL1        0.0569
     41 C         -61.0274  -46.3294  -28.4086 C.ar    1  UNL1       -0.0017
     42 C         -59.6373  -46.2859  -28.4617 C.ar    1  UNL1        0.0681
     43 N         -59.2279  -45.4255  -29.4216 N.ar    1  UNL1       -0.3523
     44 C         -60.3466  -44.9296  -29.9777 C.ar    1  UNL1        0.0563
     45 C         -60.4347  -44.0178  -31.0285 C.ar    1  UNL1        0.0170
     46 C         -61.7175  -43.6437  -31.4685 C.ar    1  UNL1        0.0015
     47 C         -62.8702  -44.1841  -30.8563 C.ar    1  UNL1        0.0001
     48 C         -62.7510  -45.1049  -29.7995 C.ar    1  UNL1        0.0012
     49 C         -61.4660  -45.4567  -29.3854 C.ar    1  UNL1        0.0131
     50 H         -58.2415  -45.2085  -29.6866 H       1  UNL1        0.1660
@<TRIPOS>BOND
     1     1     2    2
     2     2     3   am
     3     3    29    1
     4    29    40    1
     5    40    41    1
     6    41    42   ar
     7    42    43   ar
     8    43    44   ar
     9    44    45   ar
    10    45    46   ar
    11    46    47   ar
    12    47    48   ar
    13    48    49   ar
    14    29    30    1
    15    30    31    2
    16    30    32   am
    17    32    34    1
    18    34    35   ar
    19    35    36   ar
    20    36    37   ar
    21    37    38   ar
    22    38    39   ar
    23     2     5    1
    24     5     6   ar
    25     6     7    1
    26     6     8   ar
    27     8     9   ar
    28     9    12    1
    29    12    13    1
    30    13    14    1
    31    14    15    1
    32    15    18    1
    33    18    19   ar
    34    19    20   ar
    35    20    21   ar
    36    21    22    1
    37    21    23   ar
    38    23    24    1
    39    23    25   ar
    40    15    16    1
    41    16    17    1
    42     9    10   ar
    43    10    11   ar
    44    11    26    1
    45    26    27    1
    46    49    41   ar
    47    39    34   ar
    48    11     5   ar
    49    49    44   ar
    50    17    12    1
    51    25    18   ar
    52     3     4    1
    53    43    50    1
    54    32    33    1
    55    27    28    1
@<TRIPOS>MOLECULE
*****
 50 55 0 0 0
SMALL
GASTEIGER

@<TRIPOS>ATOM
      1 O         -59.9186  -46.0092  -23.9062 O.2     1  UNL1       -0.2701
      2 C         -61.0686  -45.5564  -24.1582 C.2     1  UNL1        0.2481
      3 N         -61.8915  -46.1913  -25.1478 N.am    1  UNL1       -0.2945
      4 H         -62.8973  -45.9132  -25.2137 H       1  UNL1        0.1501
      5 C         -61.5730  -44.3920  -23.4003 C.ar    1  UNL1        0.0792
      6 C         -61.6456  -43.1481  -24.0507 C.ar    1  UNL1        0.1454
      7 F         -61.2768  -43.0274  -25.3522 F       1  UNL1       -0.2040
      8 C         -62.0575  -42.0085  -23.3598 C.ar    1  UNL1        0.0443
      9 C         -62.4036  -42.0799  -22.0024 C.ar    1  UNL1        0.0500
     10 C         -62.3491  -43.3241  -21.3531 C.ar    1  UNL1        0.0129
     11 C         -61.9715  -44.4919  -22.0418 C.ar    1  UNL1        0.0147
     12 N         -62.8050  -40.8927  -21.2821 N.pl3   1  UNL1       -0.3040
     13 C         -61.8317  -39.8229  -21.0185 C.3     1  UNL1        0.1122
     14 C         -62.5266  -38.4596  -20.9490 C.3     1  UNL1        0.1122
     15 N         -63.6709  -38.4822  -20.0243 N.pl3   1  UNL1       -0.3040
     16 C         -64.2484  -39.7671  -19.6033 C.3     1  UNL1        0.1122
     17 C         -64.1673  -40.7971  -20.7343 C.3     1  UNL1        0.1122
     18 C         -64.1669  -37.2443  -19.4670 C.ar    1  UNL1        0.0488
     19 C         -63.3426  -36.4401  -18.6587 C.ar    1  UNL1        0.0154
     20 C         -63.8234  -35.2423  -18.1246 C.ar    1  UNL1        0.0135
     21 C         -65.1316  -34.8261  -18.3877 C.ar    1  UNL1        0.0683
     22 CL        -65.6996  -33.3119  -17.6972 Cl      1  UNL1       -0.0814
     23 C         -65.9648  -35.6174  -19.1946 C.ar    1  UNL1        0.0694
     24 CL        -67.6177  -35.1319  -19.5484 Cl      1  UNL1       -0.0813
     25 C         -65.4819  -36.8173  -19.7299 C.ar    1  UNL1        0.0268
     26 C         -61.9782  -45.8097  -21.2946 C.3     1  UNL1        0.1639
     27 O         -60.6698  -46.2915  -21.1274 O.3     1  UNL1       -0.3772
     28 H         -60.5324  -47.0091  -21.7995 H       1  UNL1        0.2109
     29 C         -61.3641  -47.2248  -26.0446 C.3     1  UNL1        0.1535
     30 C         -61.6866  -48.5890  -25.4999 C.2     1  UNL1        0.2443
     31 O         -62.7461  -49.1699  -25.8629 O.2     1  UNL1       -0.2730
     32 N         -60.7492  -49.2558  -24.6404 N.am    1  UNL1       -0.2825
     33 H         -59.7629  -48.9091  -24.6332 H       1  UNL1        0.1549
     34 C         -61.0607  -50.4251  -23.8642 C.ar    1  UNL1        0.0535
     35 C         -60.0251  -51.2750  -23.4522 C.ar    1  UNL1        0.0353
     36 C         -60.3201  -52.3998  -22.6780 C.ar    1  UNL1        0.1002
     37 N         -61.6034  -52.6589  -22.3128 N.ar    1  UNL1       -0.2422
     38 C         -62.6265  -51.8430  -22.6803 C.ar    1  UNL1        0.1002
     39 C         -62.3754  -50.7081  -23.4556 C.ar    1  UNL1        0.0353
     40 C         -61.9428  -47.0788  -27.4635 C.3     1  UNL1        0.0569
     41 C         -61.0225  -46.2954  -28.3554 C.ar    1  UNL1       -0.0017
     42 C         -59.6327  -46.3647  -28.3753 C.ar    1  UNL1        0.0681
     43 N         -59.1347  -45.5839  -29.3609 N.ar    1  UNL1       -0.3523
     44 C         -60.1976  -45.0265  -29.9660 C.ar    1  UNL1        0.0563
     45 C         -60.1894  -44.1591  -31.0573 C.ar    1  UNL1        0.0170
     46 C         -61.4281  -43.7047  -31.5453 C.ar    1  UNL1        0.0015
     47 C         -62.6336  -44.1238  -30.9396 C.ar    1  UNL1        0.0001
     48 C         -62.6116  -45.0024  -29.8412 C.ar    1  UNL1        0.0012
     49 C         -61.3683  -45.4358  -29.3799 C.ar    1  UNL1        0.0131
     50 H         -58.1285  -45.4579  -29.6102 H       1  UNL1        0.1660
@<TRIPOS>BOND
     1     1     2    2
     2     2     3   am
     3     3    29    1
     4    29    40    1
     5    40    41    1
     6    41    42   ar
     7    42    43   ar
     8    43    44   ar
     9    44    45   ar
    10    45    46   ar
    11    46    47   ar
    12    47    48   ar
    13    48    49   ar
    14    29    30    1
    15    30    31    2
    16    30    32   am
    17    32    34    1
    18    34    35   ar
    19    35    36   ar
    20    36    37   ar
    21    37    38   ar
    22    38    39   ar
    23     2     5    1
    24     5     6   ar
    25     6     7    1
    26     6     8   ar
    27     8     9   ar
    28     9    12    1
    29    12    13    1
    30    13    14    1
    31    14    15    1
    32    15    18    1
    33    18    19   ar
    34    19    20   ar
    35    20    21   ar
    36    21    22    1
    37    21    23   ar
    38    23    24    1
    39    23    25   ar
    40    15    16    1
    41    16    17    1
    42     9    10   ar
    43    10    11   ar
    44    11    26    1
    45    26    27    1
    46    49    41   ar
    47    39    34   ar
    48    11     5   ar
    49    49    44   ar
    50    17    12    1
    51    25    18   ar
    52     3     4    1
    53    43    50    1
    54    32    33    1
    55    27    28    1
@<TRIPOS>MOLECULE
*****
 50 55 0 0 0
SMALL
GASTEIGER

@<TRIPOS>ATOM
      1 O         -60.4064  -46.4625  -24.1721 O.2     1  UNL1       -0.2701
      2 C         -61.4840  -45.8529  -24.4135 C.2     1  UNL1        0.2481
      3 N         -62.4182  -46.3898  -25.3615 N.am    1  UNL1       -0.2945
      4 H         -63.3736  -45.9684  -25.4142 H       1  UNL1        0.1501
      5 C         -61.7910  -44.6039  -23.6851 C.ar    1  UNL1        0.0792
      6 C         -61.9492  -44.6622  -22.2897 C.ar    1  UNL1        0.1454
      7 F         -61.8040  -45.8389  -21.6273 F       1  UNL1       -0.2040
      8 C         -62.2988  -43.5219  -21.5665 C.ar    1  UNL1        0.0443
      9 C         -62.5033  -42.2960  -22.2168 C.ar    1  UNL1        0.0500
     10 C         -62.3293  -42.2295  -23.6089 C.ar    1  UNL1        0.0129
     11 C         -61.9410  -43.3600  -24.3517 C.ar    1  UNL1        0.0147
     12 N         -62.8911  -41.1219  -21.4683 N.pl3   1  UNL1       -0.3040
     13 C         -61.8730  -40.1612  -21.0191 C.3     1  UNL1        0.1122
     14 C         -62.4568  -38.7474  -20.9376 C.3     1  UNL1        0.1122
     15 N         -63.7039  -38.7213  -20.1572 N.pl3   1  UNL1       -0.3040
     16 C         -64.4324  -39.9716  -19.8967 C.3     1  UNL1        0.1122
     17 C         -64.2978  -40.9365  -21.0788 C.3     1  UNL1        0.1122
     18 C         -64.1612  -37.4786  -19.5778 C.ar    1  UNL1        0.0488
     19 C         -63.3108  -36.7128  -18.7594 C.ar    1  UNL1        0.0154
     20 C         -63.7541  -35.5102  -18.2038 C.ar    1  UNL1        0.0135
     21 C         -65.0503  -35.0512  -18.4552 C.ar    1  UNL1        0.0683
     22 CL        -65.5709  -33.5325  -17.7377 Cl      1  UNL1       -0.0814
     23 C         -65.9092  -35.8040  -19.2720 C.ar    1  UNL1        0.0694
     24 CL        -67.5480  -35.2639  -19.6117 Cl      1  UNL1       -0.0813
     25 C         -65.4638  -37.0086  -19.8288 C.ar    1  UNL1        0.0268
     26 C         -61.7253  -43.2095  -25.8437 C.3     1  UNL1        0.1639
     27 O         -62.8647  -43.6220  -26.5534 O.3     1  UNL1       -0.3772
     28 H         -62.6749  -44.5273  -26.9139 H       1  UNL1        0.2109
     29 C         -62.0731  -47.5170  -26.2338 C.3     1  UNL1        0.1535
     30 C         -62.2528  -48.8127  -25.4917 C.2     1  UNL1        0.2443
     31 O         -63.3751  -49.3888  -25.5077 O.2     1  UNL1       -0.2730
     32 N         -61.1286  -49.4277  -24.8437 N.am    1  UNL1       -0.2825
     33 H         -60.1720  -49.1153  -25.1273 H       1  UNL1        0.1549
     34 C         -61.2356  -50.5082  -23.9014 C.ar    1  UNL1        0.0535
     35 C         -62.5008  -50.9004  -23.4433 C.ar    1  UNL1        0.0353
     36 C         -62.6119  -51.9649  -22.5456 C.ar    1  UNL1        0.1002
     37 N         -61.4993  -52.6271  -22.1318 N.ar    1  UNL1       -0.2422
     38 C         -60.2608  -52.2829  -22.5734 C.ar    1  UNL1        0.1002
     39 C         -60.1049  -51.2234  -23.4708 C.ar    1  UNL1        0.0353
     40 C         -62.9373  -47.5203  -27.5075 C.3     1  UNL1        0.0569
     41 C         -62.5676  -46.3913  -28.4266 C.ar    1  UNL1       -0.0017
     42 C         -61.2793  -45.9940  -28.7721 C.ar    1  UNL1        0.0681
     43 N         -61.3211  -44.9980  -29.6860 N.ar    1  UNL1       -0.3523
     44 C         -62.6237  -44.7666  -29.9239 C.ar    1  UNL1        0.0563
     45 C         -63.1684  -43.8409  -30.8125 C.ar    1  UNL1        0.0170
     46 C         -64.5698  -43.7761  -30.9173 C.ar    1  UNL1        0.0015
     47 C         -65.3860  -44.6291  -30.1415 C.ar    1  UNL1        0.0001
     48 C         -64.8083  -45.5559  -29.2548 C.ar    1  UNL1        0.0012
     49 C         -63.4162  -45.5969  -29.1729 C.ar    1  UNL1        0.0131
     50 H         -60.5043  -44.5216  -30.1290 H       1  UNL1        0.1660
@<TRIPOS>BOND
     1     1     2    2
     2     2     3   am
     3     3    29    1
     4    29    40    1
     5    40    41    1
     6    41    42   ar
     7    42    43   ar
     8    43    44   ar
     9    44    45   ar
    10    45    46   ar
    11    46    47   ar
    12    47    48   ar
    13    48    49   ar
    14    29    30    1
    15    30    31    2
    16    30    32   am
    17    32    34    1
    18    34    35   ar
    19    35    36   ar
    20    36    37   ar
    21    37    38   ar
    22    38    39   ar
    23     2     5    1
    24     5     6   ar
    25     6     7    1
    26     6     8   ar
    27     8     9   ar
    28     9    12    1
    29    12    13    1
    30    13    14    1
    31    14    15    1
    32    15    18    1
    33    18    19   ar
    34    19    20   ar
    35    20    21   ar
    36    21    22    1
    37    21    23   ar
    38    23    24    1
    39    23    25   ar
    40    15    16    1
    41    16    17    1
    42     9    10   ar
    43    10    11   ar
    44    11    26    1
    45    26    27    1
    46    49    41   ar
    47    39    34   ar
    48    11     5   ar
    49    49    44   ar
    50    17    12    1
    51    25    18   ar
    52     3     4    1
    53    43    50    1
    54    32    33    1
    55    27    28    1
@<TRIPOS>MOLECULE
*****
 50 55 0 0 0
SMALL
GASTEIGER

@<TRIPOS>ATOM
      1 O         -60.5298  -46.1459  -24.7890 O.2     1  UNL1       -0.2701
      2 C         -60.7740  -44.9890  -25.2283 C.2     1  UNL1        0.2481
      3 N         -60.6024  -44.6973  -26.6230 N.am    1  UNL1       -0.2945
      4 H         -60.9766  -43.7941  -26.9937 H       1  UNL1        0.1501
      5 C         -61.2726  -43.9505  -24.3022 C.ar    1  UNL1        0.0792
      6 C         -62.4416  -43.2498  -24.6460 C.ar    1  UNL1        0.1454
      7 F         -63.1051  -43.5368  -25.7957 F       1  UNL1       -0.2040
      8 C         -62.9169  -42.2200  -23.8341 C.ar    1  UNL1        0.0443
      9 C         -62.2366  -41.8605  -22.6613 C.ar    1  UNL1        0.0500
     10 C         -61.0778  -42.5697  -22.3050 C.ar    1  UNL1        0.0129
     11 C         -60.6027  -43.6357  -23.0913 C.ar    1  UNL1        0.0147
     12 N         -62.7167  -40.7757  -21.8355 N.pl3   1  UNL1       -0.3040
     13 C         -61.7774  -40.0026  -21.0100 C.3     1  UNL1        0.1122
     14 C         -62.2693  -38.5634  -20.8285 C.3     1  UNL1        0.1122
     15 N         -63.6642  -38.5234  -20.3618 N.pl3   1  UNL1       -0.3040
     16 C         -64.5146  -39.7160  -20.4889 C.3     1  UNL1        0.1122
     17 C         -64.1606  -40.5049  -21.7534 C.3     1  UNL1        0.1122
     18 C         -64.1659  -37.3390  -19.7026 C.ar    1  UNL1        0.0488
     19 C         -63.3402  -36.5927  -18.8418 C.ar    1  UNL1        0.0154
     20 C         -63.8265  -35.4463  -18.2090 C.ar    1  UNL1        0.0135
     21 C         -65.1418  -35.0247  -18.4240 C.ar    1  UNL1        0.0683
     22 CL        -65.7166  -33.5764  -17.6091 Cl      1  UNL1       -0.0814
     23 C         -65.9765  -35.7584  -19.2821 C.ar    1  UNL1        0.0694
     24 CL        -67.6381  -35.2642  -19.5783 Cl      1  UNL1       -0.0813
     25 C         -65.4880  -36.9067  -19.9164 C.ar    1  UNL1        0.0268
     26 C         -59.3735  -44.3894  -22.6262 C.3     1  UNL1        0.1639
     27 O         -59.7316  -45.6319  -22.0786 O.3     1  UNL1       -0.3772
     28 H         -59.6896  -45.5412  -21.0909 H       1  UNL1        0.2109
     29 C         -59.9398  -45.6366  -27.5336 C.3     1  UNL1        0.1535
     30 C         -60.9066  -46.7077  -27.9574 C.2     1  UNL1        0.2443
     31 O         -60.4964  -47.8905  -28.1134 O.2     1  UNL1       -0.2730
     32 N         -62.3015  -46.3970  -28.0981 N.am    1  UNL1       -0.2825
     33 H         -62.6540  -45.5230  -27.6453 H       1  UNL1        0.1549
     34 C         -63.2566  -47.2587  -28.7402 C.ar    1  UNL1        0.0535
     35 C         -63.9477  -46.8005  -29.8702 C.ar    1  UNL1        0.0353
     36 C         -64.8595  -47.6423  -30.5117 C.ar    1  UNL1        0.1002
     37 N         -65.0626  -48.9049  -30.0513 N.ar    1  UNL1       -0.2422
     38 C         -64.3932  -49.3844  -28.9699 C.ar    1  UNL1        0.1002
     39 C         -63.4732  -48.5752  -28.2984 C.ar    1  UNL1        0.0353
     40 C         -59.3858  -44.9126  -28.7738 C.3     1  UNL1        0.0569
     41 C         -60.4865  -44.2951  -29.5883 C.ar    1  UNL1       -0.0017
     42 C         -61.6488  -43.7075  -29.0976 C.ar    1  UNL1        0.0681
     43 N         -62.3753  -43.1806  -30.1093 N.ar    1  UNL1       -0.3523
     44 C         -61.6798  -43.4260  -31.2330 C.ar    1  UNL1        0.0563
     45 C         -62.0173  -43.0535  -32.5333 C.ar    1  UNL1        0.0170
     46 C         -61.1298  -43.4011  -33.5681 C.ar    1  UNL1        0.0015
     47 C         -59.9380  -44.1038  -33.2831 C.ar    1  UNL1        0.0001
     48 C         -59.6216  -44.4642  -31.9606 C.ar    1  UNL1        0.0012
     49 C         -60.5209  -44.1056  -30.9561 C.ar    1  UNL1        0.0131
     50 H         -63.2825  -42.6702  -30.0272 H       1  UNL1        0.1660
@<TRIPOS>BOND
     1     1     2    2
     2     2     3   am
     3     3    29    1
     4    29    40    1
     5    40    41    1
     6    41    42   ar
     7    42    43   ar
     8    43    44   ar
     9    44    45   ar
    10    45    46   ar
    11    46    47   ar
    12    47    48   ar
    13    48    49   ar
    14    29    30    1
    15    30    31    2
    16    30    32   am
    17    32    34    1
    18    34    35   ar
    19    35    36   ar
    20    36    37   ar
    21    37    38   ar
    22    38    39   ar
    23     2     5    1
    24     5     6   ar
    25     6     7    1
    26     6     8   ar
    27     8     9   ar
    28     9    12    1
    29    12    13    1
    30    13    14    1
    31    14    15    1
    32    15    18    1
    33    18    19   ar
    34    19    20   ar
    35    20    21   ar
    36    21    22    1
    37    21    23   ar
    38    23    24    1
    39    23    25   ar
    40    15    16    1
    41    16    17    1
    42     9    10   ar
    43    10    11   ar
    44    11    26    1
    45    26    27    1
    46    49    41   ar
    47    39    34   ar
    48    11     5   ar
    49    49    44   ar
    50    17    12    1
    51    25    18   ar
    52     3     4    1
    53    43    50    1
    54    32    33    1
    55    27    28    1
@<TRIPOS>MOLECULE
*****
 50 55 0 0 0
SMALL
GASTEIGER

@<TRIPOS>ATOM
      1 O         -61.0123  -41.1154  -20.0403 O.2     1  UNL1       -0.2701
      2 C         -62.0853  -41.0561  -20.7008 C.2     1  UNL1        0.2481
      3 N         -63.2814  -40.5529  -20.0878 N.am    1  UNL1       -0.2945
      4 H         -64.1058  -40.3469  -20.6970 H       1  UNL1        0.1501
      5 C         -62.0895  -41.4738  -22.1187 C.ar    1  UNL1        0.0792
      6 C         -60.9075  -42.0012  -22.6666 C.ar    1  UNL1        0.1454
      7 F         -59.7939  -42.1393  -21.9015 F       1  UNL1       -0.2040
      8 C         -60.8450  -42.3526  -24.0150 C.ar    1  UNL1        0.0443
      9 C         -61.9581  -42.1834  -24.8516 C.ar    1  UNL1        0.0500
     10 C         -63.1466  -41.6729  -24.3042 C.ar    1  UNL1        0.0129
     11 C         -63.2411  -41.3469  -22.9385 C.ar    1  UNL1        0.0147
     12 N         -61.8826  -42.5238  -26.2543 N.pl3   1  UNL1       -0.3040
     13 C         -63.1054  -42.5810  -27.0686 C.3     1  UNL1        0.1122
     14 C         -62.8052  -42.2235  -28.5275 C.3     1  UNL1        0.1122
     15 N         -61.6834  -43.0140  -29.0584 N.pl3   1  UNL1       -0.3040
     16 C         -60.7727  -43.7067  -28.1351 C.3     1  UNL1        0.1122
     17 C         -60.5890  -42.9014  -26.8450 C.3     1  UNL1        0.1122
     18 C         -61.5332  -43.1759  -30.4867 C.ar    1  UNL1        0.0488
     19 C         -62.5237  -42.7086  -31.3699 C.ar    1  UNL1        0.0154
     20 C         -62.3740  -42.8630  -32.7502 C.ar    1  UNL1        0.0135
     21 C         -61.2358  -43.4841  -33.2723 C.ar    1  UNL1        0.0683
     22 CL        -61.0843  -43.6594  -35.0155 Cl      1  UNL1       -0.0814
     23 C         -60.2381  -43.9533  -32.4029 C.ar    1  UNL1        0.0694
     24 CL        -58.7918  -44.7424  -33.0180 Cl      1  UNL1       -0.0813
     25 C         -60.3886  -43.7975  -31.0200 C.ar    1  UNL1        0.0268
     26 C         -64.5658  -40.8446  -22.4019 C.3     1  UNL1        0.1639
     27 O         -64.5275  -39.4542  -22.2089 O.3     1  UNL1       -0.3772
     28 H         -64.4074  -39.2953  -21.2364 H       1  UNL1        0.2109
     29 C         -63.3651  -40.3044  -18.6449 C.3     1  UNL1        0.1535
     30 C         -64.1589  -39.0537  -18.3857 C.2     1  UNL1        0.2443
     31 O         -65.1309  -39.0886  -17.5821 O.2     1  UNL1       -0.2730
     32 N         -63.7552  -37.8131  -18.9856 N.am    1  UNL1       -0.2825
     33 H         -62.7806  -37.7467  -19.3583 H       1  UNL1        0.1549
     34 C         -64.5744  -36.6322  -19.0199 C.ar    1  UNL1        0.0535
     35 C         -65.7793  -36.6498  -19.7357 C.ar    1  UNL1        0.0353
     36 C         -66.5903  -35.5124  -19.7529 C.ar    1  UNL1        0.1002
     37 N         -66.2198  -34.4003  -19.0649 N.ar    1  UNL1       -0.2422
     38 C         -65.0672  -34.3593  -18.3458 C.ar    1  UNL1        0.1002
     39 C         -64.2266  -35.4745  -18.3029 C.ar    1  UNL1        0.0353
     40 C         -64.0104  -41.4940  -17.9117 C.3     1  UNL1        0.0569
     41 C         -64.8234  -42.3422  -18.8475 C.ar    1  UNL1       -0.0017
     42 C         -66.1783  -42.1963  -19.1303 C.ar    1  UNL1        0.0681
     43 N         -66.5604  -43.0796  -20.0805 N.ar    1  UNL1       -0.3523
     44 C         -65.4582  -43.7780  -20.4032 C.ar    1  UNL1        0.0563
     45 C         -65.3486  -44.7902  -21.3555 C.ar    1  UNL1        0.0170
     46 C         -64.0856  -45.3802  -21.5453 C.ar    1  UNL1        0.0015
     47 C         -62.9731  -44.9493  -20.7888 C.ar    1  UNL1        0.0001
     48 C         -63.1128  -43.9233  -19.8366 C.ar    1  UNL1        0.0012
     49 C         -64.3772  -43.3576  -19.6710 C.ar    1  UNL1        0.0131
     50 H         -67.5150  -43.1815  -20.4912 H       1  UNL1        0.1660
@<TRIPOS>BOND
     1     1     2    2
     2     2     3   am
     3     3    29    1
     4    29    40    1
     5    40    41    1
     6    41    42   ar
     7    42    43   ar
     8    43    44   ar
     9    44    45   ar
    10    45    46   ar
    11    46    47   ar
    12    47    48   ar
    13    48    49   ar
    14    29    30    1
    15    30    31    2
    16    30    32   am
    17    32    34    1
    18    34    35   ar
    19    35    36   ar
    20    36    37   ar
    21    37    38   ar
    22    38    39   ar
    23     2     5    1
    24     5     6   ar
    25     6     7    1
    26     6     8   ar
    27     8     9   ar
    28     9    12    1
    29    12    13    1
    30    13    14    1
    31    14    15    1
    32    15    18    1
    33    18    19   ar
    34    19    20   ar
    35    20    21   ar
    36    21    22    1
    37    21    23   ar
    38    23    24    1
    39    23    25   ar
    40    15    16    1
    41    16    17    1
    42     9    10   ar
    43    10    11   ar
    44    11    26    1
    45    26    27    1
    46    49    41   ar
    47    39    34   ar
    48    11     5   ar
    49    49    44   ar
    50    17    12    1
    51    25    18   ar
    52     3     4    1
    53    43    50    1
    54    32    33    1
    55    27    28    1
@<TRIPOS>MOLECULE
*****
 50 55 0 0 0
SMALL
GASTEIGER

@<TRIPOS>ATOM
      1 O         -60.4429  -45.9025  -25.0005 O.2     1  UNL1       -0.2701
      2 C         -61.6319  -45.4842  -24.9527 C.2     1  UNL1        0.2481
      3 N         -62.6750  -46.2009  -25.6293 N.am    1  UNL1       -0.2945
      4 H         -63.6684  -45.9412  -25.4316 H       1  UNL1        0.1501
      5 C         -61.9450  -44.2734  -24.1648 C.ar    1  UNL1        0.0792
      6 C         -61.9523  -44.3685  -22.7625 C.ar    1  UNL1        0.1454
      7 F         -61.6595  -45.5442  -22.1490 F       1  UNL1       -0.2040
      8 C         -62.3010  -43.2690  -21.9780 C.ar    1  UNL1        0.0443
      9 C         -62.6547  -42.0486  -22.5722 C.ar    1  UNL1        0.0500
     10 C         -62.6318  -41.9443  -23.9727 C.ar    1  UNL1        0.0129
     11 C         -62.2476  -43.0309  -24.7802 C.ar    1  UNL1        0.0147
     12 N         -63.0408  -40.9186  -21.7579 N.pl3   1  UNL1       -0.3040
     13 C         -62.0157  -40.1012  -21.0928 C.3     1  UNL1        0.1122
     14 C         -62.4910  -38.6536  -20.9357 C.3     1  UNL1        0.1122
     15 N         -63.8219  -38.5859  -20.3117 N.pl3   1  UNL1       -0.3040
     16 C         -64.6746  -39.7830  -20.2713 C.3     1  UNL1        0.1122
     17 C         -64.4667  -40.6420  -21.5225 C.3     1  UNL1        0.1122
     18 C         -64.2496  -37.3658  -19.6656 C.ar    1  UNL1        0.0488
     19 C         -63.3690  -36.6457  -18.8376 C.ar    1  UNL1        0.0154
     20 C         -63.7838  -35.4648  -18.2174 C.ar    1  UNL1        0.0135
     21 C         -65.0811  -34.9822  -18.4127 C.ar    1  UNL1        0.0683
     22 CL        -65.5653  -33.4919  -17.6146 Cl      1  UNL1       -0.0814
     23 C         -65.9700  -35.6893  -19.2381 C.ar    1  UNL1        0.0694
     24 CL        -67.6113  -35.1184  -19.5086 Cl      1  UNL1       -0.0813
     25 C         -65.5531  -36.8722  -19.8597 C.ar    1  UNL1        0.0268
     26 C         -62.1995  -42.8380  -26.2821 C.3     1  UNL1        0.1639
     27 O         -63.1861  -43.6127  -26.9132 O.3     1  UNL1       -0.3772
     28 H         -62.7344  -44.4097  -27.2958 H       1  UNL1        0.2109
     29 C         -62.3825  -47.2910  -26.5656 C.3     1  UNL1        0.1535
     30 C         -61.7688  -46.7368  -27.8217 C.2     1  UNL1        0.2443
     31 O         -60.6470  -47.1654  -28.2081 O.2     1  UNL1       -0.2730
     32 N         -62.4987  -45.7893  -28.6165 N.am    1  UNL1       -0.2825
     33 H         -63.5298  -45.7147  -28.4606 H       1  UNL1        0.1549
     34 C         -61.9162  -45.0087  -29.6739 C.ar    1  UNL1        0.0535
     35 C         -60.5221  -44.9685  -29.8133 C.ar    1  UNL1        0.0353
     36 C         -59.9520  -44.2303  -30.8532 C.ar    1  UNL1        0.1002
     37 N         -60.7467  -43.5681  -31.7349 N.ar    1  UNL1       -0.2422
     38 C         -62.1019  -43.6040  -31.6375 C.ar    1  UNL1        0.1002
     39 C         -62.7129  -44.3294  -30.6116 C.ar    1  UNL1        0.0353
     40 C         -61.4354  -48.3275  -25.9348 C.3     1  UNL1        0.0569
     41 C         -62.1744  -49.2668  -25.0250 C.ar    1  UNL1       -0.0017
     42 C         -63.5547  -49.4248  -24.9437 C.ar    1  UNL1        0.0681
     43 N         -63.8667  -50.4163  -24.0785 N.ar    1  UNL1       -0.3523
     44 C         -62.6959  -50.8886  -23.6170 C.ar    1  UNL1        0.0563
     45 C         -62.5037  -51.9335  -22.7145 C.ar    1  UNL1        0.0170
     46 C         -61.1815  -52.2771  -22.3785 C.ar    1  UNL1        0.0015
     47 C         -60.0936  -51.5776  -22.9465 C.ar    1  UNL1        0.0001
     48 C         -60.3176  -50.5290  -23.8571 C.ar    1  UNL1        0.0012
     49 C         -61.6394  -50.2114  -24.1708 C.ar    1  UNL1        0.0131
     50 H         -64.8239  -50.7559  -23.8361 H       1  UNL1        0.1660
@<TRIPOS>BOND
     1     1     2    2
     2     2     3   am
     3     3    29    1
     4    29    40    1
     5    40    41    1
     6    41    42   ar
     7    42    43   ar
     8    43    44   ar
     9    44    45   ar
    10    45    46   ar
    11    46    47   ar
    12    47    48   ar
    13    48    49   ar
    14    29    30    1
    15    30    31    2
    16    30    32   am
    17    32    34    1
    18    34    35   ar
    19    35    36   ar
    20    36    37   ar
    21    37    38   ar
    22    38    39   ar
    23     2     5    1
    24     5     6   ar
    25     6     7    1
    26     6     8   ar
    27     8     9   ar
    28     9    12    1
    29    12    13    1
    30    13    14    1
    31    14    15    1
    32    15    18    1
    33    18    19   ar
    34    19    20   ar
    35    20    21   ar
    36    21    22    1
    37    21    23   ar
    38    23    24    1
    39    23    25   ar
    40    15    16    1
    41    16    17    1
    42     9    10   ar
    43    10    11   ar
    44    11    26    1
    45    26    27    1
    46    49    41   ar
    47    39    34   ar
    48    11     5   ar
    49    49    44   ar
    50    17    12    1
    51    25    18   ar
    52     3     4    1
    53    43    50    1
    54    32    33    1
    55    27    28    1
@<TRIPOS>MOLECULE
*****
 50 55 0 0 0
SMALL
GASTEIGER

@<TRIPOS>ATOM
      1 O         -63.1280  -45.5317  -26.1958 O.2     1  UNL1       -0.2701
      2 C         -62.2750  -44.6542  -25.8904 C.2     1  UNL1        0.2481
      3 N         -61.0043  -44.6225  -26.5566 N.am    1  UNL1       -0.2945
      4 H         -60.3885  -43.7891  -26.4176 H       1  UNL1        0.1501
      5 C         -62.6103  -43.6395  -24.8692 C.ar    1  UNL1        0.0792
      6 C         -63.3160  -42.4918  -25.2699 C.ar    1  UNL1        0.1454
      7 F         -63.6956  -42.3318  -26.5640 F       1  UNL1       -0.2040
      8 C         -63.6022  -41.4787  -24.3548 C.ar    1  UNL1        0.0443
      9 C         -63.1885  -41.5827  -23.0185 C.ar    1  UNL1        0.0500
     10 C         -62.4982  -42.7357  -22.6101 C.ar    1  UNL1        0.0129
     11 C         -62.2320  -43.7851  -23.5091 C.ar    1  UNL1        0.0147
     12 N         -63.4634  -40.5197  -22.0785 N.pl3   1  UNL1       -0.3040
     13 C         -62.3615  -39.8686  -21.3550 C.3     1  UNL1        0.1122
     14 C         -62.7080  -38.4119  -21.0320 C.3     1  UNL1        0.1122
     15 N         -64.0184  -38.3011  -20.3719 N.pl3   1  UNL1       -0.3040
     16 C         -64.9703  -39.4196  -20.4391 C.3     1  UNL1        0.1122
     17 C         -64.8564  -40.1517  -21.7798 C.3     1  UNL1        0.1122
     18 C         -64.3294  -37.1271  -19.5883 C.ar    1  UNL1        0.0488
     19 C         -63.3864  -36.5926  -18.6913 C.ar    1  UNL1        0.0154
     20 C         -63.6883  -35.4556  -17.9381 C.ar    1  UNL1        0.0135
     21 C         -64.9330  -34.8327  -18.0670 C.ar    1  UNL1        0.0683
     22 CL        -65.2749  -33.4033  -17.1015 Cl      1  UNL1       -0.0814
     23 C         -65.8831  -35.3538  -18.9599 C.ar    1  UNL1        0.0694
     24 CL        -67.4616  -34.6023  -19.1508 Cl      1  UNL1       -0.0813
     25 C         -65.5793  -36.4928  -19.7148 C.ar    1  UNL1        0.0268
     26 C         -61.5242  -45.0212  -22.9932 C.3     1  UNL1        0.1639
     27 O         -60.2614  -45.1558  -23.5925 O.3     1  UNL1       -0.3772
     28 H         -60.3419  -45.8530  -24.2948 H       1  UNL1        0.2109
     29 C         -60.5642  -45.7116  -27.4346 C.3     1  UNL1        0.1535
     30 C         -60.8481  -47.0387  -26.7865 C.2     1  UNL1        0.2443
     31 O         -61.1321  -48.0351  -27.5064 O.2     1  UNL1       -0.2730
     32 N         -60.7110  -47.1840  -25.3645 N.am    1  UNL1       -0.2825
     33 H         -60.1608  -46.4580  -24.8515 H       1  UNL1        0.1549
     34 C         -61.2018  -48.3119  -24.6204 C.ar    1  UNL1        0.0535
     35 C         -60.4539  -48.8045  -23.5421 C.ar    1  UNL1        0.0353
     36 C         -60.9377  -49.8856  -22.8014 C.ar    1  UNL1        0.1002
     37 N         -62.1358  -50.4457  -23.1152 N.ar    1  UNL1       -0.2422
     38 C         -62.8929  -49.9778  -24.1424 C.ar    1  UNL1        0.1002
     39 C         -62.4455  -48.8992  -24.9096 C.ar    1  UNL1        0.0353
     40 C         -61.2627  -45.6392  -28.8044 C.3     1  UNL1        0.0569
     41 C         -60.2866  -45.3353  -29.9048 C.ar    1  UNL1       -0.0017
     42 C         -58.9744  -45.7902  -29.9955 C.ar    1  UNL1        0.0681
     43 N         -58.4151  -45.3901  -31.1601 N.ar    1  UNL1       -0.3523
     44 C         -59.3637  -44.6913  -31.8069 C.ar    1  UNL1        0.0563
     45 C         -59.2643  -44.0948  -33.0630 C.ar    1  UNL1        0.0170
     46 C         -60.3939  -43.4208  -33.5620 C.ar    1  UNL1        0.0015
     47 C         -61.5842  -43.3599  -32.8037 C.ar    1  UNL1        0.0001
     48 C         -61.6566  -43.9738  -31.5400 C.ar    1  UNL1        0.0012
     49 C         -60.5206  -44.6347  -31.0721 C.ar    1  UNL1        0.0131
     50 H         -57.4482  -45.6005  -31.4936 H       1  UNL1        0.1660
@<TRIPOS>BOND
     1     1     2    2
     2     2     3   am
     3     3    29    1
     4    29    40    1
     5    40    41    1
     6    41    42   ar
     7    42    43   ar
     8    43    44   ar
     9    44    45   ar
    10    45    46   ar
    11    46    47   ar
    12    47    48   ar
    13    48    49   ar
    14    29    30    1
    15    30    31    2
    16    30    32   am
    17    32    34    1
    18    34    35   ar
    19    35    36   ar
    20    36    37   ar
    21    37    38   ar
    22    38    39   ar
    23     2     5    1
    24     5     6   ar
    25     6     7    1
    26     6     8   ar
    27     8     9   ar
    28     9    12    1
    29    12    13    1
    30    13    14    1
    31    14    15    1
    32    15    18    1
    33    18    19   ar
    34    19    20   ar
    35    20    21   ar
    36    21    22    1
    37    21    23   ar
    38    23    24    1
    39    23    25   ar
    40    15    16    1
    41    16    17    1
    42     9    10   ar
    43    10    11   ar
    44    11    26    1
    45    26    27    1
    46    49    41   ar
    47    39    34   ar
    48    11     5   ar
    49    49    44   ar
    50    17    12    1
    51    25    18   ar
    52     3     4    1
    53    43    50    1
    54    32    33    1
    55    27    28    1
