@<TRIPOS>MOLECULE
*****
 36 40 0 0 0
SMALL
GASTEIGER

@<TRIPOS>ATOM
      1 C         -28.4619   48.1904   -8.3245 C.ar    1  UNL1        0.0727
      2 C         -29.1931   47.8016   -7.1775 C.ar    1  UNL1        0.0449
      3 I         -30.9356   46.6129   -7.3423 I       1  UNL1       -0.0412
      4 C         -28.7780   48.2265   -5.8931 C.ar    1  UNL1        0.0086
      5 C         -27.6376   49.0362   -5.7403 C.ar    1  UNL1        0.0191
      6 C         -26.9454   49.3991   -6.8921 C.ar    1  UNL1        0.0768
      7 N         -25.8402   50.1473   -6.9953 N.ar    1  UNL1       -0.3373
      8 C         -25.5850   50.1764   -8.3312 C.ar    1  UNL1        0.1406
      9 N         -26.4916   49.4721   -9.0626 N.ar    1  UNL1       -0.2258
     10 C         -27.3370   48.9967   -8.1316 C.ar    1  UNL1        0.1121
     11 H         -25.3126   50.5894   -6.2115 H       1  UNL1        0.1674
     12 N         -29.6588   46.9034  -12.2023 N.3     1  UNL1       -0.2647
     13 C         -29.1583   45.9197  -11.2166 C.3     1  UNL1        0.0941
     14 C         -28.2075   46.5939  -10.2257 C.3     1  UNL1        0.1082
     15 N         -28.8538   47.7670   -9.6371 N.pl3   1  UNL1       -0.3031
     16 C         -29.5104   48.7183  -10.5344 C.3     1  UNL1        0.1082
     17 C         -30.4169   47.9672  -11.5113 C.3     1  UNL1        0.0941
     18 C         -30.5193   46.2456  -13.2067 C.3     1  UNL1        0.1200
     19 N         -30.0744   47.0590  -16.7563 N.ar    1  UNL1       -0.3128
     20 C         -29.7463   48.1976  -16.1124 C.ar    1  UNL1        0.1780
     21 N         -29.8580   48.0892  -14.7717 N.ar    1  UNL1       -0.2273
     22 C         -30.2704   46.8204  -14.5717 C.ar    1  UNL1        0.0885
     23 C         -30.3806   46.1706  -15.7893 C.ar    1  UNL1        0.0537
     24 C         -30.8465   44.7617  -16.0176 C.3     1  UNL1        0.0514
     25 C         -28.8712   47.6386  -18.8134 C.3     1  UNL1        0.0265
     26 C         -30.0215   46.8464  -18.2031 C.3     1  UNL1        0.1073
     27 C         -24.4411   50.8918   -8.9531 C.ar    1  UNL1        0.0339
     28 C         -24.4971   51.2528  -10.3079 C.ar    1  UNL1        0.0027
     29 C         -23.4334   51.9258  -10.9125 C.ar    1  UNL1       -0.0042
     30 C         -22.2728   52.2638  -10.1844 C.ar    1  UNL1       -0.0228
     31 C         -22.2262   51.8967   -8.8200 C.ar    1  UNL1       -0.0042
     32 C         -23.2923   51.2230   -8.2169 C.ar    1  UNL1        0.0027
     33 C         -21.1197   53.0075  -10.8899 C.3     1  UNL1        0.0189
     34 C         -21.6695   53.7603  -12.1210 C.3     1  UNL1        0.0044
     35 C         -20.0527   51.9886  -11.3462 C.3     1  UNL1        0.0044
     36 C         -20.4193   54.0449   -9.9794 C.3     1  UNL1        0.0044
@<TRIPOS>BOND
     1    25    26    1
     2    26    19    1
     3    19    20   ar
     4    20    21   ar
     5    21    22   ar
     6    22    18    1
     7    18    12    1
     8    12    13    1
     9    13    14    1
    10    14    15    1
    11    15     1    1
    12     1     2   ar
    13     2     3    1
    14     2     4   ar
    15     4     5   ar
    16     5     6   ar
    17     6     7   ar
    18     7     8   ar
    19     8    27    1
    20    27    28   ar
    21    28    29   ar
    22    29    30   ar
    23    30    33    1
    24    33    34    1
    25    33    35    1
    26    33    36    1
    27    30    31   ar
    28    31    32   ar
    29     8     9   ar
    30     9    10   ar
    31    15    16    1
    32    16    17    1
    33    22    23   ar
    34    23    24    1
    35    23    19   ar
    36    17    12    1
    37    10     1   ar
    38    10     6   ar
    39    32    27   ar
    40     7    11    1
@<TRIPOS>MOLECULE
*****
 36 40 0 0 0
SMALL
GASTEIGER

@<TRIPOS>ATOM
      1 C         -28.6205   50.0379   -8.5079 C.ar    1  UNL1        0.0727
      2 C         -29.9004   50.0795   -9.1092 C.ar    1  UNL1        0.0449
      3 I         -31.5838   49.2195   -8.1590 I       1  UNL1       -0.0412
      4 C         -30.0693   50.6822  -10.3783 C.ar    1  UNL1        0.0086
      5 C         -28.9724   51.2465  -11.0551 C.ar    1  UNL1        0.0191
      6 C         -27.7293   51.1850  -10.4320 C.ar    1  UNL1        0.0768
      7 N         -26.5559   51.6553  -10.8723 N.ar    1  UNL1       -0.3373
      8 C         -25.6810   51.3419   -9.8789 C.ar    1  UNL1        0.1406
      9 N         -26.2686   50.6942   -8.8358 N.ar    1  UNL1       -0.2258
     10 C         -27.5562   50.6067   -9.2125 C.ar    1  UNL1        0.1121
     11 H         -26.3829   52.1509  -11.7738 H       1  UNL1        0.1674
     12 N         -27.9821   48.2702   -4.6876 N.3     1  UNL1       -0.2647
     13 C         -27.4685   47.6067   -5.9065 C.3     1  UNL1        0.0941
     14 C         -28.3200   47.9860   -7.1195 C.3     1  UNL1        0.1082
     15 N         -28.4217   49.4421   -7.2190 N.pl3   1  UNL1       -0.3031
     16 C         -28.7770   50.1946   -6.0153 C.3     1  UNL1        0.1082
     17 C         -27.9060   49.7378   -4.8436 C.3     1  UNL1        0.0941
     18 C         -27.2105   47.8513   -3.4997 C.3     1  UNL1        0.1200
     19 N         -29.5666   46.5698   -0.9966 N.ar    1  UNL1       -0.3128
     20 C         -29.2313   47.7933   -0.5393 C.ar    1  UNL1        0.1780
     21 N         -28.3504   48.4266   -1.3421 N.ar    1  UNL1       -0.2273
     22 C         -28.1310   47.5572   -2.3500 C.ar    1  UNL1        0.0885
     23 C         -28.8978   46.4206   -2.1579 C.ar    1  UNL1        0.0537
     24 C         -28.9214   45.1947   -3.0245 C.3     1  UNL1        0.0514
     25 C         -31.0981   46.2714    0.8958 C.3     1  UNL1        0.0265
     26 C         -30.5225   45.6538   -0.3733 C.3     1  UNL1        0.1073
     27 C         -24.2310   51.6643   -9.9029 C.ar    1  UNL1        0.0339
     28 C         -23.6325   52.0992  -11.0952 C.ar    1  UNL1        0.0027
     29 C         -22.2714   52.4078  -11.1402 C.ar    1  UNL1       -0.0042
     30 C         -21.4569   52.2934   -9.9935 C.ar    1  UNL1       -0.0228
     31 C         -22.0691   51.8554   -8.7969 C.ar    1  UNL1       -0.0042
     32 C         -23.4320   51.5470   -8.7544 C.ar    1  UNL1        0.0027
     33 C         -19.9572   52.6441  -10.0854 C.3     1  UNL1        0.0189
     34 C         -19.7930   54.1745  -10.2113 C.3     1  UNL1        0.0044
     35 C         -19.3431   51.9589  -11.3256 C.3     1  UNL1        0.0044
     36 C         -19.1494   52.1855   -8.8474 C.3     1  UNL1        0.0044
@<TRIPOS>BOND
     1    25    26    1
     2    26    19    1
     3    19    20   ar
     4    20    21   ar
     5    21    22   ar
     6    22    18    1
     7    18    12    1
     8    12    13    1
     9    13    14    1
    10    14    15    1
    11    15     1    1
    12     1     2   ar
    13     2     3    1
    14     2     4   ar
    15     4     5   ar
    16     5     6   ar
    17     6     7   ar
    18     7     8   ar
    19     8    27    1
    20    27    28   ar
    21    28    29   ar
    22    29    30   ar
    23    30    33    1
    24    33    34    1
    25    33    35    1
    26    33    36    1
    27    30    31   ar
    28    31    32   ar
    29     8     9   ar
    30     9    10   ar
    31    15    16    1
    32    16    17    1
    33    22    23   ar
    34    23    24    1
    35    23    19   ar
    36    17    12    1
    37    10     1   ar
    38    10     6   ar
    39    32    27   ar
    40     7    11    1
@<TRIPOS>MOLECULE
*****
 36 40 0 0 0
SMALL
GASTEIGER

@<TRIPOS>ATOM
      1 C         -28.9100   49.5884   -8.0039 C.ar    1  UNL1        0.0727
      2 C         -29.5809   49.2253   -6.8124 C.ar    1  UNL1        0.0449
      3 I         -31.5835   48.5438   -6.8491 I       1  UNL1       -0.0412
      4 C         -28.9225   49.3366   -5.5648 C.ar    1  UNL1        0.0086
      5 C         -27.5982   49.8063   -5.4930 C.ar    1  UNL1        0.0191
      6 C         -26.9721   50.1549   -6.6864 C.ar    1  UNL1        0.0768
      7 N         -25.7274   50.6129   -6.8677 N.ar    1  UNL1       -0.3373
      8 C         -25.6296   50.7779   -8.2145 C.ar    1  UNL1        0.1406
      9 N         -26.7688   50.4379   -8.8774 N.ar    1  UNL1       -0.2258
     10 C         -27.5969   50.0526   -7.8909 C.ar    1  UNL1        0.1121
     11 H         -25.0146   50.7878   -6.1266 H       1  UNL1        0.1674
     12 N         -30.7763   49.2902  -11.8190 N.3     1  UNL1       -0.2647
     13 C         -30.7007   50.5982  -11.1311 C.3     1  UNL1        0.0941
     14 C         -30.6338   50.4008   -9.6155 C.3     1  UNL1        0.1082
     15 N         -29.5491   49.4771   -9.2826 N.pl3   1  UNL1       -0.3031
     16 C         -29.4585   48.2198  -10.0258 C.3     1  UNL1        0.1082
     17 C         -29.5642   48.4971  -11.5265 C.3     1  UNL1        0.0941
     18 C         -30.9156   49.4742  -13.2781 C.3     1  UNL1        0.1200
     19 N         -30.6598   46.5388  -15.4637 N.ar    1  UNL1       -0.3128
     20 C         -31.3249   46.0879  -14.3808 C.ar    1  UNL1        0.1780
     21 N         -31.5106   47.0446  -13.4471 N.ar    1  UNL1       -0.2273
     22 C         -30.9380   48.1451  -13.9771 C.ar    1  UNL1        0.0885
     23 C         -30.4344   47.8479  -15.2321 C.ar    1  UNL1        0.0537
     24 C         -29.6861   48.7769  -16.1438 C.3     1  UNL1        0.0514
     25 C         -30.9679   44.3731  -16.5729 C.3     1  UNL1        0.0265
     26 C         -30.3362   45.7577  -16.6580 C.3     1  UNL1        0.1073
     27 C         -24.4164   51.2726   -8.9149 C.ar    1  UNL1        0.0339
     28 C         -23.2076   51.3974   -8.2133 C.ar    1  UNL1        0.0027
     29 C         -22.0553   51.8600   -8.8519 C.ar    1  UNL1       -0.0042
     30 C         -22.0682   52.2153  -10.2177 C.ar    1  UNL1       -0.0228
     31 C         -23.2903   52.0852  -10.9162 C.ar    1  UNL1       -0.0042
     32 C         -24.4427   51.6218  -10.2746 C.ar    1  UNL1        0.0027
     33 C         -20.7732   52.7223  -10.8858 C.3     1  UNL1        0.0189
     34 C         -21.1323   53.6604  -12.0588 C.3     1  UNL1        0.0044
     35 C         -19.9644   51.5202  -11.4198 C.3     1  UNL1        0.0044
     36 C         -19.8587   53.5106   -9.9173 C.3     1  UNL1        0.0044
@<TRIPOS>BOND
     1    25    26    1
     2    26    19    1
     3    19    20   ar
     4    20    21   ar
     5    21    22   ar
     6    22    18    1
     7    18    12    1
     8    12    13    1
     9    13    14    1
    10    14    15    1
    11    15     1    1
    12     1     2   ar
    13     2     3    1
    14     2     4   ar
    15     4     5   ar
    16     5     6   ar
    17     6     7   ar
    18     7     8   ar
    19     8    27    1
    20    27    28   ar
    21    28    29   ar
    22    29    30   ar
    23    30    33    1
    24    33    34    1
    25    33    35    1
    26    33    36    1
    27    30    31   ar
    28    31    32   ar
    29     8     9   ar
    30     9    10   ar
    31    15    16    1
    32    16    17    1
    33    22    23   ar
    34    23    24    1
    35    23    19   ar
    36    17    12    1
    37    10     1   ar
    38    10     6   ar
    39    32    27   ar
    40     7    11    1
@<TRIPOS>MOLECULE
*****
 36 40 0 0 0
SMALL
GASTEIGER

@<TRIPOS>ATOM
      1 C         -30.2602   46.4884   -7.7739 C.ar    1  UNL1        0.0727
      2 C         -30.7251   45.4884   -6.8877 C.ar    1  UNL1        0.0449
      3 I         -30.4255   45.6523   -4.7997 I       1  UNL1       -0.0412
      4 C         -31.3827   44.3418   -7.3930 C.ar    1  UNL1        0.0086
      5 C         -31.5831   44.1824   -8.7764 C.ar    1  UNL1        0.0191
      6 C         -31.1105   45.1867   -9.6164 C.ar    1  UNL1        0.0768
      7 N         -31.1914   45.2593  -10.9506 N.ar    1  UNL1       -0.3373
      8 C         -30.5887   46.4405  -11.2539 C.ar    1  UNL1        0.1406
      9 N         -30.1366   47.1058  -10.1557 N.ar    1  UNL1       -0.2258
     10 C         -30.4760   46.2923   -9.1405 C.ar    1  UNL1        0.1121
     11 H         -31.6285   44.5575  -11.5866 H       1  UNL1        0.1674
     12 N         -28.2801   49.9902   -6.3800 N.3     1  UNL1       -0.2647
     13 C         -27.5039   48.9047   -7.0193 C.3     1  UNL1        0.0941
     14 C         -28.2125   47.5616   -6.8340 C.3     1  UNL1        0.1082
     15 N         -29.5990   47.6647   -7.2893 N.pl3   1  UNL1       -0.3031
     16 C         -30.3974   48.7994   -6.8242 C.3     1  UNL1        0.1082
     17 C         -29.6108   50.0978   -7.0137 C.3     1  UNL1        0.0941
     18 C         -27.5661   51.2787   -6.4906 C.3     1  UNL1        0.1200
     19 N         -25.1358   51.1862   -9.2374 N.ar    1  UNL1       -0.3128
     20 C         -24.4417   50.7500   -8.1667 C.ar    1  UNL1        0.1780
     21 N         -25.1842   50.7217   -7.0400 N.ar    1  UNL1       -0.2273
     22 C         -26.4004   51.1563   -7.4296 C.ar    1  UNL1        0.0885
     23 C         -26.3859   51.4196   -8.7888 C.ar    1  UNL1        0.0537
     24 C         -27.5197   51.9582   -9.6126 C.3     1  UNL1        0.0514
     25 C         -23.2016   51.8421  -10.5953 C.3     1  UNL1        0.0265
     26 C         -24.6246   51.2961  -10.6040 C.3     1  UNL1        0.1073
     27 C         -30.4301   46.9741  -12.6313 C.ar    1  UNL1        0.0339
     28 C         -30.4983   48.3575  -12.8560 C.ar    1  UNL1        0.0027
     29 C         -30.3518   48.8805  -14.1424 C.ar    1  UNL1       -0.0042
     30 C         -30.1309   48.0390  -15.2536 C.ar    1  UNL1       -0.0228
     31 C         -30.0628   46.6469  -15.0170 C.ar    1  UNL1       -0.0042
     32 C         -30.2099   46.1257  -13.7282 C.ar    1  UNL1        0.0027
     33 C         -29.9744   48.6568  -16.6586 C.3     1  UNL1        0.0189
     34 C         -28.6137   49.3808  -16.7542 C.3     1  UNL1        0.0044
     35 C         -31.1129   49.6705  -16.9052 C.3     1  UNL1        0.0044
     36 C         -30.0276   47.6057  -17.7935 C.3     1  UNL1        0.0044
@<TRIPOS>BOND
     1    25    26    1
     2    26    19    1
     3    19    20   ar
     4    20    21   ar
     5    21    22   ar
     6    22    18    1
     7    18    12    1
     8    12    13    1
     9    13    14    1
    10    14    15    1
    11    15     1    1
    12     1     2   ar
    13     2     3    1
    14     2     4   ar
    15     4     5   ar
    16     5     6   ar
    17     6     7   ar
    18     7     8   ar
    19     8    27    1
    20    27    28   ar
    21    28    29   ar
    22    29    30   ar
    23    30    33    1
    24    33    34    1
    25    33    35    1
    26    33    36    1
    27    30    31   ar
    28    31    32   ar
    29     8     9   ar
    30     9    10   ar
    31    15    16    1
    32    16    17    1
    33    22    23   ar
    34    23    24    1
    35    23    19   ar
    36    17    12    1
    37    10     1   ar
    38    10     6   ar
    39    32    27   ar
    40     7    11    1
@<TRIPOS>MOLECULE
*****
 36 40 0 0 0
SMALL
GASTEIGER

@<TRIPOS>ATOM
      1 C         -28.9908   48.8974   -8.4737 C.ar    1  UNL1        0.0727
      2 C         -29.6341   48.8267   -7.2156 C.ar    1  UNL1        0.0449
      3 I         -28.6889   49.5402   -5.4624 I       1  UNL1       -0.0412
      4 C         -30.9221   48.2505   -7.1082 C.ar    1  UNL1        0.0086
      5 C         -31.5774   47.7438   -8.2454 C.ar    1  UNL1        0.0191
      6 C         -30.9120   47.8301   -9.4650 C.ar    1  UNL1        0.0768
      7 N         -31.3330   47.4284  -10.6705 N.ar    1  UNL1       -0.3373
      8 C         -30.3099   47.7584  -11.5041 C.ar    1  UNL1        0.1406
      9 N         -29.2678   48.3520  -10.8602 N.ar    1  UNL1       -0.2258
     10 C         -29.6730   48.3812   -9.5786 C.ar    1  UNL1        0.1121
     11 H         -32.2457   46.9743  -10.8914 H       1  UNL1        0.1674
     12 N         -25.1329   50.6594   -8.8451 N.3     1  UNL1       -0.2647
     13 C         -26.3182   51.5134   -8.6096 C.3     1  UNL1        0.0941
     14 C         -27.5784   50.8389   -9.1547 C.3     1  UNL1        0.1082
     15 N         -27.6901   49.4842   -8.6137 N.pl3   1  UNL1       -0.3031
     16 C         -26.5116   48.6185   -8.6674 C.3     1  UNL1        0.1082
     17 C         -25.2911   49.3724   -8.1363 C.3     1  UNL1        0.0941
     18 C         -23.9019   51.3360   -8.3879 C.3     1  UNL1        0.1200
     19 N         -21.5656   52.7746  -10.8234 N.ar    1  UNL1       -0.3128
     20 C         -22.7101   52.6135  -11.5182 C.ar    1  UNL1        0.1780
     21 N         -23.7012   52.0793  -10.7739 N.ar    1  UNL1       -0.2273
     22 C         -23.1481   51.9045   -9.5559 C.ar    1  UNL1        0.0885
     23 C         -21.8392   52.3555   -9.5713 C.ar    1  UNL1        0.0537
     24 C         -20.8580   52.3070   -8.4358 C.3     1  UNL1        0.0514
     25 C         -19.2579   52.2836  -11.4934 C.3     1  UNL1        0.0265
     26 C         -20.3262   53.3594  -11.3363 C.3     1  UNL1        0.1073
     27 C         -30.3060   47.5112  -12.9690 C.ar    1  UNL1        0.0339
     28 C         -30.5563   48.5693  -13.8560 C.ar    1  UNL1        0.0027
     29 C         -30.5572   48.3593  -15.2365 C.ar    1  UNL1       -0.0042
     30 C         -30.3072   47.0823  -15.7826 C.ar    1  UNL1       -0.0228
     31 C         -30.0553   46.0229  -14.8810 C.ar    1  UNL1       -0.0042
     32 C         -30.0549   46.2356  -13.4993 C.ar    1  UNL1        0.0027
     33 C         -30.3174   46.8924  -17.3137 C.3     1  UNL1        0.0189
     34 C         -29.0454   47.5246  -17.9194 C.3     1  UNL1        0.0044
     35 C         -31.5652   47.5798  -17.9096 C.3     1  UNL1        0.0044
     36 C         -30.3517   45.4051  -17.7409 C.3     1  UNL1        0.0044
@<TRIPOS>BOND
     1    25    26    1
     2    26    19    1
     3    19    20   ar
     4    20    21   ar
     5    21    22   ar
     6    22    18    1
     7    18    12    1
     8    12    13    1
     9    13    14    1
    10    14    15    1
    11    15     1    1
    12     1     2   ar
    13     2     3    1
    14     2     4   ar
    15     4     5   ar
    16     5     6   ar
    17     6     7   ar
    18     7     8   ar
    19     8    27    1
    20    27    28   ar
    21    28    29   ar
    22    29    30   ar
    23    30    33    1
    24    33    34    1
    25    33    35    1
    26    33    36    1
    27    30    31   ar
    28    31    32   ar
    29     8     9   ar
    30     9    10   ar
    31    15    16    1
    32    16    17    1
    33    22    23   ar
    34    23    24    1
    35    23    19   ar
    36    17    12    1
    37    10     1   ar
    38    10     6   ar
    39    32    27   ar
    40     7    11    1
@<TRIPOS>MOLECULE
*****
 36 40 0 0 0
SMALL
GASTEIGER

@<TRIPOS>ATOM
      1 C         -30.0640   46.3882   -5.4830 C.ar    1  UNL1        0.0727
      2 C         -30.4757   45.3565   -6.3592 C.ar    1  UNL1        0.0449
      3 I         -30.0738   45.4583   -8.4339 I       1  UNL1       -0.0412
      4 C         -31.1900   44.2425   -5.8581 C.ar    1  UNL1        0.0086
      5 C         -31.4977   44.1457   -4.4886 C.ar    1  UNL1        0.0191
      6 C         -31.0770   45.1808   -3.6586 C.ar    1  UNL1        0.0768
      7 N         -31.2437   45.3043   -2.3361 N.ar    1  UNL1       -0.3373
      8 C         -30.6351   46.4832   -2.0355 C.ar    1  UNL1        0.1406
      9 N         -30.0949   47.0970   -3.1238 N.ar    1  UNL1       -0.2258
     10 C         -30.3906   46.2568   -4.1307 C.ar    1  UNL1        0.1121
     11 H         -31.7288   44.6306   -1.7045 H       1  UNL1        0.1674
     12 N         -27.8941   49.7824   -6.8605 N.3     1  UNL1       -0.2647
     13 C         -29.2959   49.9314   -6.4107 C.3     1  UNL1        0.0941
     14 C         -30.0595   48.6195   -6.6008 C.3     1  UNL1        0.1082
     15 N         -29.3309   47.5238   -5.9613 N.pl3   1  UNL1       -0.3031
     16 C         -27.8988   47.3942   -6.2324 C.3     1  UNL1        0.1082
     17 C         -27.2132   48.7498   -6.0517 C.3     1  UNL1        0.0941
     18 C         -27.1701   51.0652   -6.7489 C.3     1  UNL1        0.1200
     19 N         -24.7325   51.2778   -9.4825 N.ar    1  UNL1       -0.3128
     20 C         -23.9956   50.9282   -8.4087 C.ar    1  UNL1        0.1780
     21 N         -24.7348   50.8066   -7.2861 N.ar    1  UNL1       -0.2273
     22 C         -25.9932   51.0890   -7.6817 C.ar    1  UNL1        0.0885
     23 C         -26.0041   51.3547   -9.0405 C.ar    1  UNL1        0.0537
     24 C         -27.1913   51.7514   -9.8697 C.3     1  UNL1        0.0514
     25 C         -22.8123   52.0077  -10.8224 C.3     1  UNL1        0.0265
     26 C         -24.2316   51.4524  -10.8462 C.3     1  UNL1        0.1073
     27 C         -30.5514   47.0618   -0.6697 C.ar    1  UNL1        0.0339
     28 C         -30.9236   46.2879    0.4400 C.ar    1  UNL1        0.0027
     29 C         -30.8526   46.8116    1.7325 C.ar    1  UNL1       -0.0042
     30 C         -30.4058   48.1301    1.9642 C.ar    1  UNL1       -0.0228
     31 C         -30.0322   48.9015    0.8400 C.ar    1  UNL1       -0.0042
     32 C         -30.1042   48.3749   -0.4530 C.ar    1  UNL1        0.0027
     33 C         -30.3422   48.6710    3.4077 C.3     1  UNL1        0.0189
     34 C         -28.8918   48.5767    3.9295 C.3     1  UNL1        0.0044
     35 C         -31.2686   47.8310    4.3137 C.3     1  UNL1        0.0044
     36 C         -30.7874   50.1489    3.5225 C.3     1  UNL1        0.0044
@<TRIPOS>BOND
     1    25    26    1
     2    26    19    1
     3    19    20   ar
     4    20    21   ar
     5    21    22   ar
     6    22    18    1
     7    18    12    1
     8    12    13    1
     9    13    14    1
    10    14    15    1
    11    15     1    1
    12     1     2   ar
    13     2     3    1
    14     2     4   ar
    15     4     5   ar
    16     5     6   ar
    17     6     7   ar
    18     7     8   ar
    19     8    27    1
    20    27    28   ar
    21    28    29   ar
    22    29    30   ar
    23    30    33    1
    24    33    34    1
    25    33    35    1
    26    33    36    1
    27    30    31   ar
    28    31    32   ar
    29     8     9   ar
    30     9    10   ar
    31    15    16    1
    32    16    17    1
    33    22    23   ar
    34    23    24    1
    35    23    19   ar
    36    17    12    1
    37    10     1   ar
    38    10     6   ar
    39    32    27   ar
    40     7    11    1
