@<TRIPOS>MOLECULE
*****
 51 56 0 0 0
SMALL
GASTEIGER

@<TRIPOS>ATOM
      1 C         -29.1322   51.0106  -11.9246 C.2     1  UNL1        0.2483
      2 O         -30.0320   51.8370  -11.6095 O.2     1  UNL1       -0.2701
      3 N         -29.4529   49.8917  -12.7664 N.am    1  UNL1       -0.2945
      4 H         -28.6642   49.3767  -13.2143 H       1  UNL1        0.1501
      5 C         -25.0869   51.6372  -10.6009 C.ar    1  UNL1        0.0502
      6 C         -25.3632   51.3205  -11.9399 C.ar    1  UNL1        0.0148
      7 C         -26.6804   51.1270  -12.3635 C.ar    1  UNL1        0.0080
      8 C         -27.7464   51.2339  -11.4545 C.ar    1  UNL1        0.0808
      9 C         -27.4698   51.5659  -10.1137 C.ar    1  UNL1        0.1457
     10 F         -28.4714   51.7483   -9.2169 F       1  UNL1       -0.2040
     11 C         -26.1501   51.7603   -9.6943 C.ar    1  UNL1        0.0443
     12 N         -21.0635   51.6640   -9.3943 N.pl3   1  UNL1       -0.2897
     13 C         -22.0834   51.1164   -8.4899 C.3     1  UNL1        0.1136
     14 C         -23.4181   51.8212   -8.7234 C.3     1  UNL1        0.1123
     15 N         -23.7311   51.8340  -10.1572 N.pl3   1  UNL1       -0.3040
     16 C         -22.7174   52.3676  -11.0748 C.3     1  UNL1        0.1123
     17 C         -21.3700   51.6838  -10.8296 C.3     1  UNL1        0.1136
     18 C         -17.3130   51.8287   -9.4314 C.ar    1  UNL1       -0.0140
     19 C         -18.6415   51.7100   -9.8708 C.ar    1  UNL1        0.0300
     20 C         -19.6979   51.7929   -8.9571 C.ar    1  UNL1        0.1315
     21 N         -19.4240   51.9671   -7.6382 N.ar    1  UNL1       -0.2292
     22 C         -18.1556   52.0791   -7.1694 C.ar    1  UNL1        0.1038
     23 C         -17.0550   52.0062   -8.0447 C.ar    1  UNL1        0.0867
     24 C         -15.6486   52.1628   -7.4959 C.3     1  UNL1        0.4197
     25 F         -15.5117   53.3274   -6.7598 F       1  UNL1       -0.1658
     26 F         -15.3379   51.1018   -6.6660 F       1  UNL1       -0.1658
     27 F         -14.7463   52.2072   -8.5431 F       1  UNL1       -0.1658
     28 C         -16.7801   51.8548  -11.8802 C.3     1  UNL1        0.0050
     29 C         -16.2160   51.7112  -10.4688 C.3     1  UNL1        0.0265
     30 C         -30.8220   49.6319  -13.2247 C.3     1  UNL1        0.1535
     31 C         -30.8234   49.0930  -14.6350 C.2     1  UNL1        0.2443
     32 O         -31.5823   49.6260  -15.4893 O.2     1  UNL1       -0.2730
     33 N         -29.9719   47.9937  -15.0057 N.am    1  UNL1       -0.2825
     34 H         -29.1790   47.7450  -14.3728 H       1  UNL1        0.1549
     35 C         -30.0964   47.2527  -16.2315 C.ar    1  UNL1        0.0535
     36 C         -29.7332   47.8600  -17.4414 C.ar    1  UNL1        0.0353
     37 C         -29.8228   47.1369  -18.6330 C.ar    1  UNL1        0.1002
     38 N         -30.2437   45.8447  -18.6164 N.ar    1  UNL1       -0.2422
     39 C         -30.5834   45.2218  -17.4571 C.ar    1  UNL1        0.1002
     40 C         -30.5097   45.9095  -16.2431 C.ar    1  UNL1        0.0353
     41 C         -31.5830   48.7056  -12.2513 C.3     1  UNL1        0.0569
     42 C         -30.7295   47.6274  -11.6375 C.ar    1  UNL1       -0.0017
     43 C         -30.4874   46.3622  -12.1664 C.ar    1  UNL1        0.0681
     44 N         -29.6496   45.6660  -11.3656 N.ar    1  UNL1       -0.3523
     45 C         -29.3652   46.4764  -10.3318 C.ar    1  UNL1        0.0563
     46 C         -28.5395   46.1977   -9.2434 C.ar    1  UNL1        0.0170
     47 C         -28.3835   47.1951   -8.2637 C.ar    1  UNL1        0.0015
     48 C         -29.0517   48.4330   -8.3902 C.ar    1  UNL1        0.0001
     49 C         -29.8805   48.6856   -9.4981 C.ar    1  UNL1        0.0012
     50 C         -30.0092   47.6809  -10.4585 C.ar    1  UNL1        0.0131
     51 H         -29.2974   44.6957  -11.5229 H       1  UNL1        0.1660
@<TRIPOS>BOND
     1    28    29    1
     2    29    18    1
     3    18    19   ar
     4    19    20   ar
     5    20    12    1
     6    12    13    1
     7    13    14    1
     8    14    15    1
     9    15     5    1
    10     5     6   ar
    11     6     7   ar
    12     7     8   ar
    13     8     1    1
    14     1     2    2
    15     1     3   am
    16     3    30    1
    17    30    41    1
    18    41    42    1
    19    42    43   ar
    20    43    44   ar
    21    44    45   ar
    22    45    46   ar
    23    46    47   ar
    24    47    48   ar
    25    48    49   ar
    26    49    50   ar
    27    30    31    1
    28    31    32    2
    29    31    33   am
    30    33    35    1
    31    35    36   ar
    32    36    37   ar
    33    37    38   ar
    34    38    39   ar
    35    39    40   ar
    36     8     9   ar
    37     9    10    1
    38     9    11   ar
    39    15    16    1
    40    16    17    1
    41    20    21   ar
    42    21    22   ar
    43    22    23   ar
    44    23    24    1
    45    24    25    1
    46    24    26    1
    47    24    27    1
    48    23    18   ar
    49    17    12    1
    50    11     5   ar
    51    50    42   ar
    52    40    35   ar
    53    50    45   ar
    54     3     4    1
    55    44    51    1
    56    33    34    1
