@<TRIPOS>MOLECULE
*****
 55 61 0 0 0
SMALL
GASTEIGER

@<TRIPOS>ATOM
      1 C          58.3727   83.4379   10.7877 C.ar    1  UNL1        0.0481
      2 C          58.2772   83.6969   12.1646 C.ar    1  UNL1        0.0176
      3 C          58.1381   82.6456   13.0755 C.ar    1  UNL1        0.0382
      4 C          58.0990   81.3130   12.6218 C.ar    1  UNL1        0.1388
      5 C          58.1902   81.0590   11.2487 C.ar    1  UNL1        0.0382
      6 C          58.3282   82.1098   10.3379 C.ar    1  UNL1        0.0176
      7 N          59.3170   86.3831    7.9493 N.pl3   1  UNL1       -0.3041
      8 C          58.9792   85.0318    7.4868 C.3     1  UNL1        0.1122
      9 C          58.0191   84.3669    8.4739 C.3     1  UNL1        0.1122
     10 N          58.5208   84.5166    9.8452 N.pl3   1  UNL1       -0.3041
     11 C          58.8591   85.8680   10.3077 C.3     1  UNL1        0.1122
     12 C          59.8188   86.5333    9.3205 C.3     1  UNL1        0.1122
     13 C          59.7708   89.5876    5.1808 C.ar    1  UNL1        0.0761
     14 C          60.8728   88.8107    5.5668 C.ar    1  UNL1        0.0192
     15 C          60.7218   87.7598    6.4706 C.ar    1  UNL1        0.0160
     16 C          59.4632   87.4622    7.0067 C.ar    1  UNL1        0.0482
     17 C          58.3513   88.2227    6.6119 C.ar    1  UNL1        0.0224
     18 C          58.4835   89.2747    5.6873 C.ar    1  UNL1        0.0929
     19 N          60.7439   92.0198    2.6888 N.ar    1  UNL1       -0.2024
     20 N          59.6586   92.6051    3.1778 N.ar    1  UNL1       -0.1442
     21 C          59.2051   91.8016    4.1655 C.ar    1  UNL1        0.2073
     22 N          59.9912   90.7142    4.3173 N.ar    1  UNL1       -0.2396
     23 C          60.9258   90.8701    3.3627 C.ar    1  UNL1        0.3522
     24 O          61.8316   90.0302    3.1091 O.2     1  UNL1       -0.2444
     25 C          61.5211   92.5222    1.5516 C.3     1  UNL1        0.1099
     26 C          62.9654   92.7773    1.9981 C.3     1  UNL1        0.0265
     27 C          60.0236   91.3643   -0.1704 C.3     1  UNL1        0.0021
     28 C          61.4405   91.5187    0.3829 C.3     1  UNL1        0.0245
     29 C          57.2590   89.9773    5.2350 C.2     1  UNL1        0.3395
     30 O          57.1187   91.2153    5.4252 O.2     1  UNL1       -0.2450
     31 O          56.2657   89.2771    4.5552 O.3     1  UNL1       -0.4771
     32 H          55.4296   89.7462    4.2280 H       1  UNL1        0.2954
     33 O          57.9647   80.2169   13.4896 O.3     1  UNL1       -0.4727
     34 C          59.0054   79.3040   13.8420 C.3     1  UNL1        0.2374
     35 C          60.3173   79.6629   13.1312 C.3     1  UNL1        0.1909
     36 C          61.5000   78.9203   13.6809 C.3     1  UNL1        0.1783
     37 O          62.5719   79.8042   13.6069 O.3     1  UNL1       -0.3271
     38 C          62.0213   81.0906   13.3978 C.3     1  UNL1        0.2232
     39 O          60.6100   81.0087   13.3204 O.3     1  UNL1       -0.3258
     40 C          62.5665   81.7159   12.1066 C.ar    1  UNL1        0.0404
     41 C          61.6535   82.3314   11.2220 C.ar    1  UNL1        0.0021
     42 C          62.0899   82.9554   10.0529 C.ar    1  UNL1        0.0113
     43 C          63.4483   82.9987    9.7478 C.ar    1  UNL1        0.0585
     44 CL         63.9940   83.7894    8.2800 Cl      1  UNL1       -0.0822
     45 C          64.3749   82.4269   10.6194 C.ar    1  UNL1        0.0226
     46 C          63.9550   81.7964   11.7978 C.ar    1  UNL1        0.0591
     47 CL         65.2284   81.1679   12.8429 Cl      1  UNL1       -0.0824
     48 C          62.3734   81.9871   14.5984 C.3     1  UNL1        0.1338
     49 N          62.2751   83.4167   14.2221 N.3     1  UNL1       -0.2659
     50 C          61.0874   84.0578   14.8160 C.3     1  UNL1        0.0898
     51 C          60.9778   85.5046   14.3278 C.3     1  UNL1        0.0897
     52 N          62.1973   86.2523   14.6876 N.3     1  UNL1       -0.2691
     53 C          62.0910   87.6431   14.2222 C.3     1  UNL1        0.0897
     54 C          63.3849   85.6100   14.0933 C.3     1  UNL1        0.0897
     55 C          63.4965   84.1619   14.5788 C.3     1  UNL1        0.0898
@<TRIPOS>BOND
     1    27    28    1
     2    28    25    1
     3    25    26    1
     4    25    19    1
     5    19    20   ar
     6    20    21   ar
     7    21    22   ar
     8    22    13    1
     9    13    14   ar
    10    14    15   ar
    11    15    16   ar
    12    16     7    1
    13     7     8    1
    14     8     9    1
    15     9    10    1
    16    10     1    1
    17     1     2   ar
    18     2     3   ar
    19     3     4   ar
    20     4    33    1
    21    33    34    1
    22    34    35    1
    23    35    36    1
    24    36    37    1
    25    37    38    1
    26    38    48    1
    27    48    49    1
    28    49    50    1
    29    50    51    1
    30    51    52    1
    31    52    53    1
    32    52    54    1
    33    54    55    1
    34    38    40    1
    35    40    41   ar
    36    41    42   ar
    37    42    43   ar
    38    43    44    1
    39    43    45   ar
    40    45    46   ar
    41    46    47    1
    42    38    39    1
    43     4     5   ar
    44     5     6   ar
    45    10    11    1
    46    11    12    1
    47    16    17   ar
    48    17    18   ar
    49    18    29    1
    50    29    30    2
    51    29    31    1
    52    22    23   ar
    53    23    24    2
    54    23    19   ar
    55    18    13   ar
    56    12     7    1
    57     6     1   ar
    58    39    35    1
    59    55    49    1
    60    46    40   ar
    61    31    32    1
@<TRIPOS>MOLECULE
*****
 55 61 0 0 0
SMALL
GASTEIGER

@<TRIPOS>ATOM
      1 C          60.6421   86.6347   10.7138 C.ar    1  UNL1        0.0481
      2 C          59.4973   86.4158   11.4972 C.ar    1  UNL1        0.0176
      3 C          59.6000   85.7890   12.7426 C.ar    1  UNL1        0.0382
      4 C          60.8555   85.3757   13.2285 C.ar    1  UNL1        0.1388
      5 C          61.9935   85.5917   12.4432 C.ar    1  UNL1        0.0382
      6 C          61.8909   86.2174   11.1979 C.ar    1  UNL1        0.0176
      7 N          59.9232   88.8093    7.1957 N.pl3   1  UNL1       -0.3041
      8 C          60.6024   89.4719    8.3155 C.3     1  UNL1        0.1122
      9 C          61.3891   88.4449    9.1305 C.3     1  UNL1        0.1122
     10 N          60.5428   87.2842    9.4323 N.pl3   1  UNL1       -0.3041
     11 C          59.8631   86.6216    8.3127 C.3     1  UNL1        0.1122
     12 C          59.0767   87.6486    7.4971 C.3     1  UNL1        0.1122
     13 C          59.6132   90.7071    3.3955 C.ar    1  UNL1        0.0761
     14 C          58.4839   90.5442    4.2111 C.ar    1  UNL1        0.0192
     15 C          58.5878   89.9258    5.4564 C.ar    1  UNL1        0.0160
     16 C          59.8256   89.4582    5.9138 C.ar    1  UNL1        0.0482
     17 C          60.9646   89.6335    5.1122 C.ar    1  UNL1        0.0224
     18 C          60.8801   90.2714    3.8613 C.ar    1  UNL1        0.0929
     19 N          59.5116   92.6397    0.3415 N.ar    1  UNL1       -0.2024
     20 N          59.1741   91.4448   -0.1248 N.ar    1  UNL1       -0.1442
     21 C          59.1373   90.6162    0.9424 C.ar    1  UNL1        0.2073
     22 N          59.4408   91.2690    2.0848 N.ar    1  UNL1       -0.2396
     23 C          59.6939   92.5228    1.6690 C.ar    1  UNL1        0.3522
     24 O          60.0865   93.4565    2.4202 O.2     1  UNL1       -0.2444
     25 C          59.7306   93.8274   -0.4898 C.3     1  UNL1        0.1099
     26 C          61.1855   93.8465   -0.9730 C.3     1  UNL1        0.0265
     27 C          57.3083   93.4615   -1.2295 C.3     1  UNL1        0.0021
     28 C          58.7269   93.8346   -1.6610 C.3     1  UNL1        0.0245
     29 C          62.1316   90.5148    3.1048 C.2     1  UNL1        0.3395
     30 O          62.1520   90.4291    1.8476 O.2     1  UNL1       -0.2450
     31 O          63.2926   90.8826    3.7801 O.3     1  UNL1       -0.4771
     32 H          64.1519   91.0654    3.2758 H       1  UNL1        0.2954
     33 O          61.0204   84.7450   14.4725 O.3     1  UNL1       -0.4727
     34 C          62.0373   83.7945   14.7936 C.3     1  UNL1        0.2374
     35 C          61.6494   82.3893   14.3136 C.3     1  UNL1        0.1909
     36 C          62.6574   81.3445   14.6944 C.3     1  UNL1        0.1783
     37 O          62.6775   80.4344   13.6424 O.3     1  UNL1       -0.3271
     38 C          62.0351   81.0643   12.5506 C.3     1  UNL1        0.2232
     39 O          61.5959   82.3571   12.9249 O.3     1  UNL1       -0.3258
     40 C          60.8342   80.2376   12.0711 C.ar    1  UNL1        0.0404
     41 C          60.9872   78.8385   11.9533 C.ar    1  UNL1        0.0021
     42 C          59.9219   78.0258   11.5641 C.ar    1  UNL1        0.0113
     43 C          58.6736   78.5857   11.3029 C.ar    1  UNL1        0.0585
     44 CL         57.3348   77.5603   10.8196 Cl      1  UNL1       -0.0822
     45 C          58.4857   79.9606   11.4423 C.ar    1  UNL1        0.0226
     46 C          59.5437   80.7920   11.8323 C.ar    1  UNL1        0.0591
     47 CL         59.1605   82.5015   12.0308 Cl      1  UNL1       -0.0824
     48 C          63.0459   81.2274   11.4013 C.3     1  UNL1        0.1338
     49 N          62.5308   82.1817   10.3918 N.3     1  UNL1       -0.2659
     50 C          63.6226   82.9189    9.7293 C.3     1  UNL1        0.0898
     51 C          63.0407   83.9541    8.7634 C.3     1  UNL1        0.0897
     52 N          62.1908   83.2862    7.7598 N.3     1  UNL1       -0.2691
     53 C          61.6346   84.2798    6.8293 C.3     1  UNL1        0.0897
     54 C          61.0992   82.5489    8.4234 C.3     1  UNL1        0.0897
     55 C          61.6782   81.5131    9.3915 C.3     1  UNL1        0.0898
@<TRIPOS>BOND
     1    27    28    1
     2    28    25    1
     3    25    26    1
     4    25    19    1
     5    19    20   ar
     6    20    21   ar
     7    21    22   ar
     8    22    13    1
     9    13    14   ar
    10    14    15   ar
    11    15    16   ar
    12    16     7    1
    13     7     8    1
    14     8     9    1
    15     9    10    1
    16    10     1    1
    17     1     2   ar
    18     2     3   ar
    19     3     4   ar
    20     4    33    1
    21    33    34    1
    22    34    35    1
    23    35    36    1
    24    36    37    1
    25    37    38    1
    26    38    48    1
    27    48    49    1
    28    49    50    1
    29    50    51    1
    30    51    52    1
    31    52    53    1
    32    52    54    1
    33    54    55    1
    34    38    40    1
    35    40    41   ar
    36    41    42   ar
    37    42    43   ar
    38    43    44    1
    39    43    45   ar
    40    45    46   ar
    41    46    47    1
    42    38    39    1
    43     4     5   ar
    44     5     6   ar
    45    10    11    1
    46    11    12    1
    47    16    17   ar
    48    17    18   ar
    49    18    29    1
    50    29    30    2
    51    29    31    1
    52    22    23   ar
    53    23    24    2
    54    23    19   ar
    55    18    13   ar
    56    12     7    1
    57     6     1   ar
    58    39    35    1
    59    55    49    1
    60    46    40   ar
    61    31    32    1
@<TRIPOS>MOLECULE
*****
 55 61 0 0 0
SMALL
GASTEIGER

@<TRIPOS>ATOM
      1 C          60.1525   86.2410    9.7841 C.ar    1  UNL1        0.0481
      2 C          59.0065   85.5035   10.1234 C.ar    1  UNL1        0.0176
      3 C          58.9895   84.7101   11.2743 C.ar    1  UNL1        0.0382
      4 C          60.1208   84.6472   12.1107 C.ar    1  UNL1        0.1388
      5 C          61.2623   85.3801   11.7670 C.ar    1  UNL1        0.0382
      6 C          61.2799   86.1725   10.6161 C.ar    1  UNL1        0.0176
      7 N          59.8086   88.9333    6.5816 N.pl3   1  UNL1       -0.3041
      8 C          60.5055   89.3623    7.8000 C.3     1  UNL1        0.1122
      9 C          61.1475   88.1562    8.4865 C.3     1  UNL1        0.1122
     10 N          60.1740   87.0636    8.6023 N.pl3   1  UNL1       -0.3041
     11 C          59.4766   86.6348    7.3839 C.3     1  UNL1        0.1122
     12 C          58.8350   87.8409    6.6970 C.3     1  UNL1        0.1122
     13 C          59.8530   91.3478    3.0734 C.ar    1  UNL1        0.0761
     14 C          58.6994   91.2531    3.8654 C.ar    1  UNL1        0.0192
     15 C          58.6877   90.4649    5.0154 C.ar    1  UNL1        0.0160
     16 C          59.8319   89.7553    5.3993 C.ar    1  UNL1        0.0482
     17 C          60.9967   89.8588    4.6228 C.ar    1  UNL1        0.0224
     18 C          61.0306   90.6638    3.4697 C.ar    1  UNL1        0.0929
     19 N          59.2797   92.7634   -0.2038 N.ar    1  UNL1       -0.2024
     20 N          59.8233   93.8055    0.4109 N.ar    1  UNL1       -0.1442
     21 C          60.1266   93.3938    1.6621 C.ar    1  UNL1        0.2073
     22 N          59.7894   92.1000    1.8513 N.ar    1  UNL1       -0.2396
     23 C          59.2402   91.7463    0.6755 C.ar    1  UNL1        0.3522
     24 O          58.7230   90.6204    0.4413 O.2     1  UNL1       -0.2444
     25 C          58.7425   92.7873   -1.5677 C.3     1  UNL1        0.1099
     26 C          58.2478   91.3853   -1.9423 C.3     1  UNL1        0.0265
     27 C          56.2239   93.2372   -1.6133 C.3     1  UNL1        0.0021
     28 C          57.6253   93.8461   -1.6681 C.3     1  UNL1        0.0245
     29 C          62.3164   90.8106    2.7465 C.2     1  UNL1        0.3395
     30 O          62.4154   90.4811    1.5341 O.2     1  UNL1       -0.2450
     31 O          63.4214   91.3559    3.3952 O.3     1  UNL1       -0.4771
     32 H          64.3028   91.4751    2.9104 H       1  UNL1        0.2954
     33 O          60.1605   83.8710   13.2805 O.3     1  UNL1       -0.4727
     34 C          59.1548   82.9467   13.6986 C.3     1  UNL1        0.2374
     35 C          58.8433   81.9324   12.5898 C.3     1  UNL1        0.1909
     36 C          58.7586   80.5224   13.0968 C.3     1  UNL1        0.1783
     37 O          59.2742   79.7219   12.0824 O.3     1  UNL1       -0.3271
     38 C          59.9673   80.5838   11.2002 C.3     1  UNL1        0.2232
     39 O          59.8680   81.9225   11.6504 O.3     1  UNL1       -0.3258
     40 C          59.4006   80.4818    9.7777 C.ar    1  UNL1        0.0404
     41 C          58.2577   79.6790    9.5669 C.ar    1  UNL1        0.0021
     42 C          57.6684   79.5784    8.3063 C.ar    1  UNL1        0.0113
     43 C          58.1917   80.2913    7.2301 C.ar    1  UNL1        0.0585
     44 CL         57.4447   80.1671    5.6478 Cl      1  UNL1       -0.0822
     45 C          59.3004   81.1167    7.4166 C.ar    1  UNL1        0.0226
     46 C          59.9050   81.2302    8.6752 C.ar    1  UNL1        0.0591
     47 CL         61.2602   82.3521    8.7916 Cl      1  UNL1       -0.0824
     48 C          61.4581   80.2009   11.1946 C.3     1  UNL1        0.1338
     49 N          62.2419   81.1637   12.0032 N.3     1  UNL1       -0.2659
     50 C          62.4817   80.6624   13.3691 C.3     1  UNL1        0.0898
     51 C          63.2135   81.7253   14.1927 C.3     1  UNL1        0.0897
     52 N          64.4910   82.0754   13.5439 N.3     1  UNL1       -0.2691
     53 C          65.1961   83.0935   14.3367 C.3     1  UNL1        0.0897
     54 C          64.2501   82.5764   12.1776 C.3     1  UNL1        0.0897
     55 C          63.5168   81.5158   11.3513 C.3     1  UNL1        0.0898
@<TRIPOS>BOND
     1    27    28    1
     2    28    25    1
     3    25    26    1
     4    25    19    1
     5    19    20   ar
     6    20    21   ar
     7    21    22   ar
     8    22    13    1
     9    13    14   ar
    10    14    15   ar
    11    15    16   ar
    12    16     7    1
    13     7     8    1
    14     8     9    1
    15     9    10    1
    16    10     1    1
    17     1     2   ar
    18     2     3   ar
    19     3     4   ar
    20     4    33    1
    21    33    34    1
    22    34    35    1
    23    35    36    1
    24    36    37    1
    25    37    38    1
    26    38    48    1
    27    48    49    1
    28    49    50    1
    29    50    51    1
    30    51    52    1
    31    52    53    1
    32    52    54    1
    33    54    55    1
    34    38    40    1
    35    40    41   ar
    36    41    42   ar
    37    42    43   ar
    38    43    44    1
    39    43    45   ar
    40    45    46   ar
    41    46    47    1
    42    38    39    1
    43     4     5   ar
    44     5     6   ar
    45    10    11    1
    46    11    12    1
    47    16    17   ar
    48    17    18   ar
    49    18    29    1
    50    29    30    2
    51    29    31    1
    52    22    23   ar
    53    23    24    2
    54    23    19   ar
    55    18    13   ar
    56    12     7    1
    57     6     1   ar
    58    39    35    1
    59    55    49    1
    60    46    40   ar
    61    31    32    1
@<TRIPOS>MOLECULE
*****
 55 61 0 0 0
SMALL
GASTEIGER

@<TRIPOS>ATOM
      1 C          60.6995   86.2392   11.7962 C.ar    1  UNL1        0.0481
      2 C          59.6322   85.8558   12.6244 C.ar    1  UNL1        0.0176
      3 C          59.8713   85.1514   13.8081 C.ar    1  UNL1        0.0382
      4 C          61.1877   84.8242   14.1866 C.ar    1  UNL1        0.1388
      5 C          62.2484   85.2042   13.3566 C.ar    1  UNL1        0.0382
      6 C          62.0096   85.9075   12.1729 C.ar    1  UNL1        0.0176
      7 N          60.3237   87.9865    7.9977 N.pl3   1  UNL1       -0.3041
      8 C          59.5579   86.7717    8.3010 C.3     1  UNL1        0.1122
      9 C          59.2440   86.7119    9.7963 C.3     1  UNL1        0.1122
     10 N          60.4595   86.9690   10.5782 N.pl3   1  UNL1       -0.3041
     11 C          61.2257   88.1836   10.2746 C.3     1  UNL1        0.1122
     12 C          61.5392   88.2438    8.7793 C.3     1  UNL1        0.1122
     13 C          59.6323   90.1673    4.4054 C.ar    1  UNL1        0.0761
     14 C          60.8962   89.6282    4.6861 C.ar    1  UNL1        0.0192
     15 C          61.1199   88.9115    5.8611 C.ar    1  UNL1        0.0160
     16 C          60.0821   88.7171    6.7804 C.ar    1  UNL1        0.0482
     17 C          58.8090   89.2373    6.4990 C.ar    1  UNL1        0.0224
     18 C          58.5621   89.9471    5.3098 C.ar    1  UNL1        0.0929
     19 N          59.8913   92.2644    1.4715 N.ar    1  UNL1       -0.2024
     20 N          58.6646   91.7858    1.3112 N.ar    1  UNL1       -0.1442
     21 C          58.4205   90.9979    2.3819 C.ar    1  UNL1        0.2073
     22 N          59.4736   90.9729    3.2267 N.ar    1  UNL1       -0.2396
     23 C          60.3823   91.7530    2.6145 C.ar    1  UNL1        0.3522
     24 O          61.5537   91.9488    3.0384 O.2     1  UNL1       -0.2444
     25 C          60.5859   93.1182    0.5030 C.3     1  UNL1        0.1099
     26 C          61.5947   92.2741   -0.2847 C.3     1  UNL1        0.0265
     27 C          59.5990   93.2802   -1.8524 C.3     1  UNL1        0.0021
     28 C          59.5561   93.8054   -0.4171 C.3     1  UNL1        0.0245
     29 C          57.1757   90.3868    5.0229 C.2     1  UNL1        0.3395
     30 O          56.8192   91.5763    5.2379 O.2     1  UNL1       -0.2450
     31 O          56.2620   89.4924    4.4712 O.3     1  UNL1       -0.4771
     32 H          55.3152   89.7818    4.2571 H       1  UNL1        0.2954
     33 O          61.4888   84.1220   15.3650 O.3     1  UNL1       -0.4727
     34 C          62.4652   83.0866   15.4885 C.3     1  UNL1        0.2374
     35 C          61.9968   81.8014   14.7927 C.3     1  UNL1        0.1909
     36 C          62.9680   80.6678   14.9473 C.3     1  UNL1        0.1783
     37 O          62.9099   79.9521   13.7557 O.3     1  UNL1       -0.3271
     38 C          62.2599   80.7854   12.8150 C.3     1  UNL1        0.2232
     39 O          61.8940   82.0109   13.4222 O.3     1  UNL1       -0.3258
     40 C          61.0064   80.1017   12.2524 C.ar    1  UNL1        0.0404
     41 C          61.0825   78.7314   11.9185 C.ar    1  UNL1        0.0021
     42 C          59.9671   78.0411   11.4430 C.ar    1  UNL1        0.0113
     43 C          58.7445   78.6947   11.3083 C.ar    1  UNL1        0.0585
     44 CL         57.3427   77.8221   10.7158 Cl      1  UNL1       -0.0822
     45 C          58.6328   80.0394   11.6609 C.ar    1  UNL1        0.0226
     46 C          59.7419   80.7485   12.1402 C.ar    1  UNL1        0.0591
     47 CL         59.4542   82.4239   12.6081 Cl      1  UNL1       -0.0824
     48 C          63.2370   81.1039   11.6691 C.3     1  UNL1        0.1338
     49 N          62.6368   82.0863   10.7365 N.3     1  UNL1       -0.2659
     50 C          63.6564   82.9732   10.1465 C.3     1  UNL1        0.0898
     51 C          62.9822   84.0263    9.2633 C.3     1  UNL1        0.0897
     52 N          62.1994   83.3676    8.2007 N.3     1  UNL1       -0.2691
     53 C          61.5546   84.3788    7.3498 C.3     1  UNL1        0.0897
     54 C          61.1800   82.4804    8.7919 C.3     1  UNL1        0.0897
     55 C          61.8514   81.4264    9.6772 C.3     1  UNL1        0.0898
@<TRIPOS>BOND
     1    27    28    1
     2    28    25    1
     3    25    26    1
     4    25    19    1
     5    19    20   ar
     6    20    21   ar
     7    21    22   ar
     8    22    13    1
     9    13    14   ar
    10    14    15   ar
    11    15    16   ar
    12    16     7    1
    13     7     8    1
    14     8     9    1
    15     9    10    1
    16    10     1    1
    17     1     2   ar
    18     2     3   ar
    19     3     4   ar
    20     4    33    1
    21    33    34    1
    22    34    35    1
    23    35    36    1
    24    36    37    1
    25    37    38    1
    26    38    48    1
    27    48    49    1
    28    49    50    1
    29    50    51    1
    30    51    52    1
    31    52    53    1
    32    52    54    1
    33    54    55    1
    34    38    40    1
    35    40    41   ar
    36    41    42   ar
    37    42    43   ar
    38    43    44    1
    39    43    45   ar
    40    45    46   ar
    41    46    47    1
    42    38    39    1
    43     4     5   ar
    44     5     6   ar
    45    10    11    1
    46    11    12    1
    47    16    17   ar
    48    17    18   ar
    49    18    29    1
    50    29    30    2
    51    29    31    1
    52    22    23   ar
    53    23    24    2
    54    23    19   ar
    55    18    13   ar
    56    12     7    1
    57     6     1   ar
    58    39    35    1
    59    55    49    1
    60    46    40   ar
    61    31    32    1
