@<TRIPOS>MOLECULE
*****
 47 52 0 0 0
SMALL
GASTEIGER

@<TRIPOS>ATOM
      1 C          61.2981   87.5765    8.8044 C.ar    1  UNL1        0.0702
      2 C          60.6223   88.0885    9.9225 C.ar    1  UNL1        0.0191
      3 C          60.6429   87.3927   11.1325 C.ar    1  UNL1        0.0356
      4 C          61.3212   86.1663   11.2155 C.ar    1  UNL1        0.1318
      5 N          61.9626   85.6861   10.1140 N.ar    1  UNL1       -0.2279
      6 C          61.9561   86.3466    8.9262 C.ar    1  UNL1        0.1149
      7 N          61.3830   85.4307   12.4520 N.pl3   1  UNL1       -0.2932
      8 C          62.5877   85.4426   13.2938 C.3     1  UNL1        0.0923
      9 C          62.9916   84.0124   13.6906 C.3     1  UNL1        0.0252
     10 C          61.7831   83.0510   13.8506 C.3     1  UNL1        0.0472
     11 C          60.4772   83.8239   14.1210 C.3     1  UNL1        0.0252
     12 C          60.1686   84.7650   12.9466 C.3     1  UNL1        0.0923
     13 C          62.0536   82.0123   14.9563 C.3     1  UNL1        0.2055
     14 O          61.9052   80.6796   14.4626 O.3     1  UNL1       -0.4742
     15 C          61.5759   80.3206   13.1430 C.ar    1  UNL1        0.1515
     16 C          62.3966   80.6643   12.0523 C.ar    1  UNL1        0.0382
     17 C          62.0549   80.2720   10.7609 C.ar    1  UNL1        0.0034
     18 C          60.8850   79.5520   10.5326 C.ar    1  UNL1        0.0079
     19 C          60.0339   79.2113   11.5968 C.ar    1  UNL1        0.0913
     20 C          60.3981   79.5748   12.9195 C.ar    1  UNL1        0.0822
     21 N          59.6160   79.1501   14.0469 N.pl3   1  UNL1       -0.3545
     22 H          58.9628   78.3394   13.9857 H       1  UNL1        0.1424
     23 H          59.7697   79.5572   14.9958 H       1  UNL1        0.1424
     24 C          58.7586   78.5259   11.2859 C.2     1  UNL1        0.3393
     25 O          57.9894   78.9942   10.4035 O.2     1  UNL1       -0.2450
     26 O          58.3692   77.3962   12.0000 O.3     1  UNL1       -0.4771
     27 H          57.4894   76.9341   11.8036 H       1  UNL1        0.2954
     28 C          60.0822   88.6907    6.8723 C.2     1  UNL1        0.2839
     29 O          58.9501   88.4378    7.3642 O.2     1  UNL1       -0.2665
     30 N          61.2803   88.2474    7.5336 N.am    1  UNL1       -0.2766
     31 H          62.2038   88.4684    7.1017 H       1  UNL1        0.1553
     32 C          57.6016   89.7876    5.1032 C.3     1  UNL1        0.0345
     33 C          59.0714   89.9194    4.8412 C.ar    1  UNL1        0.0202
     34 C          60.1422   89.4271    5.5978 C.ar    1  UNL1        0.1946
     35 O          61.2852   89.6980    4.9923 O.2     1  UNL1       -0.4492
     36 C          61.0126   90.3617    3.8954 C.ar    1  UNL1        0.1452
     37 C          61.9142   90.8539    2.9583 C.ar    1  UNL1        0.0375
     38 C          61.3995   91.5426    1.8457 C.ar    1  UNL1        0.0031
     39 C          59.9991   91.7271    1.6867 C.ar    1  UNL1        0.0002
     40 C          59.1160   91.2078    2.6636 C.ar    1  UNL1        0.0028
     41 C          59.6623   90.5321    3.7548 C.ar    1  UNL1        0.0337
     42 C          59.4666   92.4562    0.5076 C.ar    1  UNL1        0.0000
     43 C          60.3330   93.1613   -0.3492 C.ar    1  UNL1        0.0000
     44 C          59.8286   93.8477   -1.4582 C.ar    1  UNL1        0.0000
     45 C          58.4578   93.8379   -1.7247 C.ar    1  UNL1        0.0000
     46 C          57.5879   93.1420   -0.8824 C.ar    1  UNL1        0.0000
     47 C          58.0865   92.4546    0.2284 C.ar    1  UNL1        0.0000
@<TRIPOS>BOND
     1    32    33    1
     2    33    34   ar
     3    34    28    1
     4    28    29    2
     5    28    30   am
     6    30     1    1
     7     1     2   ar
     8     2     3   ar
     9     3     4   ar
    10     4     7    1
    11     7     8    1
    12     8     9    1
    13     9    10    1
    14    10    13    1
    15    13    14    1
    16    14    15    1
    17    15    16   ar
    18    16    17   ar
    19    17    18   ar
    20    18    19   ar
    21    19    24    1
    22    24    25    2
    23    24    26    1
    24    19    20   ar
    25    20    21    1
    26    10    11    1
    27    11    12    1
    28     4     5   ar
    29     5     6   ar
    30    34    35   ar
    31    35    36   ar
    32    36    37   ar
    33    37    38   ar
    34    38    39   ar
    35    39    42    1
    36    42    43   ar
    37    43    44   ar
    38    44    45   ar
    39    45    46   ar
    40    46    47   ar
    41    39    40   ar
    42    40    41   ar
    43    41    33   ar
    44     6     1   ar
    45    41    36   ar
    46    12     7    1
    47    47    42   ar
    48    20    15   ar
    49    30    31    1
    50    26    27    1
    51    21    22    1
    52    21    23    1
@<TRIPOS>MOLECULE
*****
 47 52 0 0 0
SMALL
GASTEIGER

@<TRIPOS>ATOM
      1 C          61.3266   87.5919    8.7819 C.ar    1  UNL1        0.0702
      2 C          61.1365   88.2925    9.9828 C.ar    1  UNL1        0.0191
      3 C          61.1272   87.6076   11.1992 C.ar    1  UNL1        0.0356
      4 C          61.2829   86.2124   11.2105 C.ar    1  UNL1        0.1318
      5 N          61.4576   85.5539   10.0309 N.ar    1  UNL1       -0.2279
      6 C          61.4703   86.2002    8.8353 C.ar    1  UNL1        0.1149
      7 N          61.3008   85.4740   12.4467 N.pl3   1  UNL1       -0.2932
      8 C          62.4104   85.6016   13.4020 C.3     1  UNL1        0.0923
      9 C          62.9204   84.2167   13.8357 C.3     1  UNL1        0.0252
     10 C          61.8086   83.1338   13.8766 C.3     1  UNL1        0.0472
     11 C          60.4094   83.7646   14.0188 C.3     1  UNL1        0.0252
     12 C          60.1199   84.6812   12.8204 C.3     1  UNL1        0.0923
     13 C          62.0771   82.1170   15.0030 C.3     1  UNL1        0.2055
     14 O          62.1768   80.7879   14.4880 O.3     1  UNL1       -0.4742
     15 C          61.3047   80.1966   13.5562 C.ar    1  UNL1        0.1515
     16 C          60.0497   79.6834   13.9342 C.ar    1  UNL1        0.0382
     17 C          59.1992   79.1267   12.9827 C.ar    1  UNL1        0.0034
     18 C          59.5910   79.0537   11.6484 C.ar    1  UNL1        0.0079
     19 C          60.8453   79.5379   11.2422 C.ar    1  UNL1        0.0913
     20 C          61.6993   80.1418   12.2016 C.ar    1  UNL1        0.0822
     21 N          62.9403   80.7501   11.8106 N.pl3   1  UNL1       -0.3545
     22 H          63.1192   81.0448   10.8264 H       1  UNL1        0.1424
     23 H          63.6515   81.0325   12.5208 H       1  UNL1        0.1424
     24 C          61.2474   79.3515    9.8293 C.2     1  UNL1        0.3393
     25 O          60.8778   80.1798    8.9535 O.2     1  UNL1       -0.2450
     26 O          61.9852   78.2356    9.4441 O.3     1  UNL1       -0.4771
     27 H          62.2475   78.0940    8.4760 H       1  UNL1        0.2954
     28 C          60.1255   88.7237    6.8508 C.2     1  UNL1        0.2839
     29 O          58.9910   88.5031    7.3523 O.2     1  UNL1       -0.2665
     30 N          61.3167   88.2546    7.5067 N.am    1  UNL1       -0.2766
     31 H          62.2424   88.4490    7.0668 H       1  UNL1        0.1553
     32 C          57.6598   89.8484    5.0783 C.3     1  UNL1        0.0345
     33 C          59.1310   89.9542    4.8127 C.ar    1  UNL1        0.0202
     34 C          60.1951   89.4498    5.5709 C.ar    1  UNL1        0.1946
     35 O          61.3412   89.6975    4.9613 O.2     1  UNL1       -0.4492
     36 C          61.0773   90.3576    3.8601 C.ar    1  UNL1        0.1452
     37 C          61.9850   90.8282    2.9177 C.ar    1  UNL1        0.0375
     38 C          61.4794   91.5172    1.8012 C.ar    1  UNL1        0.0031
     39 C          60.0819   91.7235    1.6434 C.ar    1  UNL1        0.0002
     40 C          59.1924   91.2259    2.6258 C.ar    1  UNL1        0.0028
     41 C          59.7297   90.5492    3.7208 C.ar    1  UNL1        0.0337
     42 C          59.5591   92.4526    0.4601 C.ar    1  UNL1        0.0000
     43 C          60.4324   93.1588   -0.3889 C.ar    1  UNL1        0.0000
     44 C          59.9371   93.8453   -1.5019 C.ar    1  UNL1        0.0000
     45 C          58.5686   93.8345   -1.7803 C.ar    1  UNL1        0.0000
     46 C          57.6920   93.1376   -0.9460 C.ar    1  UNL1        0.0000
     47 C          58.1815   92.4501    0.1689 C.ar    1  UNL1        0.0000
@<TRIPOS>BOND
     1    32    33    1
     2    33    34   ar
     3    34    28    1
     4    28    29    2
     5    28    30   am
     6    30     1    1
     7     1     2   ar
     8     2     3   ar
     9     3     4   ar
    10     4     7    1
    11     7     8    1
    12     8     9    1
    13     9    10    1
    14    10    13    1
    15    13    14    1
    16    14    15    1
    17    15    16   ar
    18    16    17   ar
    19    17    18   ar
    20    18    19   ar
    21    19    24    1
    22    24    25    2
    23    24    26    1
    24    19    20   ar
    25    20    21    1
    26    10    11    1
    27    11    12    1
    28     4     5   ar
    29     5     6   ar
    30    34    35   ar
    31    35    36   ar
    32    36    37   ar
    33    37    38   ar
    34    38    39   ar
    35    39    42    1
    36    42    43   ar
    37    43    44   ar
    38    44    45   ar
    39    45    46   ar
    40    46    47   ar
    41    39    40   ar
    42    40    41   ar
    43    41    33   ar
    44     6     1   ar
    45    41    36   ar
    46    12     7    1
    47    47    42   ar
    48    20    15   ar
    49    30    31    1
    50    26    27    1
    51    21    22    1
    52    21    23    1
