@<TRIPOS>MOLECULE
*****
 45 50 0 0 0
SMALL
GASTEIGER

@<TRIPOS>ATOM
      1 C          -7.4375  -14.1787   27.6922 C.ar    1  UNL1        0.0702
      2 C          -8.7172  -14.7133   27.9068 C.ar    1  UNL1        0.0191
      3 C          -9.5402  -14.1822   28.9014 C.ar    1  UNL1        0.0356
      4 C          -9.0695  -13.1289   29.7015 C.ar    1  UNL1        0.1318
      5 N          -7.8207  -12.6326   29.4791 N.ar    1  UNL1       -0.2279
      6 C          -7.0026  -13.1339   28.5164 C.ar    1  UNL1        0.1149
      7 N          -9.8977  -12.5402   30.7221 N.pl3   1  UNL1       -0.2932
      8 C         -11.3506  -12.7594   30.7540 C.3     1  UNL1        0.0923
      9 C         -12.1015  -11.4256   30.9082 C.3     1  UNL1        0.0252
     10 C         -11.3212  -10.3699   31.7368 C.3     1  UNL1        0.0472
     11 C         -10.2836  -11.0336   32.6633 C.3     1  UNL1        0.0252
     12 C          -9.2570  -11.8160   31.8299 C.3     1  UNL1        0.0923
     13 C         -12.2904   -9.4768   32.5355 C.3     1  UNL1        0.2054
     14 O         -12.2031   -8.1134   32.1170 O.3     1  UNL1       -0.4754
     15 C         -11.1634   -7.5578   31.3532 C.ar    1  UNL1        0.1392
     16 C          -9.9850   -8.2629   31.0438 C.ar    1  UNL1        0.0427
     17 C          -8.9818   -7.6570   30.2837 C.ar    1  UNL1        0.0333
     18 I          -7.2166   -8.7210   29.8343 I       1  UNL1       -0.0424
     19 C          -9.1443   -6.3488   29.8207 C.ar    1  UNL1        0.0124
     20 C         -10.3171   -5.6317   30.1136 C.ar    1  UNL1        0.0789
     21 C         -11.3208   -6.2490   30.8805 C.ar    1  UNL1        0.0434
     22 C         -10.4964   -4.2465   29.6250 C.2     1  UNL1        0.3381
     23 O          -9.5829   -3.6779   28.9675 O.2     1  UNL1       -0.2451
     24 O         -11.6773   -3.5567   29.8871 O.3     1  UNL1       -0.4771
     25 H         -11.8101   -2.6081   29.5573 H       1  UNL1        0.2954
     26 C          -6.9143  -14.9293   25.3224 C.2     1  UNL1        0.2839
     27 O          -8.0942  -14.7181   24.9341 O.2     1  UNL1       -0.2665
     28 N          -6.5490  -14.7126   26.6969 N.am    1  UNL1       -0.2766
     29 H          -5.5656  -14.8987   26.9907 H       1  UNL1        0.1553
     30 C          -4.2962  -16.7487   25.8880 C.3     1  UNL1        0.0345
     31 C          -4.8111  -16.2267   24.5810 C.ar    1  UNL1        0.0202
     32 C          -5.9330  -15.4235   24.3411 C.ar    1  UNL1        0.1946
     33 O          -6.0072  -15.1235   23.0563 O.2     1  UNL1       -0.4492
     34 C          -5.0063  -15.7106   22.4470 C.ar    1  UNL1        0.1452
     35 C          -4.7019  -15.6730   21.0907 C.ar    1  UNL1        0.0375
     36 C          -3.5710  -16.3816   20.6484 C.ar    1  UNL1        0.0031
     37 C          -2.7649  -17.1124   21.5631 C.ar    1  UNL1        0.0002
     38 C          -3.1095  -17.1225   22.9362 C.ar    1  UNL1        0.0028
     39 C          -4.2391  -16.4100   23.3383 C.ar    1  UNL1        0.0337
     40 C          -1.5726  -17.8573   21.0847 C.ar    1  UNL1        0.0000
     41 C          -1.2171  -19.0892   21.6664 C.ar    1  UNL1        0.0000
     42 C          -0.0933  -19.7877   21.2144 C.ar    1  UNL1        0.0000
     43 C           0.6863  -19.2672   20.1792 C.ar    1  UNL1        0.0000
     44 C           0.3441  -18.0463   19.5938 C.ar    1  UNL1        0.0000
     45 C          -0.7781  -17.3428   20.0423 C.ar    1  UNL1        0.0000
@<TRIPOS>BOND
     1    30    31    1
     2    31    32   ar
     3    32    26    1
     4    26    27    2
     5    26    28   am
     6    28     1    1
     7     1     2   ar
     8     2     3   ar
     9     3     4   ar
    10     4     7    1
    11     7     8    1
    12     8     9    1
    13     9    10    1
    14    10    13    1
    15    13    14    1
    16    14    15    1
    17    15    16   ar
    18    16    17   ar
    19    17    18    1
    20    17    19   ar
    21    19    20   ar
    22    20    22    1
    23    22    23    2
    24    22    24    1
    25    20    21   ar
    26    10    11    1
    27    11    12    1
    28     4     5   ar
    29     5     6   ar
    30    32    33   ar
    31    33    34   ar
    32    34    35   ar
    33    35    36   ar
    34    36    37   ar
    35    37    40    1
    36    40    41   ar
    37    41    42   ar
    38    42    43   ar
    39    43    44   ar
    40    44    45   ar
    41    37    38   ar
    42    38    39   ar
    43    39    31   ar
    44     6     1   ar
    45    39    34   ar
    46    12     7    1
    47    45    40   ar
    48    21    15   ar
    49    28    29    1
    50    24    25    1
@<TRIPOS>MOLECULE
*****
 45 50 0 0 0
SMALL
GASTEIGER

@<TRIPOS>ATOM
      1 C          -7.4061  -14.1478   27.7104 C.ar    1  UNL1        0.0702
      2 C          -8.6901  -14.6725   27.9234 C.ar    1  UNL1        0.0191
      3 C          -9.5139  -14.1285   28.9104 C.ar    1  UNL1        0.0356
      4 C          -9.0399  -13.0722   29.7045 C.ar    1  UNL1        0.1318
      5 N          -7.7869  -12.5857   29.4838 N.ar    1  UNL1       -0.2279
      6 C          -6.9679  -13.0996   28.5286 C.ar    1  UNL1        0.1149
      7 N          -9.8686  -12.4704   30.7170 N.pl3   1  UNL1       -0.2932
      8 C         -11.3211  -12.6916   30.7527 C.3     1  UNL1        0.0923
      9 C         -12.0743  -11.3571   30.8882 C.3     1  UNL1        0.0252
     10 C         -11.2955  -10.2883   31.7012 C.3     1  UNL1        0.0472
     11 C         -10.2562  -10.9368   32.6366 C.3     1  UNL1        0.0252
     12 C          -9.2287  -11.7293   31.8140 C.3     1  UNL1        0.0923
     13 C         -12.2659   -9.3855   32.4875 C.3     1  UNL1        0.2054
     14 O         -12.3059   -8.0665   31.9397 O.3     1  UNL1       -0.4754
     15 C         -11.2907   -7.4675   31.1757 C.ar    1  UNL1        0.1392
     16 C         -11.3772   -6.1469   30.6959 C.ar    1  UNL1        0.0427
     17 C         -10.3377   -5.6051   29.9362 C.ar    1  UNL1        0.0333
     18 I         -10.4831   -3.6279   29.2153 I       1  UNL1       -0.0424
     19 C          -9.2027   -6.3690   29.6524 C.ar    1  UNL1        0.0124
     20 C          -9.0955   -7.6868   30.1289 C.ar    1  UNL1        0.0789
     21 C         -10.1471   -8.2243   30.8916 C.ar    1  UNL1        0.0434
     22 C          -7.8954   -8.5007   29.8334 C.2     1  UNL1        0.3381
     23 O          -6.7478   -8.0841   30.1485 O.2     1  UNL1       -0.2451
     24 O          -8.0225   -9.7361   29.2036 O.3     1  UNL1       -0.4771
     25 H          -7.2074  -10.3010   28.9967 H       1  UNL1        0.2954
     26 C          -6.8783  -14.9221   25.3493 C.2     1  UNL1        0.2839
     27 O          -8.0557  -14.7083   24.9548 O.2     1  UNL1       -0.2665
     28 N          -6.5168  -14.6950   26.7230 N.am    1  UNL1       -0.2766
     29 H          -5.5354  -14.8835   27.0220 H       1  UNL1        0.1553
     30 C          -4.2901  -16.7773   25.9359 C.3     1  UNL1        0.0345
     31 C          -4.7873  -16.2485   24.6248 C.ar    1  UNL1        0.0202
     32 C          -5.8960  -15.4299   24.3759 C.ar    1  UNL1        0.1946
     33 O          -5.9558  -15.1291   23.0905 O.2     1  UNL1       -0.4492
     34 C          -4.9581  -15.7301   22.4893 C.ar    1  UNL1        0.1452
     35 C          -4.6424  -15.6969   21.1355 C.ar    1  UNL1        0.0375
     36 C          -3.5178  -16.4212   20.7023 C.ar    1  UNL1        0.0031
     37 C          -2.7293  -17.1628   21.6236 C.ar    1  UNL1        0.0002
     38 C          -3.0850  -17.1679   22.9938 C.ar    1  UNL1        0.0028
     39 C          -4.2079  -16.4398   23.3868 C.ar    1  UNL1        0.0337
     40 C          -1.5436  -17.9241   21.1548 C.ar    1  UNL1        0.0000
     41 C          -0.6472  -17.3552   20.2300 C.ar    1  UNL1        0.0000
     42 C           0.4677  -18.0749   19.7897 C.ar    1  UNL1        0.0000
     43 C           0.7014  -19.3667   20.2661 C.ar    1  UNL1        0.0000
     44 C          -0.1801  -19.9421   21.1839 C.ar    1  UNL1        0.0000
     45 C          -1.2973  -19.2276   21.6271 C.ar    1  UNL1        0.0000
@<TRIPOS>BOND
     1    30    31    1
     2    31    32   ar
     3    32    26    1
     4    26    27    2
     5    26    28   am
     6    28     1    1
     7     1     2   ar
     8     2     3   ar
     9     3     4   ar
    10     4     7    1
    11     7     8    1
    12     8     9    1
    13     9    10    1
    14    10    13    1
    15    13    14    1
    16    14    15    1
    17    15    16   ar
    18    16    17   ar
    19    17    18    1
    20    17    19   ar
    21    19    20   ar
    22    20    22    1
    23    22    23    2
    24    22    24    1
    25    20    21   ar
    26    10    11    1
    27    11    12    1
    28     4     5   ar
    29     5     6   ar
    30    32    33   ar
    31    33    34   ar
    32    34    35   ar
    33    35    36   ar
    34    36    37   ar
    35    37    40    1
    36    40    41   ar
    37    41    42   ar
    38    42    43   ar
    39    43    44   ar
    40    44    45   ar
    41    37    38   ar
    42    38    39   ar
    43    39    31   ar
    44     6     1   ar
    45    39    34   ar
    46    12     7    1
    47    45    40   ar
    48    21    15   ar
    49    28    29    1
    50    24    25    1
@<TRIPOS>MOLECULE
*****
 45 50 0 0 0
SMALL
GASTEIGER

@<TRIPOS>ATOM
      1 C          -7.0379  -15.0360   26.8248 C.ar    1  UNL1        0.0702
      2 C          -8.3882  -15.4178   26.8444 C.ar    1  UNL1        0.0191
      3 C          -9.2861  -14.7722   27.6963 C.ar    1  UNL1        0.0356
      4 C          -8.8244  -13.7583   28.5507 C.ar    1  UNL1        0.1318
      5 N          -7.5077  -13.4114   28.5190 N.ar    1  UNL1       -0.2279
      6 C          -6.6160  -14.0259   27.6976 C.ar    1  UNL1        0.1149
      7 N          -9.7247  -13.0544   29.4271 N.pl3   1  UNL1       -0.2932
      8 C         -10.4329  -11.8432   28.9895 C.3     1  UNL1        0.0923
      9 C         -10.2808  -10.7164   30.0258 C.3     1  UNL1        0.0252
     10 C         -10.1734  -11.2312   31.4864 C.3     1  UNL1        0.0472
     11 C         -10.7881  -12.6366   31.6365 C.3     1  UNL1        0.0252
     12 C         -10.0425  -13.6365   30.7394 C.3     1  UNL1        0.0923
     13 C         -10.8198  -10.2330   32.4666 C.3     1  UNL1        0.2054
     14 O          -9.8670   -9.2779   32.9372 O.3     1  UNL1       -0.4754
     15 C          -9.2615   -8.2762   32.1605 C.ar    1  UNL1        0.1392
     16 C          -7.8650   -8.1380   32.0501 C.ar    1  UNL1        0.0427
     17 C          -7.3188   -7.1188   31.2662 C.ar    1  UNL1        0.0333
     18 I          -5.2245   -6.9165   31.1160 I       1  UNL1       -0.0424
     19 C          -8.1557   -6.2334   30.5821 C.ar    1  UNL1        0.0124
     20 C          -9.5524   -6.3604   30.6746 C.ar    1  UNL1        0.0789
     21 C         -10.0931   -7.3882   31.4670 C.ar    1  UNL1        0.0434
     22 C         -10.4444   -5.4272   29.9513 C.2     1  UNL1        0.3381
     23 O          -9.9964   -4.3410   29.4936 O.2     1  UNL1       -0.2451
     24 O         -11.7890   -5.7401   29.7692 O.3     1  UNL1       -0.4771
     25 H         -12.4081   -5.1082   29.2756 H       1  UNL1        0.2954
     26 C          -5.8554  -15.3597   24.6000 C.2     1  UNL1        0.2839
     27 O          -6.5719  -14.4951   24.0285 O.2     1  UNL1       -0.2665
     28 N          -6.0759  -15.6917   25.9823 N.am    1  UNL1       -0.2766
     29 H          -5.4695  -16.4135   26.4286 H       1  UNL1        0.1553
     30 C          -3.6538  -17.4911   25.6467 C.3     1  UNL1        0.0345
     31 C          -3.8683  -16.9695   24.2582 C.ar    1  UNL1        0.0202
     32 C          -4.8087  -16.0327   23.8115 C.ar    1  UNL1        0.1946
     33 O          -4.6286  -15.7903   22.5250 O.2     1  UNL1       -0.4492
     34 C          -3.6368  -16.5393   22.1088 C.ar    1  UNL1        0.1452
     35 C          -3.1133  -16.6120   20.8227 C.ar    1  UNL1        0.0375
     36 C          -2.0393  -17.4907   20.5962 C.ar    1  UNL1        0.0031
     37 C          -1.5067  -18.2785   21.6528 C.ar    1  UNL1        0.0002
     38 C          -2.0683  -18.1721   22.9479 C.ar    1  UNL1        0.0028
     39 C          -3.1339  -17.2918   23.1349 C.ar    1  UNL1        0.0337
     40 C          -0.3722  -19.2032   21.4020 C.ar    1  UNL1        0.0000
     41 C          -0.5197  -20.5888   21.6041 C.ar    1  UNL1        0.0000
     42 C           0.5507  -21.4568   21.3681 C.ar    1  UNL1        0.0000
     43 C           1.7771  -20.9543   20.9280 C.ar    1  UNL1        0.0000
     44 C           1.9362  -19.5820   20.7235 C.ar    1  UNL1        0.0000
     45 C           0.8695  -18.7089   20.9588 C.ar    1  UNL1        0.0000
@<TRIPOS>BOND
     1    30    31    1
     2    31    32   ar
     3    32    26    1
     4    26    27    2
     5    26    28   am
     6    28     1    1
     7     1     2   ar
     8     2     3   ar
     9     3     4   ar
    10     4     7    1
    11     7     8    1
    12     8     9    1
    13     9    10    1
    14    10    13    1
    15    13    14    1
    16    14    15    1
    17    15    16   ar
    18    16    17   ar
    19    17    18    1
    20    17    19   ar
    21    19    20   ar
    22    20    22    1
    23    22    23    2
    24    22    24    1
    25    20    21   ar
    26    10    11    1
    27    11    12    1
    28     4     5   ar
    29     5     6   ar
    30    32    33   ar
    31    33    34   ar
    32    34    35   ar
    33    35    36   ar
    34    36    37   ar
    35    37    40    1
    36    40    41   ar
    37    41    42   ar
    38    42    43   ar
    39    43    44   ar
    40    44    45   ar
    41    37    38   ar
    42    38    39   ar
    43    39    31   ar
    44     6     1   ar
    45    39    34   ar
    46    12     7    1
    47    45    40   ar
    48    21    15   ar
    49    28    29    1
    50    24    25    1
@<TRIPOS>MOLECULE
*****
 45 50 0 0 0
SMALL
GASTEIGER

@<TRIPOS>ATOM
      1 C          -6.9469  -15.1007   26.8263 C.ar    1  UNL1        0.0702
      2 C          -8.2887  -15.4993   26.9277 C.ar    1  UNL1        0.0191
      3 C          -9.1546  -14.8294   27.7938 C.ar    1  UNL1        0.0356
      4 C          -8.6683  -13.7734   28.5807 C.ar    1  UNL1        0.1318
      5 N          -7.3601  -13.4106   28.4704 N.ar    1  UNL1       -0.2279
      6 C          -6.4994  -14.0481   27.6337 C.ar    1  UNL1        0.1149
      7 N          -9.5363  -13.0442   29.4688 N.pl3   1  UNL1       -0.2932
      8 C          -9.9672  -11.6718   29.1670 C.3     1  UNL1        0.0923
      9 C          -9.7541  -10.7522   30.3817 C.3     1  UNL1        0.0252
     10 C          -9.9179  -11.4796   31.7432 C.3     1  UNL1        0.0472
     11 C         -10.7777  -12.7513   31.6043 C.3     1  UNL1        0.0252
     12 C         -10.1090  -13.7361   30.6331 C.3     1  UNL1        0.0923
     13 C         -10.5004  -10.5269   32.8054 C.3     1  UNL1        0.2054
     14 O          -9.4718   -9.7577   33.4315 O.3     1  UNL1       -0.4754
     15 C          -8.7331   -8.7304   32.8214 C.ar    1  UNL1        0.1392
     16 C          -9.2887   -7.8550   31.8693 C.ar    1  UNL1        0.0427
     17 C          -8.5039   -6.8540   31.2918 C.ar    1  UNL1        0.0333
     18 I          -9.3457   -5.5541   29.8595 I       1  UNL1       -0.0424
     19 C          -7.1636   -6.7118   31.6600 C.ar    1  UNL1        0.0124
     20 C          -6.5935   -7.5720   32.6142 C.ar    1  UNL1        0.0789
     21 C          -7.3905   -8.5774   33.1891 C.ar    1  UNL1        0.0434
     22 C          -5.1751   -7.4258   33.0099 C.2     1  UNL1        0.3381
     23 O          -4.3556   -6.8465   32.2466 O.2     1  UNL1       -0.2451
     24 O          -4.7314   -7.9276   34.2307 O.3     1  UNL1       -0.4771
     25 H          -3.7626   -7.8328   34.5111 H       1  UNL1        0.2954
     26 C          -5.7559  -15.4031   24.6031 C.2     1  UNL1        0.2839
     27 O          -6.4085  -14.4710   24.0617 O.2     1  UNL1       -0.2665
     28 N          -6.0164  -15.7794   25.9669 N.am    1  UNL1       -0.2766
     29 H          -5.4629  -16.5567   26.3880 H       1  UNL1        0.1553
     30 C          -3.5004  -17.4822   25.6398 C.3     1  UNL1        0.0345
     31 C          -3.7792  -17.0212   24.2414 C.ar    1  UNL1        0.0202
     32 C          -4.7427  -16.1068   23.7977 C.ar    1  UNL1        0.1946
     33 O          -4.6215  -15.9193   22.4953 O.2     1  UNL1       -0.4492
     34 C          -3.6461  -16.6831   22.0673 C.ar    1  UNL1        0.1452
     35 C          -3.1804  -16.8096   20.7633 C.ar    1  UNL1        0.0375
     36 C          -2.1138  -17.6946   20.5264 C.ar    1  UNL1        0.0031
     37 C          -1.5310  -18.4350   21.5907 C.ar    1  UNL1        0.0002
     38 C          -2.0344  -18.2745   22.9041 C.ar    1  UNL1        0.0028
     39 C          -3.0944  -17.3896   23.1010 C.ar    1  UNL1        0.0337
     40 C          -0.4049  -19.3669   21.3289 C.ar    1  UNL1        0.0000
     41 C           0.7999  -18.8957   20.7732 C.ar    1  UNL1        0.0000
     42 C           1.8582  -19.7758   20.5269 C.ar    1  UNL1        0.0000
     43 C           1.7275  -21.1323   20.8321 C.ar    1  UNL1        0.0000
     44 C           0.5377  -21.6121   21.3838 C.ar    1  UNL1        0.0000
     45 C          -0.5244  -20.7368   21.6315 C.ar    1  UNL1        0.0000
@<TRIPOS>BOND
     1    30    31    1
     2    31    32   ar
     3    32    26    1
     4    26    27    2
     5    26    28   am
     6    28     1    1
     7     1     2   ar
     8     2     3   ar
     9     3     4   ar
    10     4     7    1
    11     7     8    1
    12     8     9    1
    13     9    10    1
    14    10    13    1
    15    13    14    1
    16    14    15    1
    17    15    16   ar
    18    16    17   ar
    19    17    18    1
    20    17    19   ar
    21    19    20   ar
    22    20    22    1
    23    22    23    2
    24    22    24    1
    25    20    21   ar
    26    10    11    1
    27    11    12    1
    28     4     5   ar
    29     5     6   ar
    30    32    33   ar
    31    33    34   ar
    32    34    35   ar
    33    35    36   ar
    34    36    37   ar
    35    37    40    1
    36    40    41   ar
    37    41    42   ar
    38    42    43   ar
    39    43    44   ar
    40    44    45   ar
    41    37    38   ar
    42    38    39   ar
    43    39    31   ar
    44     6     1   ar
    45    39    34   ar
    46    12     7    1
    47    45    40   ar
    48    21    15   ar
    49    28    29    1
    50    24    25    1
@<TRIPOS>MOLECULE
*****
 45 50 0 0 0
SMALL
GASTEIGER

@<TRIPOS>ATOM
      1 C          -6.5526  -14.7126   27.0376 C.ar    1  UNL1        0.0702
      2 C          -7.8820  -15.1111   27.2456 C.ar    1  UNL1        0.0191
      3 C          -8.6906  -14.4112   28.1428 C.ar    1  UNL1        0.0356
      4 C          -8.1578  -13.3242   28.8538 C.ar    1  UNL1        0.1318
      5 N          -6.8622  -12.9618   28.6405 N.ar    1  UNL1       -0.2279
      6 C          -6.0570  -13.6283   27.7718 C.ar    1  UNL1        0.1149
      7 N          -8.9673  -12.5641   29.7708 N.pl3   1  UNL1       -0.2932
      8 C         -10.3529  -12.9494   30.0738 C.3     1  UNL1        0.0923
      9 C         -11.2969  -11.7416   29.9453 C.3     1  UNL1        0.0252
     10 C         -10.6256  -10.3913   30.3140 C.3     1  UNL1        0.0472
     11 C          -9.4051  -10.5994   31.2320 C.3     1  UNL1        0.0252
     12 C          -8.3500  -11.4592   30.5193 C.3     1  UNL1        0.0923
     13 C         -11.6463   -9.4302   30.9539 C.3     1  UNL1        0.2054
     14 O         -12.3345  -10.0532   32.0401 O.3     1  UNL1       -0.4754
     15 C         -11.8997  -11.1923   32.7376 C.ar    1  UNL1        0.1392
     16 C         -12.6290  -12.3962   32.7598 C.ar    1  UNL1        0.0427
     17 C         -12.1495  -13.4960   33.4752 C.ar    1  UNL1        0.0333
     18 I         -13.2560  -15.2916   33.5082 I       1  UNL1       -0.0424
     19 C         -10.9396  -13.4097   34.1688 C.ar    1  UNL1        0.0124
     20 C         -10.1942  -12.2183   34.1523 C.ar    1  UNL1        0.0789
     21 C         -10.6853  -11.1161   33.4307 C.ar    1  UNL1        0.0434
     22 C          -8.9113  -12.1207   34.8833 C.2     1  UNL1        0.3381
     23 O          -8.6807  -12.8692   35.8715 O.2     1  UNL1       -0.2451
     24 O          -7.9452  -11.1998   34.4863 O.3     1  UNL1       -0.4771
     25 H          -7.0637  -11.1249   34.9799 H       1  UNL1        0.2954
     26 C          -5.6744  -15.2479   24.7148 C.2     1  UNL1        0.2839
     27 O          -6.5157  -14.4914   24.1602 O.2     1  UNL1       -0.2665
     28 N          -5.6790  -15.4209   26.1429 N.am    1  UNL1       -0.2766
     29 H          -4.9727  -16.0557   26.5744 H       1  UNL1        0.1553
     30 C          -3.4478  -17.4111   25.6355 C.3     1  UNL1        0.0345
     31 C          -3.7581  -16.9134   24.2564 C.ar    1  UNL1        0.0202
     32 C          -4.7086  -15.9631   23.8628 C.ar    1  UNL1        0.1946
     33 O          -4.6240  -15.7521   22.5611 O.2     1  UNL1       -0.4492
     34 C          -3.6854  -16.5341   22.0863 C.ar    1  UNL1        0.1452
     35 C          -3.2660  -16.6467   20.7654 C.ar    1  UNL1        0.0375
     36 C          -2.2336  -17.5564   20.4761 C.ar    1  UNL1        0.0031
     37 C          -1.6385  -18.3350   21.5058 C.ar    1  UNL1        0.0002
     38 C          -2.0944  -18.1876   22.8379 C.ar    1  UNL1        0.0028
     39 C          -3.1214  -17.2773   23.0870 C.ar    1  UNL1        0.0337
     40 C          -0.5488  -19.2927   21.1887 C.ar    1  UNL1        0.0000
     41 C          -0.5945  -20.6146   21.6714 C.ar    1  UNL1        0.0000
     42 C           0.4336  -21.5137   21.3720 C.ar    1  UNL1        0.0000
     43 C           1.5158  -21.1061   20.5891 C.ar    1  UNL1        0.0000
     44 C           1.5727  -19.7977   20.1041 C.ar    1  UNL1        0.0000
     45 C           0.5480  -18.8937   20.4011 C.ar    1  UNL1        0.0000
@<TRIPOS>BOND
     1    30    31    1
     2    31    32   ar
     3    32    26    1
     4    26    27    2
     5    26    28   am
     6    28     1    1
     7     1     2   ar
     8     2     3   ar
     9     3     4   ar
    10     4     7    1
    11     7     8    1
    12     8     9    1
    13     9    10    1
    14    10    13    1
    15    13    14    1
    16    14    15    1
    17    15    16   ar
    18    16    17   ar
    19    17    18    1
    20    17    19   ar
    21    19    20   ar
    22    20    22    1
    23    22    23    2
    24    22    24    1
    25    20    21   ar
    26    10    11    1
    27    11    12    1
    28     4     5   ar
    29     5     6   ar
    30    32    33   ar
    31    33    34   ar
    32    34    35   ar
    33    35    36   ar
    34    36    37   ar
    35    37    40    1
    36    40    41   ar
    37    41    42   ar
    38    42    43   ar
    39    43    44   ar
    40    44    45   ar
    41    37    38   ar
    42    38    39   ar
    43    39    31   ar
    44     6     1   ar
    45    39    34   ar
    46    12     7    1
    47    45    40   ar
    48    21    15   ar
    49    28    29    1
    50    24    25    1
@<TRIPOS>MOLECULE
*****
 45 50 0 0 0
SMALL
GASTEIGER

@<TRIPOS>ATOM
      1 C          -8.5903  -15.7550   25.3368 C.ar    1  UNL1        0.0702
      2 C          -9.4997  -16.8231   25.2960 C.ar    1  UNL1        0.0191
      3 C          -9.3451  -17.8388   24.3509 C.ar    1  UNL1        0.0356
      4 C          -8.2908  -17.7708   23.4263 C.ar    1  UNL1        0.1318
      5 N          -7.4260  -16.7199   23.4810 N.ar    1  UNL1       -0.2279
      6 C          -7.5571  -15.7203   24.3925 C.ar    1  UNL1        0.1149
      7 N          -8.0858  -18.8108   22.4515 N.pl3   1  UNL1       -0.2932
      8 C          -7.6944  -20.1705   22.8490 C.3     1  UNL1        0.0923
      9 C          -6.4957  -20.6595   22.0180 C.3     1  UNL1        0.0252
     10 C          -6.4724  -20.0906   20.5739 C.3     1  UNL1        0.0472
     11 C          -7.8767  -19.6478   20.1185 C.3     1  UNL1        0.0252
     12 C          -8.4052  -18.5395   21.0420 C.3     1  UNL1        0.0923
     13 C          -5.8655  -21.1130   19.5934 C.3     1  UNL1        0.2054
     14 O          -4.4902  -20.8273   19.3320 O.3     1  UNL1       -0.4754
     15 C          -3.8276  -19.6319   19.6563 C.ar    1  UNL1        0.1392
     16 C          -2.4269  -19.5429   19.7649 C.ar    1  UNL1        0.0427
     17 C          -1.8229  -18.3275   20.0955 C.ar    1  UNL1        0.0333
     18 I           0.2764  -18.2089   20.2640 I       1  UNL1       -0.0424
     19 C          -2.6053  -17.1908   20.3149 C.ar    1  UNL1        0.0124
     20 C          -4.0048  -17.2589   20.2040 C.ar    1  UNL1        0.0789
     21 C          -4.6040  -18.4866   19.8722 C.ar    1  UNL1        0.0434
     22 C          -4.8391  -16.0585   20.4334 C.2     1  UNL1        0.3381
     23 O          -4.7683  -15.0723   19.6508 O.2     1  UNL1       -0.2451
     24 O          -5.7116  -16.0065   21.5175 O.3     1  UNL1       -0.4771
     25 H          -6.2870  -15.1894   21.6835 H       1  UNL1        0.2954
     26 C          -8.3132  -14.7467   27.6518 C.2     1  UNL1        0.2839
     27 O          -7.8586  -15.8211   28.1278 O.2     1  UNL1       -0.2665
     28 N          -8.7280  -14.6762   26.2762 N.am    1  UNL1       -0.2766
     29 H          -9.1034  -13.7745   25.9101 H       1  UNL1        0.1553
     30 C          -6.0288  -12.5634   28.3591 C.3     1  UNL1        0.0345
     31 C          -7.4482  -12.6239   28.8360 C.ar    1  UNL1        0.0202
     32 C          -8.4289  -13.5802   28.5441 C.ar    1  UNL1        0.1946
     33 O          -9.5346  -13.3128   29.2165 O.2     1  UNL1       -0.4492
     34 C          -9.3303  -12.2193   29.9096 C.ar    1  UNL1        0.1452
     35 C         -10.2269  -11.5719   30.7525 C.ar    1  UNL1        0.0375
     36 C          -9.7945  -10.4028   31.4029 C.ar    1  UNL1        0.0031
     37 C          -8.4795   -9.9013   31.2031 C.ar    1  UNL1        0.0002
     38 C          -7.5978  -10.5928   30.3378 C.ar    1  UNL1        0.0028
     39 C          -8.0618  -11.7477   29.7082 C.ar    1  UNL1        0.0337
     40 C          -8.0336   -8.6655   31.8952 C.ar    1  UNL1        0.0000
     41 C          -7.0090   -8.7151   32.8597 C.ar    1  UNL1        0.0000
     42 C          -6.5921   -7.5498   33.5105 C.ar    1  UNL1        0.0000
     43 C          -7.1902   -6.3249   33.2069 C.ar    1  UNL1        0.0000
     44 C          -8.2073   -6.2624   32.2521 C.ar    1  UNL1        0.0000
     45 C          -8.6291   -7.4246   31.5987 C.ar    1  UNL1        0.0000
@<TRIPOS>BOND
     1    30    31    1
     2    31    32   ar
     3    32    26    1
     4    26    27    2
     5    26    28   am
     6    28     1    1
     7     1     2   ar
     8     2     3   ar
     9     3     4   ar
    10     4     7    1
    11     7     8    1
    12     8     9    1
    13     9    10    1
    14    10    13    1
    15    13    14    1
    16    14    15    1
    17    15    16   ar
    18    16    17   ar
    19    17    18    1
    20    17    19   ar
    21    19    20   ar
    22    20    22    1
    23    22    23    2
    24    22    24    1
    25    20    21   ar
    26    10    11    1
    27    11    12    1
    28     4     5   ar
    29     5     6   ar
    30    32    33   ar
    31    33    34   ar
    32    34    35   ar
    33    35    36   ar
    34    36    37   ar
    35    37    40    1
    36    40    41   ar
    37    41    42   ar
    38    42    43   ar
    39    43    44   ar
    40    44    45   ar
    41    37    38   ar
    42    38    39   ar
    43    39    31   ar
    44     6     1   ar
    45    39    34   ar
    46    12     7    1
    47    45    40   ar
    48    21    15   ar
    49    28    29    1
    50    24    25    1
@<TRIPOS>MOLECULE
*****
 45 50 0 0 0
SMALL
GASTEIGER

@<TRIPOS>ATOM
      1 C          -8.4703  -15.6749   25.3027 C.ar    1  UNL1        0.0702
      2 C          -9.4124  -16.7127   25.2319 C.ar    1  UNL1        0.0191
      3 C          -9.2616  -17.7321   24.2902 C.ar    1  UNL1        0.0356
      4 C          -8.1775  -17.6978   23.3988 C.ar    1  UNL1        0.1318
      5 N          -7.2811  -16.6756   23.4821 N.ar    1  UNL1       -0.2279
      6 C          -7.4078  -15.6730   24.3910 C.ar    1  UNL1        0.1149
      7 N          -7.9764  -18.7431   22.4288 N.pl3   1  UNL1       -0.2932
      8 C          -7.7566  -20.1379   22.8366 C.3     1  UNL1        0.0923
      9 C          -6.5332  -20.7316   22.1172 C.3     1  UNL1        0.0252
     10 C          -6.3134  -20.1535   20.6934 C.3     1  UNL1        0.0472
     11 C          -7.6176  -19.5735   20.1117 C.3     1  UNL1        0.0252
     12 C          -8.1277  -18.4287   21.0004 C.3     1  UNL1        0.0923
     13 C          -5.7120  -21.2199   19.7574 C.3     1  UNL1        0.2054
     14 O          -4.3277  -20.9690   19.5077 O.3     1  UNL1       -0.4754
     15 C          -3.5246  -20.0511   20.2045 C.ar    1  UNL1        0.1392
     16 C          -4.0020  -18.8021   20.6446 C.ar    1  UNL1        0.0427
     17 C          -3.1554  -17.9271   21.3295 C.ar    1  UNL1        0.0333
     18 I          -3.8801  -16.0545   21.9760 I       1  UNL1       -0.0424
     19 C          -1.8306  -18.2887   21.5869 C.ar    1  UNL1        0.0124
     20 C          -1.3382  -19.5345   21.1615 C.ar    1  UNL1        0.0789
     21 C          -2.1971  -20.4081   20.4717 C.ar    1  UNL1        0.0434
     22 C           0.0633  -19.9243   21.4324 C.2     1  UNL1        0.3381
     23 O           0.3710  -21.1379   21.5828 O.2     1  UNL1       -0.2451
     24 O           1.0571  -18.9532   21.5239 O.3     1  UNL1       -0.4771
     25 H           2.0196  -19.2095   21.7092 H       1  UNL1        0.2954
     26 C          -8.4218  -14.7296   27.6600 C.2     1  UNL1        0.2839
     27 O          -8.2017  -15.8604   28.1703 O.2     1  UNL1       -0.2665
     28 N          -8.6019  -14.5929   26.2394 N.am    1  UNL1       -0.2766
     29 H          -8.7859  -13.6449   25.8451 H       1  UNL1        0.1553
     30 C          -6.0931  -12.5938   28.3677 C.3     1  UNL1        0.0345
     31 C          -7.5122  -12.6277   28.8481 C.ar    1  UNL1        0.0202
     32 C          -8.5122  -13.5637   28.5561 C.ar    1  UNL1        0.1946
     33 O          -9.6108  -13.2767   29.2321 O.2     1  UNL1       -0.4492
     34 C          -9.3832  -12.1894   29.9279 C.ar    1  UNL1        0.1452
     35 C         -10.2648  -11.5271   30.7750 C.ar    1  UNL1        0.0375
     36 C          -9.8078  -10.3685   31.4276 C.ar    1  UNL1        0.0031
     37 C          -8.4837   -9.8925   31.2259 C.ar    1  UNL1        0.0002
     38 C          -7.6181  -10.5985   30.3563 C.ar    1  UNL1        0.0028
     39 C          -8.1062  -11.7422   29.7245 C.ar    1  UNL1        0.0337
     40 C          -8.0119   -8.6677   31.9205 C.ar    1  UNL1        0.0000
     41 C          -6.9833   -8.7397   32.8793 C.ar    1  UNL1        0.0000
     42 C          -6.5419   -7.5848   33.5324 C.ar    1  UNL1        0.0000
     43 C          -7.1192   -6.3480   33.2368 C.ar    1  UNL1        0.0000
     44 C          -8.1400   -6.2633   32.2875 C.ar    1  UNL1        0.0000
     45 C          -8.5863   -7.4150   31.6319 C.ar    1  UNL1        0.0000
@<TRIPOS>BOND
     1    30    31    1
     2    31    32   ar
     3    32    26    1
     4    26    27    2
     5    26    28   am
     6    28     1    1
     7     1     2   ar
     8     2     3   ar
     9     3     4   ar
    10     4     7    1
    11     7     8    1
    12     8     9    1
    13     9    10    1
    14    10    13    1
    15    13    14    1
    16    14    15    1
    17    15    16   ar
    18    16    17   ar
    19    17    18    1
    20    17    19   ar
    21    19    20   ar
    22    20    22    1
    23    22    23    2
    24    22    24    1
    25    20    21   ar
    26    10    11    1
    27    11    12    1
    28     4     5   ar
    29     5     6   ar
    30    32    33   ar
    31    33    34   ar
    32    34    35   ar
    33    35    36   ar
    34    36    37   ar
    35    37    40    1
    36    40    41   ar
    37    41    42   ar
    38    42    43   ar
    39    43    44   ar
    40    44    45   ar
    41    37    38   ar
    42    38    39   ar
    43    39    31   ar
    44     6     1   ar
    45    39    34   ar
    46    12     7    1
    47    45    40   ar
    48    21    15   ar
    49    28    29    1
    50    24    25    1
@<TRIPOS>MOLECULE
*****
 45 50 0 0 0
SMALL
GASTEIGER

@<TRIPOS>ATOM
      1 C          -6.9678  -15.0126   26.9659 C.ar    1  UNL1        0.0702
      2 C          -6.5229  -14.0102   27.8415 C.ar    1  UNL1        0.0191
      3 C          -7.4319  -13.3512   28.6711 C.ar    1  UNL1        0.0356
      4 C          -8.7953  -13.6792   28.6045 C.ar    1  UNL1        0.1318
      5 N          -9.2035  -14.6499   27.7406 N.ar    1  UNL1       -0.2279
      6 C          -8.3364  -15.3047   26.9241 C.ar    1  UNL1        0.1149
      7 N          -9.7594  -13.0371   29.4602 N.pl3   1  UNL1       -0.2932
      8 C         -10.4958  -11.8414   29.0267 C.3     1  UNL1        0.0923
      9 C         -10.4329  -10.7413   30.1003 C.3     1  UNL1        0.0252
     10 C         -10.3676  -11.2954   31.5489 C.3     1  UNL1        0.0472
     11 C         -10.9318  -12.7273   31.6320 C.3     1  UNL1        0.0252
     12 C         -10.1096  -13.6703   30.7403 C.3     1  UNL1        0.0923
     13 C         -11.0944  -10.3528   32.5279 C.3     1  UNL1        0.2054
     14 O         -10.2517   -9.2700   32.9269 O.3     1  UNL1       -0.4754
     15 C          -9.0399   -8.9090   32.3151 C.ar    1  UNL1        0.1392
     16 C          -8.7843   -7.6087   31.8402 C.ar    1  UNL1        0.0427
     17 C          -7.5615   -7.3084   31.2354 C.ar    1  UNL1        0.0333
     18 I          -7.1939   -5.3584   30.5197 I       1  UNL1       -0.0424
     19 C          -6.5818   -8.2959   31.1032 C.ar    1  UNL1        0.0124
     20 C          -6.8163   -9.5978   31.5777 C.ar    1  UNL1        0.0789
     21 C          -8.0505   -9.8912   32.1838 C.ar    1  UNL1        0.0434
     22 C          -5.7824  -10.6479   31.4424 C.2     1  UNL1        0.3381
     23 O          -5.5926  -11.2182   30.3339 O.2     1  UNL1       -0.2451
     24 O          -5.0083  -11.0167   32.5396 O.3     1  UNL1       -0.4771
     25 H          -4.2980  -11.7343   32.4576 H       1  UNL1        0.2954
     26 C          -5.8667  -15.3354   24.6996 C.2     1  UNL1        0.2839
     27 O          -6.5449  -14.4122   24.1748 O.2     1  UNL1       -0.2665
     28 N          -6.0699  -15.6972   26.0770 N.am    1  UNL1       -0.2766
     29 H          -5.4962  -16.4675   26.4840 H       1  UNL1        0.1553
     30 C          -3.5094  -17.3299   25.6743 C.3     1  UNL1        0.0345
     31 C          -3.8763  -16.9223   24.2796 C.ar    1  UNL1        0.0202
     32 C          -4.8840  -16.0441   23.8616 C.ar    1  UNL1        0.1946
     33 O          -4.8398  -15.8981   22.5490 O.2     1  UNL1       -0.4492
     34 C          -3.8723  -16.6549   22.0917 C.ar    1  UNL1        0.1452
     35 C          -3.4773  -16.8154   20.7682 C.ar    1  UNL1        0.0375
     36 C          -2.4053  -17.6850   20.5005 C.ar    1  UNL1        0.0031
     37 C          -1.7471  -18.3765   21.5537 C.ar    1  UNL1        0.0002
     38 C          -2.1802  -18.1826   22.8874 C.ar    1  UNL1        0.0028
     39 C          -3.2478  -17.3143   23.1150 C.ar    1  UNL1        0.0337
     40 C          -0.6160  -19.2925   21.2591 C.ar    1  UNL1        0.0000
     41 C          -0.6156  -20.6113   21.7522 C.ar    1  UNL1        0.0000
     42 C           0.4514  -21.4711   21.4740 C.ar    1  UNL1        0.0000
     43 C           1.5271  -21.0267   20.7021 C.ar    1  UNL1        0.0000
     44 C           1.5385  -19.7210   20.2070 C.ar    1  UNL1        0.0000
     45 C           0.4747  -18.8563   20.4828 C.ar    1  UNL1        0.0000
@<TRIPOS>BOND
     1    30    31    1
     2    31    32   ar
     3    32    26    1
     4    26    27    2
     5    26    28   am
     6    28     1    1
     7     1     2   ar
     8     2     3   ar
     9     3     4   ar
    10     4     7    1
    11     7     8    1
    12     8     9    1
    13     9    10    1
    14    10    13    1
    15    13    14    1
    16    14    15    1
    17    15    16   ar
    18    16    17   ar
    19    17    18    1
    20    17    19   ar
    21    19    20   ar
    22    20    22    1
    23    22    23    2
    24    22    24    1
    25    20    21   ar
    26    10    11    1
    27    11    12    1
    28     4     5   ar
    29     5     6   ar
    30    32    33   ar
    31    33    34   ar
    32    34    35   ar
    33    35    36   ar
    34    36    37   ar
    35    37    40    1
    36    40    41   ar
    37    41    42   ar
    38    42    43   ar
    39    43    44   ar
    40    44    45   ar
    41    37    38   ar
    42    38    39   ar
    43    39    31   ar
    44     6     1   ar
    45    39    34   ar
    46    12     7    1
    47    45    40   ar
    48    21    15   ar
    49    28    29    1
    50    24    25    1
