@<TRIPOS>MOLECULE
*****
 47 52 0 0 0
SMALL
GASTEIGER

@<TRIPOS>ATOM
      1 C          14.4263   86.1198   25.0316 C.ar    1  UNL1        0.0675
      2 C          13.9155   84.9854   25.6797 C.ar    1  UNL1        0.0219
      3 C          13.4055   83.9094   24.9375 C.ar    1  UNL1        0.0702
      4 C          13.4588   83.9747   23.5420 C.ar    1  UNL1        0.1149
      5 N          13.9841   85.0645   22.9262 N.ar    1  UNL1       -0.2278
      6 C          14.4735   86.1284   23.6193 C.ar    1  UNL1        0.1345
      7 N          15.0889   87.2038   22.8920 N.pl3   1  UNL1       -0.2932
      8 C          16.4328   87.0309   22.3213 C.3     1  UNL1        0.0923
      9 C          16.4602   87.5684   20.8892 C.3     1  UNL1        0.0252
     10 C          16.0598   89.0670   20.8200 C.3     1  UNL1        0.0472
     11 C          15.1565   89.5074   22.0024 C.3     1  UNL1        0.0252
     12 C          14.2730   88.3668   22.5199 C.3     1  UNL1        0.0923
     13 C          15.3980   89.3935   19.4711 C.3     1  UNL1        0.2054
     14 O          14.1151   88.7743   19.3967 O.3     1  UNL1       -0.4755
     15 C          13.8966   87.4446   19.0081 C.ar    1  UNL1        0.1388
     16 C          13.0939   86.5631   19.7545 C.ar    1  UNL1        0.0369
     17 C          12.9056   85.2494   19.3216 C.ar    1  UNL1        0.0033
     18 C          13.5161   84.7990   18.1487 C.ar    1  UNL1        0.0066
     19 C          14.3309   85.6620   17.3946 C.ar    1  UNL1        0.0785
     20 C          14.5050   86.9881   17.8324 C.ar    1  UNL1        0.0433
     21 C          14.9835   85.2033   16.1438 C.2     1  UNL1        0.3381
     22 O          14.5393   85.5885   15.0295 O.2     1  UNL1       -0.2451
     23 O          16.0952   84.3614   16.1609 O.3     1  UNL1       -0.4771
     24 H          16.5663   84.0969   17.0160 H       1  UNL1        0.2954
     25 N          12.8807   82.7318   25.5745 N.am    1  UNL1       -0.2766
     26 C          12.0329   81.7745   24.9194 C.2     1  UNL1        0.2839
     27 O          11.9133   81.7865   23.6647 O.2     1  UNL1       -0.2665
     28 H          13.2063   82.5163   26.5440 H       1  UNL1        0.1553
     29 C          11.3331   80.7493   25.7167 C.ar    1  UNL1        0.1946
     30 O          10.2820   81.0201   26.4701 O.2     1  UNL1       -0.4492
     31 C           9.8970   79.9046   27.0403 C.ar    1  UNL1        0.1452
     32 C           8.8293   79.7280   27.9133 C.ar    1  UNL1        0.0375
     33 C           8.5900   78.4352   28.4104 C.ar    1  UNL1        0.0031
     34 C           9.4168   77.3437   28.0301 C.ar    1  UNL1        0.0002
     35 C          10.4941   77.5669   27.1391 C.ar    1  UNL1        0.0028
     36 C          10.7027   78.8631   26.6654 C.ar    1  UNL1        0.0337
     37 C          11.6454   79.3879   25.8021 C.ar    1  UNL1        0.0202
     38 C          12.7572   78.6581   25.1101 C.3     1  UNL1        0.0345
     39 C           9.1542   75.9822   28.5616 C.ar    1  UNL1        0.0000
     40 C          10.2034   75.2045   29.0876 C.ar    1  UNL1        0.0000
     41 C           9.9531   73.9231   29.5883 C.ar    1  UNL1        0.0000
     42 C           8.6566   73.4040   29.5692 C.ar    1  UNL1        0.0000
     43 C           7.6074   74.1654   29.0497 C.ar    1  UNL1        0.0000
     44 C           7.8518   75.4476   28.5487 C.ar    1  UNL1        0.0000
     45 C          14.0047   87.8114   26.9577 C.3     1  UNL1        0.0774
     46 C          14.8567   87.2749   25.8481 C.2     1  UNL1        0.1762
     47 O          15.9989   87.7736   25.6620 O.2     1  UNL1       -0.2912
@<TRIPOS>BOND
     1    45    46    1
     2    46    47    2
     3    46     1    1
     4     1     2   ar
     5     2     3   ar
     6     3    25    1
     7    25    26   am
     8    26    27    2
     9    26    29    1
    10    29    30   ar
    11    30    31   ar
    12    31    32   ar
    13    32    33   ar
    14    33    34   ar
    15    34    39    1
    16    39    40   ar
    17    40    41   ar
    18    41    42   ar
    19    42    43   ar
    20    43    44   ar
    21    34    35   ar
    22    35    36   ar
    23    36    37   ar
    24    37    38    1
    25     3     4   ar
    26     4     5   ar
    27     5     6   ar
    28     6     7    1
    29     7     8    1
    30     8     9    1
    31     9    10    1
    32    10    13    1
    33    13    14    1
    34    14    15    1
    35    15    16   ar
    36    16    17   ar
    37    17    18   ar
    38    18    19   ar
    39    19    21    1
    40    21    22    2
    41    21    23    1
    42    19    20   ar
    43    10    11    1
    44    11    12    1
    45     6     1   ar
    46    12     7    1
    47    37    29   ar
    48    20    15   ar
    49    36    31   ar
    50    44    39   ar
    51    25    28    1
    52    23    24    1
@<TRIPOS>MOLECULE
*****
 47 52 0 0 0
SMALL
GASTEIGER

@<TRIPOS>ATOM
      1 C          14.1903   85.6447   25.8158 C.ar    1  UNL1        0.0675
      2 C          13.6117   84.4159   26.1666 C.ar    1  UNL1        0.0219
      3 C          13.1993   83.5131   25.1749 C.ar    1  UNL1        0.0702
      4 C          13.4182   83.8461   23.8347 C.ar    1  UNL1        0.1149
      5 N          14.0075   85.0246   23.5085 N.ar    1  UNL1       -0.2278
      6 C          14.4054   85.9254   24.4477 C.ar    1  UNL1        0.1345
      7 N          15.0976   87.1097   24.0208 N.pl3   1  UNL1       -0.2932
      8 C          16.5674   87.1461   24.0310 C.3     1  UNL1        0.0923
      9 C          17.0793   87.7581   22.7255 C.3     1  UNL1        0.0252
     10 C          16.5297   89.1924   22.4979 C.3     1  UNL1        0.0472
     11 C          15.1815   89.4462   23.2230 C.3     1  UNL1        0.0252
     12 C          14.3376   88.1731   23.3512 C.3     1  UNL1        0.0923
     13 C          16.4128   89.5002   20.9960 C.3     1  UNL1        0.2054
     14 O          16.3169   88.2840   20.2567 O.3     1  UNL1       -0.4755
     15 C          15.1155   87.6152   19.9809 C.ar    1  UNL1        0.1388
     16 C          14.9891   86.2181   20.0850 C.ar    1  UNL1        0.0369
     17 C          13.7690   85.6016   19.8024 C.ar    1  UNL1        0.0033
     18 C          12.6673   86.3652   19.4094 C.ar    1  UNL1        0.0066
     19 C          12.7768   87.7620   19.2890 C.ar    1  UNL1        0.0785
     20 C          14.0074   88.3758   19.5877 C.ar    1  UNL1        0.0433
     21 C          11.6166   88.5901   18.8777 C.2     1  UNL1        0.3381
     22 O          11.7123   89.3448   17.8734 O.2     1  UNL1       -0.2451
     23 O          10.4039   88.5493   19.5651 O.3     1  UNL1       -0.4771
     24 H          10.2228   87.8937   20.3138 H       1  UNL1        0.2954
     25 N          12.6084   82.2443   25.5047 N.am    1  UNL1       -0.2766
     26 C          13.1220   80.9788   25.0585 C.2     1  UNL1        0.2839
     27 O          14.2774   80.9028   24.5605 O.2     1  UNL1       -0.2665
     28 H          11.8100   82.2394   26.1792 H       1  UNL1        0.1553
     29 C          12.3083   79.7592   25.2223 C.ar    1  UNL1        0.1946
     30 O          12.6642   78.7596   26.0097 O.2     1  UNL1       -0.4492
     31 C          11.7348   77.8384   25.9361 C.ar    1  UNL1        0.1452
     32 C          11.7017   76.6181   26.6019 C.ar    1  UNL1        0.0375
     33 C          10.6003   75.7739   26.3784 C.ar    1  UNL1        0.0031
     34 C           9.5539   76.1593   25.4974 C.ar    1  UNL1        0.0002
     35 C           9.6268   77.4104   24.8388 C.ar    1  UNL1        0.0028
     36 C          10.7348   78.2231   25.0839 C.ar    1  UNL1        0.0337
     37 C          11.0848   79.4718   24.6070 C.ar    1  UNL1        0.0202
     38 C          10.3209   80.3288   23.6429 C.3     1  UNL1        0.0345
     39 C           8.3952   75.2591   25.2691 C.ar    1  UNL1        0.0000
     40 C           8.1559   74.7092   23.9953 C.ar    1  UNL1        0.0000
     41 C           7.0645   73.8611   23.7835 C.ar    1  UNL1        0.0000
     42 C           6.2010   73.5535   24.8372 C.ar    1  UNL1        0.0000
     43 C           6.4273   74.0929   26.1054 C.ar    1  UNL1        0.0000
     44 C           7.5176   74.9407   26.3231 C.ar    1  UNL1        0.0000
     45 C          14.8062   86.1642   28.2857 C.3     1  UNL1        0.0774
     46 C          14.5145   86.6122   26.8860 C.2     1  UNL1        0.1762
     47 O          14.6259   87.8350   26.6025 O.2     1  UNL1       -0.2912
@<TRIPOS>BOND
     1    45    46    1
     2    46    47    2
     3    46     1    1
     4     1     2   ar
     5     2     3   ar
     6     3    25    1
     7    25    26   am
     8    26    27    2
     9    26    29    1
    10    29    30   ar
    11    30    31   ar
    12    31    32   ar
    13    32    33   ar
    14    33    34   ar
    15    34    39    1
    16    39    40   ar
    17    40    41   ar
    18    41    42   ar
    19    42    43   ar
    20    43    44   ar
    21    34    35   ar
    22    35    36   ar
    23    36    37   ar
    24    37    38    1
    25     3     4   ar
    26     4     5   ar
    27     5     6   ar
    28     6     7    1
    29     7     8    1
    30     8     9    1
    31     9    10    1
    32    10    13    1
    33    13    14    1
    34    14    15    1
    35    15    16   ar
    36    16    17   ar
    37    17    18   ar
    38    18    19   ar
    39    19    21    1
    40    21    22    2
    41    21    23    1
    42    19    20   ar
    43    10    11    1
    44    11    12    1
    45     6     1   ar
    46    12     7    1
    47    37    29   ar
    48    20    15   ar
    49    36    31   ar
    50    44    39   ar
    51    25    28    1
    52    23    24    1
@<TRIPOS>MOLECULE
*****
 47 52 0 0 0
SMALL
GASTEIGER

@<TRIPOS>ATOM
      1 C           7.0794   76.5119   21.3750 C.ar    1  UNL1        0.0675
      2 C           8.1213   77.1848   22.0303 C.ar    1  UNL1        0.0219
      3 C           8.7521   78.2827   21.4260 C.ar    1  UNL1        0.0702
      4 C           8.2903   78.7166   20.1797 C.ar    1  UNL1        0.1149
      5 N           7.2605   78.0766   19.5693 N.ar    1  UNL1       -0.2278
      6 C           6.6386   77.0012   20.1248 C.ar    1  UNL1        0.1345
      7 N           5.5023   76.4354   19.4517 N.pl3   1  UNL1       -0.2932
      8 C           5.3676   74.9758   19.3370 C.3     1  UNL1        0.0923
      9 C           3.9345   74.5600   19.6746 C.3     1  UNL1        0.0252
     10 C           2.8937   75.2479   18.7502 C.3     1  UNL1        0.0472
     11 C           3.3992   76.5935   18.1655 C.3     1  UNL1        0.0252
     12 C           4.3746   77.3101   19.1059 C.3     1  UNL1        0.0923
     13 C           1.5538   75.4347   19.4810 C.3     1  UNL1        0.2054
     14 O           1.7607   75.3991   20.8919 O.3     1  UNL1       -0.4755
     15 C           1.9624   76.5319   21.6937 C.ar    1  UNL1        0.1388
     16 C           1.4576   77.7989   21.3496 C.ar    1  UNL1        0.0369
     17 C           1.6837   78.8942   22.1850 C.ar    1  UNL1        0.0033
     18 C           2.4164   78.7421   23.3645 C.ar    1  UNL1        0.0066
     19 C           2.9385   77.4858   23.7204 C.ar    1  UNL1        0.0785
     20 C           2.6951   76.3850   22.8780 C.ar    1  UNL1        0.0433
     21 C           3.7148   77.3038   24.9714 C.2     1  UNL1        0.3381
     22 O           3.1694   77.5314   26.0840 O.2     1  UNL1       -0.2451
     23 O           5.0399   76.8694   24.9575 O.3     1  UNL1       -0.4771
     24 H           5.5073   76.5704   24.1117 H       1  UNL1        0.2954
     25 N           9.8188   78.9950   22.0761 N.am    1  UNL1       -0.2766
     26 C          10.4112   78.5925   23.3217 C.2     1  UNL1        0.2839
     27 O          10.1956   77.4398   23.7838 O.2     1  UNL1       -0.2665
     28 H          10.2451   79.8032   21.5687 H       1  UNL1        0.1553
     29 C          11.3071   79.5188   24.0399 C.ar    1  UNL1        0.1946
     30 O          12.5939   79.2785   24.2184 O.2     1  UNL1       -0.4492
     31 C          13.1031   80.2859   24.8845 C.ar    1  UNL1        0.1452
     32 C          14.4238   80.4495   25.2877 C.ar    1  UNL1        0.0375
     33 C          14.7579   81.6168   25.9959 C.ar    1  UNL1        0.0031
     34 C          13.7727   82.5980   26.2895 C.ar    1  UNL1        0.0002
     35 C          12.4391   82.3922   25.8611 C.ar    1  UNL1        0.0028
     36 C          12.1429   81.2219   25.1605 C.ar    1  UNL1        0.0337
     37 C          10.9641   80.7455   24.6194 C.ar    1  UNL1        0.0202
     38 C           9.6156   81.3999   24.6476 C.3     1  UNL1        0.0345
     39 C          14.1375   83.8274   27.0383 C.ar    1  UNL1        0.0000
     40 C          14.4417   83.7653   28.4116 C.ar    1  UNL1        0.0000
     41 C          14.7858   84.9245   29.1139 C.ar    1  UNL1        0.0000
     42 C          14.8293   86.1558   28.4562 C.ar    1  UNL1        0.0000
     43 C          14.5293   86.2306   27.0943 C.ar    1  UNL1        0.0000
     44 C          14.1855   85.0746   26.3868 C.ar    1  UNL1        0.0000
     45 C           7.2110   73.9739   21.9143 C.3     1  UNL1        0.0774
     46 C           6.5119   75.2966   21.9975 C.2     1  UNL1        0.1762
     47 O           5.4569   75.3857   22.6808 O.2     1  UNL1       -0.2912
@<TRIPOS>BOND
     1    45    46    1
     2    46    47    2
     3    46     1    1
     4     1     2   ar
     5     2     3   ar
     6     3    25    1
     7    25    26   am
     8    26    27    2
     9    26    29    1
    10    29    30   ar
    11    30    31   ar
    12    31    32   ar
    13    32    33   ar
    14    33    34   ar
    15    34    39    1
    16    39    40   ar
    17    40    41   ar
    18    41    42   ar
    19    42    43   ar
    20    43    44   ar
    21    34    35   ar
    22    35    36   ar
    23    36    37   ar
    24    37    38    1
    25     3     4   ar
    26     4     5   ar
    27     5     6   ar
    28     6     7    1
    29     7     8    1
    30     8     9    1
    31     9    10    1
    32    10    13    1
    33    13    14    1
    34    14    15    1
    35    15    16   ar
    36    16    17   ar
    37    17    18   ar
    38    18    19   ar
    39    19    21    1
    40    21    22    2
    41    21    23    1
    42    19    20   ar
    43    10    11    1
    44    11    12    1
    45     6     1   ar
    46    12     7    1
    47    37    29   ar
    48    20    15   ar
    49    36    31   ar
    50    44    39   ar
    51    25    28    1
    52    23    24    1
@<TRIPOS>MOLECULE
*****
 47 52 0 0 0
SMALL
GASTEIGER

@<TRIPOS>ATOM
      1 C           9.6960   79.6130   27.4306 C.ar    1  UNL1        0.0675
      2 C          10.3832   80.7105   26.8911 C.ar    1  UNL1        0.0219
      3 C          10.4682   80.8854   25.5015 C.ar    1  UNL1        0.0702
      4 C           9.8168   79.9685   24.6711 C.ar    1  UNL1        0.1149
      5 N           9.1285   78.9278   25.2057 N.ar    1  UNL1       -0.2278
      6 C           9.0402   78.7250   26.5484 C.ar    1  UNL1        0.1345
      7 N           8.2217   77.6483   27.0330 N.pl3   1  UNL1       -0.2932
      8 C           6.7720   77.8389   27.1874 C.3     1  UNL1        0.0923
      9 C           6.0273   76.6294   26.6190 C.3     1  UNL1        0.0252
     10 C           6.4497   75.3052   27.3112 C.3     1  UNL1        0.0472
     11 C           7.8776   75.3668   27.9154 C.3     1  UNL1        0.0252
     12 C           8.8041   76.3039   27.1326 C.3     1  UNL1        0.0923
     13 C           6.3119   74.1165   26.3456 C.3     1  UNL1        0.2054
     14 O           5.9818   74.5867   25.0400 O.3     1  UNL1       -0.4755
     15 C           6.5846   74.1343   23.8572 C.ar    1  UNL1        0.1388
     16 C           7.9211   73.6984   23.8109 C.ar    1  UNL1        0.0369
     17 C           8.4723   73.2540   22.6079 C.ar    1  UNL1        0.0033
     18 C           7.7040   73.2438   21.4413 C.ar    1  UNL1        0.0066
     19 C           6.3693   73.6859   21.4650 C.ar    1  UNL1        0.0785
     20 C           5.8186   74.1207   22.6850 C.ar    1  UNL1        0.0433
     21 C           5.5363   73.6779   20.2375 C.2     1  UNL1        0.3381
     22 O           6.0423   74.0234   19.1366 O.2     1  UNL1       -0.2451
     23 O           4.1994   73.2816   20.2590 O.3     1  UNL1       -0.4771
     24 H           3.7580   72.8953   21.0831 H       1  UNL1        0.2954
     25 N          11.1611   82.0035   24.9204 N.am    1  UNL1       -0.2766
     26 C          12.5710   82.0194   24.6445 C.2     1  UNL1        0.2839
     27 O          13.2334   80.9472   24.6630 O.2     1  UNL1       -0.2665
     28 H          10.5895   82.8182   24.6010 H       1  UNL1        0.1553
     29 C          13.2355   83.2904   24.2987 C.ar    1  UNL1        0.1946
     30 O          12.6701   84.4698   24.4859 O.2     1  UNL1       -0.4492
     31 C          13.5130   85.3890   24.0832 C.ar    1  UNL1        0.1452
     32 C          13.3297   86.7672   24.0992 C.ar    1  UNL1        0.0375
     33 C          14.3726   87.5775   23.6182 C.ar    1  UNL1        0.0031
     34 C          15.5769   87.0018   23.1304 C.ar    1  UNL1        0.0002
     35 C          15.7227   85.5936   23.1311 C.ar    1  UNL1        0.0028
     36 C          14.6671   84.8197   23.6157 C.ar    1  UNL1        0.0337
     37 C          14.5111   83.4530   23.7469 C.ar    1  UNL1        0.0202
     38 C          15.4932   82.3819   23.3787 C.3     1  UNL1        0.0345
     39 C          16.6720   87.8679   22.6248 C.ar    1  UNL1        0.0000
     40 C          17.7491   88.2210   23.4601 C.ar    1  UNL1        0.0000
     41 C          18.7794   89.0360   22.9810 C.ar    1  UNL1        0.0000
     42 C          18.7466   89.5076   21.6668 C.ar    1  UNL1        0.0000
     43 C          17.6835   89.1649   20.8285 C.ar    1  UNL1        0.0000
     44 C          16.6511   88.3494   21.3019 C.ar    1  UNL1        0.0000
     45 C           8.8053   80.1661   29.8076 C.3     1  UNL1        0.0774
     46 C           9.7186   79.4064   28.8945 C.2     1  UNL1        0.1762
     47 O          10.4655   78.5167   29.3830 O.2     1  UNL1       -0.2912
@<TRIPOS>BOND
     1    45    46    1
     2    46    47    2
     3    46     1    1
     4     1     2   ar
     5     2     3   ar
     6     3    25    1
     7    25    26   am
     8    26    27    2
     9    26    29    1
    10    29    30   ar
    11    30    31   ar
    12    31    32   ar
    13    32    33   ar
    14    33    34   ar
    15    34    39    1
    16    39    40   ar
    17    40    41   ar
    18    41    42   ar
    19    42    43   ar
    20    43    44   ar
    21    34    35   ar
    22    35    36   ar
    23    36    37   ar
    24    37    38    1
    25     3     4   ar
    26     4     5   ar
    27     5     6   ar
    28     6     7    1
    29     7     8    1
    30     8     9    1
    31     9    10    1
    32    10    13    1
    33    13    14    1
    34    14    15    1
    35    15    16   ar
    36    16    17   ar
    37    17    18   ar
    38    18    19   ar
    39    19    21    1
    40    21    22    2
    41    21    23    1
    42    19    20   ar
    43    10    11    1
    44    11    12    1
    45     6     1   ar
    46    12     7    1
    47    37    29   ar
    48    20    15   ar
    49    36    31   ar
    50    44    39   ar
    51    25    28    1
    52    23    24    1
@<TRIPOS>MOLECULE
*****
 47 52 0 0 0
SMALL
GASTEIGER

@<TRIPOS>ATOM
      1 C          10.5774   78.4085   25.2431 C.ar    1  UNL1        0.0675
      2 C          11.4899   79.4449   24.9963 C.ar    1  UNL1        0.0219
      3 C          11.1730   80.4749   24.0979 C.ar    1  UNL1        0.0702
      4 C           9.9137   80.4684   23.4904 C.ar    1  UNL1        0.1149
      5 N           9.0270   79.4769   23.7610 N.ar    1  UNL1       -0.2278
      6 C           9.3115   78.4580   24.6171 C.ar    1  UNL1        0.1345
      7 N           8.2861   77.4961   24.9126 N.pl3   1  UNL1       -0.2932
      8 C           8.3029   76.1793   24.2588 C.3     1  UNL1        0.0923
      9 C           8.0320   75.0845   25.2925 C.3     1  UNL1        0.0252
     10 C           6.6711   75.2850   26.0126 C.3     1  UNL1        0.0472
     11 C           6.2051   76.7651   26.0251 C.3     1  UNL1        0.0252
     12 C           7.3809   77.7483   26.0411 C.3     1  UNL1        0.0923
     13 C           6.7182   74.7113   27.4384 C.3     1  UNL1        0.2054
     14 O           7.6888   75.4133   28.2128 O.3     1  UNL1       -0.4755
     15 C           7.3936   76.1834   29.3471 C.ar    1  UNL1        0.1388
     16 C           6.3667   75.8404   30.2451 C.ar    1  UNL1        0.0369
     17 C           6.1160   76.6396   31.3618 C.ar    1  UNL1        0.0033
     18 C           6.8779   77.7873   31.5930 C.ar    1  UNL1        0.0066
     19 C           7.9016   78.1529   30.7011 C.ar    1  UNL1        0.0785
     20 C           8.1551   77.3344   29.5847 C.ar    1  UNL1        0.0433
     21 C           8.7245   79.3654   30.9326 C.2     1  UNL1        0.3381
     22 O           9.6317   79.3474   31.8066 O.2     1  UNL1       -0.2451
     23 O           8.5350   80.5340   30.1956 O.3     1  UNL1       -0.4771
     24 H           7.8981   80.5875   29.4116 H       1  UNL1        0.2954
     25 N          12.0861   81.5529   23.8295 N.am    1  UNL1       -0.2766
     26 C          12.5213   82.5016   24.8168 C.2     1  UNL1        0.2839
     27 O          12.3204   82.2804   26.0413 O.2     1  UNL1       -0.2665
     28 H          12.5248   81.5951   22.8817 H       1  UNL1        0.1553
     29 C          13.2417   83.7183   24.3962 C.ar    1  UNL1        0.1946
     30 O          12.7538   84.9348   24.5627 O.2     1  UNL1       -0.4492
     31 C          13.6295   85.7881   24.0909 C.ar    1  UNL1        0.1452
     32 C          13.5266   87.1745   24.0631 C.ar    1  UNL1        0.0375
     33 C          14.5921   87.9046   23.5087 C.ar    1  UNL1        0.0031
     34 C          15.7386   87.2421   22.9927 C.ar    1  UNL1        0.0002
     35 C          15.8033   85.8287   23.0399 C.ar    1  UNL1        0.0028
     36 C          14.7273   85.1358   23.5970 C.ar    1  UNL1        0.0337
     37 C          14.4990   83.7861   23.7856 C.ar    1  UNL1        0.0202
     38 C          15.4008   82.6467   23.4168 C.3     1  UNL1        0.0345
     39 C          16.8583   88.0240   22.4095 C.ar    1  UNL1        0.0000
     40 C          16.8047   88.4634   21.0729 C.ar    1  UNL1        0.0000
     41 C          17.8601   89.2003   20.5267 C.ar    1  UNL1        0.0000
     42 C          18.9786   89.5058   21.3054 C.ar    1  UNL1        0.0000
     43 C          19.0439   89.0754   22.6323 C.ar    1  UNL1        0.0000
     44 C          17.9911   88.3391   23.1840 C.ar    1  UNL1        0.0000
     45 C          10.8685   77.3679   27.6057 C.3     1  UNL1        0.0774
     46 C          10.9896   77.2872   26.1144 C.2     1  UNL1        0.1762
     47 O          11.3787   76.2081   25.5928 O.2     1  UNL1       -0.2912
@<TRIPOS>BOND
     1    45    46    1
     2    46    47    2
     3    46     1    1
     4     1     2   ar
     5     2     3   ar
     6     3    25    1
     7    25    26   am
     8    26    27    2
     9    26    29    1
    10    29    30   ar
    11    30    31   ar
    12    31    32   ar
    13    32    33   ar
    14    33    34   ar
    15    34    39    1
    16    39    40   ar
    17    40    41   ar
    18    41    42   ar
    19    42    43   ar
    20    43    44   ar
    21    34    35   ar
    22    35    36   ar
    23    36    37   ar
    24    37    38    1
    25     3     4   ar
    26     4     5   ar
    27     5     6   ar
    28     6     7    1
    29     7     8    1
    30     8     9    1
    31     9    10    1
    32    10    13    1
    33    13    14    1
    34    14    15    1
    35    15    16   ar
    36    16    17   ar
    37    17    18   ar
    38    18    19   ar
    39    19    21    1
    40    21    22    2
    41    21    23    1
    42    19    20   ar
    43    10    11    1
    44    11    12    1
    45     6     1   ar
    46    12     7    1
    47    37    29   ar
    48    20    15   ar
    49    36    31   ar
    50    44    39   ar
    51    25    28    1
    52    23    24    1
@<TRIPOS>MOLECULE
*****
 47 52 0 0 0
SMALL
GASTEIGER

@<TRIPOS>ATOM
      1 C           8.7542   78.9750   27.1264 C.ar    1  UNL1        0.0675
      2 C           9.4713   80.1656   26.9363 C.ar    1  UNL1        0.0219
      3 C           9.9579   80.5096   25.6660 C.ar    1  UNL1        0.0702
      4 C           9.6743   79.6636   24.5896 C.ar    1  UNL1        0.1149
      5 N           8.9526   78.5298   24.7803 N.ar    1  UNL1       -0.2278
      6 C           8.4795   78.1636   26.0026 C.ar    1  UNL1        0.1345
      7 N           7.6527   76.9928   26.1019 N.pl3   1  UNL1       -0.2932
      8 C           6.2072   77.0903   25.8514 C.3     1  UNL1        0.0923
      9 C           5.7578   75.9340   24.9561 C.3     1  UNL1        0.0252
     10 C           6.0801   74.5505   25.5830 C.3     1  UNL1        0.0472
     11 C           7.2704   74.5990   26.5773 C.3     1  UNL1        0.0252
     12 C           8.2960   75.6771   26.2097 C.3     1  UNL1        0.0923
     13 C           6.3206   73.4979   24.4883 C.3     1  UNL1        0.2054
     14 O           6.6428   74.1421   23.2570 O.3     1  UNL1       -0.4755
     15 C           7.9467   74.3245   22.7738 C.ar    1  UNL1        0.1388
     16 C           8.3756   75.5347   22.1995 C.ar    1  UNL1        0.0369
     17 C           9.6862   75.6655   21.7369 C.ar    1  UNL1        0.0033
     18 C          10.5789   74.5956   21.8354 C.ar    1  UNL1        0.0066
     19 C          10.1658   73.3742   22.3965 C.ar    1  UNL1        0.0785
     20 C           8.8463   73.2558   22.8713 C.ar    1  UNL1        0.0433
     21 C          11.1009   72.2285   22.5141 C.2     1  UNL1        0.3381
     22 O          11.8312   71.9150   21.5365 O.2     1  UNL1       -0.2451
     23 O          11.2106   71.4870   23.6901 O.3     1  UNL1       -0.4771
     24 H          10.7332   71.7443   24.5440 H       1  UNL1        0.2954
     25 N          10.6911   81.7258   25.4402 N.am    1  UNL1       -0.2766
     26 C          11.9292   81.7944   24.7145 C.2     1  UNL1        0.2839
     27 O          12.3082   80.8185   24.0126 O.2     1  UNL1       -0.2665
     28 H          10.2525   82.6233   25.7479 H       1  UNL1        0.1553
     29 C          12.7377   83.0275   24.7601 C.ar    1  UNL1        0.1946
     30 O          12.7023   83.9443   23.8093 O.2     1  UNL1       -0.4492
     31 C          13.5250   84.9069   24.1472 C.ar    1  UNL1        0.1452
     32 C          13.7986   86.0710   23.4376 C.ar    1  UNL1        0.0375
     33 C          14.7205   86.9782   23.9879 C.ar    1  UNL1        0.0031
     34 C          15.3524   86.7102   25.2323 C.ar    1  UNL1        0.0002
     35 C          15.0460   85.5126   25.9223 C.ar    1  UNL1        0.0028
     36 C          14.1263   84.6346   25.3466 C.ar    1  UNL1        0.0337
     37 C          13.6288   83.4159   25.7668 C.ar    1  UNL1        0.0202
     38 C          13.9694   82.6744   27.0245 C.3     1  UNL1        0.0345
     39 C          16.3246   87.6762   25.8039 C.ar    1  UNL1        0.0000
     40 C          16.0695   88.3026   27.0388 C.ar    1  UNL1        0.0000
     41 C          16.9873   89.2111   27.5751 C.ar    1  UNL1        0.0000
     42 C          18.1665   89.5051   26.8869 C.ar    1  UNL1        0.0000
     43 C          18.4309   88.8908   25.6609 C.ar    1  UNL1        0.0000
     44 C          17.5172   87.9807   25.1204 C.ar    1  UNL1        0.0000
     45 C           7.0357   79.0270   29.0740 C.3     1  UNL1        0.0774
     46 C           8.3500   78.5966   28.4975 C.2     1  UNL1        0.1762
     47 O           9.0889   77.8303   29.1718 O.2     1  UNL1       -0.2912
@<TRIPOS>BOND
     1    45    46    1
     2    46    47    2
     3    46     1    1
     4     1     2   ar
     5     2     3   ar
     6     3    25    1
     7    25    26   am
     8    26    27    2
     9    26    29    1
    10    29    30   ar
    11    30    31   ar
    12    31    32   ar
    13    32    33   ar
    14    33    34   ar
    15    34    39    1
    16    39    40   ar
    17    40    41   ar
    18    41    42   ar
    19    42    43   ar
    20    43    44   ar
    21    34    35   ar
    22    35    36   ar
    23    36    37   ar
    24    37    38    1
    25     3     4   ar
    26     4     5   ar
    27     5     6   ar
    28     6     7    1
    29     7     8    1
    30     8     9    1
    31     9    10    1
    32    10    13    1
    33    13    14    1
    34    14    15    1
    35    15    16   ar
    36    16    17   ar
    37    17    18   ar
    38    18    19   ar
    39    19    21    1
    40    21    22    2
    41    21    23    1
    42    19    20   ar
    43    10    11    1
    44    11    12    1
    45     6     1   ar
    46    12     7    1
    47    37    29   ar
    48    20    15   ar
    49    36    31   ar
    50    44    39   ar
    51    25    28    1
    52    23    24    1
@<TRIPOS>MOLECULE
*****
 47 52 0 0 0
SMALL
GASTEIGER

@<TRIPOS>ATOM
      1 C           8.7956   78.8868   27.1667 C.ar    1  UNL1        0.0675
      2 C           9.5099   80.0728   26.9414 C.ar    1  UNL1        0.0219
      3 C           9.8994   80.4347   25.6429 C.ar    1  UNL1        0.0702
      4 C           9.5218   79.6117   24.5777 C.ar    1  UNL1        0.1149
      5 N           8.8036   78.4824   24.8048 N.ar    1  UNL1       -0.2278
      6 C           8.4235   78.0991   26.0540 C.ar    1  UNL1        0.1345
      7 N           7.5929   76.9357   26.1978 N.pl3   1  UNL1       -0.2932
      8 C           6.1363   77.0474   26.0320 C.3     1  UNL1        0.0923
      9 C           5.6247   75.8984   25.1610 C.3     1  UNL1        0.0252
     10 C           5.9698   74.5098   25.7640 C.3     1  UNL1        0.0472
     11 C           7.2163   74.5438   26.6876 C.3     1  UNL1        0.0252
     12 C           8.2290   75.6137   26.2641 C.3     1  UNL1        0.0923
     13 C           6.1363   73.4588   24.6541 C.3     1  UNL1        0.2054
     14 O           6.7445   74.0535   23.5090 O.3     1  UNL1       -0.4755
     15 C           6.2164   73.9988   22.2109 C.ar    1  UNL1        0.1388
     16 C           6.9998   73.6644   21.0916 C.ar    1  UNL1        0.0369
     17 C           6.4240   73.6207   19.8207 C.ar    1  UNL1        0.0033
     18 C           5.0688   73.9133   19.6500 C.ar    1  UNL1        0.0066
     19 C           4.2715   74.2602   20.7552 C.ar    1  UNL1        0.0785
     20 C           4.8581   74.2899   22.0341 C.ar    1  UNL1        0.0433
     21 C           2.8296   74.5695   20.5944 C.2     1  UNL1        0.3381
     22 O           2.4634   75.7594   20.4013 O.2     1  UNL1       -0.2451
     23 O           1.8550   73.5727   20.6353 O.3     1  UNL1       -0.4771
     24 H           2.0829   72.5884   20.6832 H       1  UNL1        0.2954
     25 N          10.6274   81.6469   25.3812 N.am    1  UNL1       -0.2766
     26 C          11.8979   81.6923   24.7118 C.2     1  UNL1        0.2839
     27 O          12.3221   80.6834   24.0867 O.2     1  UNL1       -0.2665
     28 H          10.1634   82.5539   25.6150 H       1  UNL1        0.1553
     29 C          12.6878   82.9382   24.7233 C.ar    1  UNL1        0.1946
     30 O          12.6000   83.8522   23.7734 O.2     1  UNL1       -0.4492
     31 C          13.4201   84.8285   24.0768 C.ar    1  UNL1        0.1452
     32 C          13.6466   85.9953   23.3552 C.ar    1  UNL1        0.0375
     33 C          14.5752   86.9181   23.8669 C.ar    1  UNL1        0.0031
     34 C          15.2604   86.6628   25.0855 C.ar    1  UNL1        0.0002
     35 C          15.0008   85.4619   25.7889 C.ar    1  UNL1        0.0028
     36 C          14.0730   84.5682   25.2517 C.ar    1  UNL1        0.0337
     37 C          13.6120   83.3426   25.6931 C.ar    1  UNL1        0.0202
     38 C          14.0142   82.6094   26.9373 C.3     1  UNL1        0.0345
     39 C          16.2391   87.6452   25.6164 C.ar    1  UNL1        0.0000
     40 C          16.0165   88.2807   26.8529 C.ar    1  UNL1        0.0000
     41 C          16.9403   89.2047   27.3509 C.ar    1  UNL1        0.0000
     42 C          18.0934   89.5053   26.6224 C.ar    1  UNL1        0.0000
     43 C          18.3255   88.8820   25.3944 C.ar    1  UNL1        0.0000
     44 C          17.4057   87.9565   24.8921 C.ar    1  UNL1        0.0000
     45 C           7.2966   79.0169   29.2845 C.3     1  UNL1        0.0774
     46 C           8.4957   78.4878   28.5585 C.2     1  UNL1        0.1762
     47 O           9.2177   77.6238   29.1244 O.2     1  UNL1       -0.2912
@<TRIPOS>BOND
     1    45    46    1
     2    46    47    2
     3    46     1    1
     4     1     2   ar
     5     2     3   ar
     6     3    25    1
     7    25    26   am
     8    26    27    2
     9    26    29    1
    10    29    30   ar
    11    30    31   ar
    12    31    32   ar
    13    32    33   ar
    14    33    34   ar
    15    34    39    1
    16    39    40   ar
    17    40    41   ar
    18    41    42   ar
    19    42    43   ar
    20    43    44   ar
    21    34    35   ar
    22    35    36   ar
    23    36    37   ar
    24    37    38    1
    25     3     4   ar
    26     4     5   ar
    27     5     6   ar
    28     6     7    1
    29     7     8    1
    30     8     9    1
    31     9    10    1
    32    10    13    1
    33    13    14    1
    34    14    15    1
    35    15    16   ar
    36    16    17   ar
    37    17    18   ar
    38    18    19   ar
    39    19    21    1
    40    21    22    2
    41    21    23    1
    42    19    20   ar
    43    10    11    1
    44    11    12    1
    45     6     1   ar
    46    12     7    1
    47    37    29   ar
    48    20    15   ar
    49    36    31   ar
    50    44    39   ar
    51    25    28    1
    52    23    24    1
@<TRIPOS>MOLECULE
*****
 47 52 0 0 0
SMALL
GASTEIGER

@<TRIPOS>ATOM
      1 C          10.1577   77.5353   24.5715 C.ar    1  UNL1        0.0675
      2 C          11.1014   78.5674   24.6810 C.ar    1  UNL1        0.0219
      3 C          10.9347   79.7644   23.9681 C.ar    1  UNL1        0.0702
      4 C           9.7879   79.9215   23.1839 C.ar    1  UNL1        0.1149
      5 N           8.8661   78.9278   23.1105 N.ar    1  UNL1       -0.2278
      6 C           9.0075   77.7512   23.7795 C.ar    1  UNL1        0.1345
      7 N           7.9448   76.7865   23.7146 N.pl3   1  UNL1       -0.2932
      8 C           6.9806   76.6796   24.8194 C.3     1  UNL1        0.0923
      9 C           5.5599   76.5859   24.2594 C.3     1  UNL1        0.0252
     10 C           5.3870   75.3733   23.3052 C.3     1  UNL1        0.0472
     11 C           6.7190   74.9271   22.6459 C.3     1  UNL1        0.0252
     12 C           7.6917   76.0944   22.4444 C.3     1  UNL1        0.0923
     13 C           4.3170   75.6650   22.2402 C.3     1  UNL1        0.2054
     14 O           4.2704   77.0646   21.9688 O.3     1  UNL1       -0.4755
     15 C           4.5703   77.6429   20.7268 C.ar    1  UNL1        0.1388
     16 C           3.6365   77.7004   19.6765 C.ar    1  UNL1        0.0369
     17 C           3.9846   78.2907   18.4604 C.ar    1  UNL1        0.0033
     18 C           5.2627   78.8232   18.2753 C.ar    1  UNL1        0.0066
     19 C           6.2137   78.7657   19.3095 C.ar    1  UNL1        0.0785
     20 C           5.8496   78.1796   20.5361 C.ar    1  UNL1        0.0433
     21 C           7.5742   79.3302   19.1333 C.2     1  UNL1        0.3381
     22 O           8.5093   78.9547   19.8896 O.2     1  UNL1       -0.2451
     23 O           7.8596   80.2630   18.1367 O.3     1  UNL1       -0.4771
     24 H           7.1860   80.5313   17.4314 H       1  UNL1        0.2954
     25 N          11.8826   80.8414   24.0650 N.am    1  UNL1       -0.2766
     26 C          11.7475   81.9516   24.9671 C.2     1  UNL1        0.2839
     27 O          10.9117   81.9054   25.9094 O.2     1  UNL1       -0.2665
     28 H          12.7638   80.7664   23.5079 H       1  UNL1        0.1553
     29 C          12.6196   83.1314   24.8124 C.ar    1  UNL1        0.1946
     30 O          12.5828   83.9167   23.7506 O.2     1  UNL1       -0.4492
     31 C          13.4701   84.8661   23.9208 C.ar    1  UNL1        0.1452
     32 C          13.7664   85.9099   23.0512 C.ar    1  UNL1        0.0375
     33 C          14.7607   86.8264   23.4347 C.ar    1  UNL1        0.0031
     34 C          15.4408   86.6871   24.6747 C.ar    1  UNL1        0.0002
     35 C          15.1090   85.6095   25.5309 C.ar    1  UNL1        0.0028
     36 C          14.1172   84.7184   25.1182 C.ar    1  UNL1        0.0337
     37 C          13.5798   83.5957   25.7184 C.ar    1  UNL1        0.0202
     38 C          13.9457   83.0064   27.0474 C.3     1  UNL1        0.0345
     39 C          16.4894   87.6618   25.0693 C.ar    1  UNL1        0.0000
     40 C          16.4086   88.3411   26.2999 C.ar    1  UNL1        0.0000
     41 C          17.3980   89.2576   26.6693 C.ar    1  UNL1        0.0000
     42 C          18.4760   89.5070   25.8170 C.ar    1  UNL1        0.0000
     43 C          18.5673   88.8398   24.5935 C.ar    1  UNL1        0.0000
     44 C          17.5815   87.9216   24.2195 C.ar    1  UNL1        0.0000
     45 C          10.5877   74.9746   24.4875 C.3     1  UNL1        0.0774
     46 C          10.4224   76.2510   25.2547 C.2     1  UNL1        0.1762
     47 O          10.5914   76.2370   26.5034 O.2     1  UNL1       -0.2912
@<TRIPOS>BOND
     1    45    46    1
     2    46    47    2
     3    46     1    1
     4     1     2   ar
     5     2     3   ar
     6     3    25    1
     7    25    26   am
     8    26    27    2
     9    26    29    1
    10    29    30   ar
    11    30    31   ar
    12    31    32   ar
    13    32    33   ar
    14    33    34   ar
    15    34    39    1
    16    39    40   ar
    17    40    41   ar
    18    41    42   ar
    19    42    43   ar
    20    43    44   ar
    21    34    35   ar
    22    35    36   ar
    23    36    37   ar
    24    37    38    1
    25     3     4   ar
    26     4     5   ar
    27     5     6   ar
    28     6     7    1
    29     7     8    1
    30     8     9    1
    31     9    10    1
    32    10    13    1
    33    13    14    1
    34    14    15    1
    35    15    16   ar
    36    16    17   ar
    37    17    18   ar
    38    18    19   ar
    39    19    21    1
    40    21    22    2
    41    21    23    1
    42    19    20   ar
    43    10    11    1
    44    11    12    1
    45     6     1   ar
    46    12     7    1
    47    37    29   ar
    48    20    15   ar
    49    36    31   ar
    50    44    39   ar
    51    25    28    1
    52    23    24    1
@<TRIPOS>MOLECULE
*****
 47 52 0 0 0
SMALL
GASTEIGER

@<TRIPOS>ATOM
      1 C          14.1689   85.6280   25.7379 C.ar    1  UNL1        0.0675
      2 C          13.5858   84.3948   26.0650 C.ar    1  UNL1        0.0219
      3 C          13.2643   83.4695   25.0604 C.ar    1  UNL1        0.0702
      4 C          13.5782   83.7852   23.7351 C.ar    1  UNL1        0.1149
      5 N          14.1710   84.9687   23.4341 N.ar    1  UNL1       -0.2278
      6 C          14.4820   85.8910   24.3852 C.ar    1  UNL1        0.1345
      7 N          15.1848   87.0806   23.9915 N.pl3   1  UNL1       -0.2932
      8 C          16.6533   87.1210   24.0524 C.3     1  UNL1        0.0923
      9 C          17.2077   87.7446   22.7701 C.3     1  UNL1        0.0252
     10 C          16.6620   89.1791   22.5350 C.3     1  UNL1        0.0472
     11 C          15.2889   89.4235   23.2154 C.3     1  UNL1        0.0252
     12 C          14.4450   88.1472   23.3046 C.3     1  UNL1        0.0923
     13 C          16.5957   89.4984   21.0323 C.3     1  UNL1        0.2054
     14 O          15.2532   89.3712   20.5673 O.3     1  UNL1       -0.4755
     15 C          14.8005   88.3513   19.7178 C.ar    1  UNL1        0.1388
     16 C          13.9851   88.6069   18.6005 C.ar    1  UNL1        0.0369
     17 C          13.5645   87.5555   17.7843 C.ar    1  UNL1        0.0033
     18 C          13.9448   86.2428   18.0733 C.ar    1  UNL1        0.0066
     19 C          14.7506   85.9657   19.1919 C.ar    1  UNL1        0.0785
     20 C          15.1797   87.0336   20.0019 C.ar    1  UNL1        0.0433
     21 C          15.1686   84.5788   19.5120 C.2     1  UNL1        0.3381
     22 O          15.6824   83.8583   18.6152 O.2     1  UNL1       -0.2451
     23 O          15.0237   84.0443   20.7919 O.3     1  UNL1       -0.4771
     24 H          14.7162   84.5960   21.5820 H       1  UNL1        0.2954
     25 N          12.6712   82.1957   25.3664 N.am    1  UNL1       -0.2766
     26 C          13.1946   80.9365   24.9140 C.2     1  UNL1        0.2839
     27 O          14.3579   80.8687   24.4335 O.2     1  UNL1       -0.2665
     28 H          11.8622   82.1815   26.0281 H       1  UNL1        0.1553
     29 C          12.3813   79.7134   25.0510 C.ar    1  UNL1        0.1946
     30 O          12.8123   78.5201   24.6824 O.2     1  UNL1       -0.4492
     31 C          11.8627   77.6529   24.9356 C.ar    1  UNL1        0.1452
     32 C          11.8893   76.2816   24.7069 C.ar    1  UNL1        0.0375
     33 C          10.7534   75.5317   25.0579 C.ar    1  UNL1        0.0031
     34 C           9.6136   76.1598   25.6290 C.ar    1  UNL1        0.0002
     35 C           9.6276   77.5589   25.8447 C.ar    1  UNL1        0.0028
     36 C          10.7719   78.2722   25.4842 C.ar    1  UNL1        0.0337
     37 C          11.0857   79.6151   25.5707 C.ar    1  UNL1        0.0202
     38 C          10.2265   80.7217   26.1042 C.3     1  UNL1        0.0345
     39 C           8.4194   75.3572   25.9959 C.ar    1  UNL1        0.0000
     40 C           7.5708   74.8396   24.9988 C.ar    1  UNL1        0.0000
     41 C           6.4474   74.0834   25.3473 C.ar    1  UNL1        0.0000
     42 C           6.1579   73.8364   26.6911 C.ar    1  UNL1        0.0000
     43 C           6.9916   74.3446   27.6895 C.ar    1  UNL1        0.0000
     44 C           8.1169   75.1006   27.3469 C.ar    1  UNL1        0.0000
     45 C          14.8494   86.2014   28.1787 C.3     1  UNL1        0.0774
     46 C          14.3954   86.6177   26.8128 C.2     1  UNL1        0.1762
     47 O          14.2812   87.8465   26.5575 O.2     1  UNL1       -0.2912
@<TRIPOS>BOND
     1    45    46    1
     2    46    47    2
     3    46     1    1
     4     1     2   ar
     5     2     3   ar
     6     3    25    1
     7    25    26   am
     8    26    27    2
     9    26    29    1
    10    29    30   ar
    11    30    31   ar
    12    31    32   ar
    13    32    33   ar
    14    33    34   ar
    15    34    39    1
    16    39    40   ar
    17    40    41   ar
    18    41    42   ar
    19    42    43   ar
    20    43    44   ar
    21    34    35   ar
    22    35    36   ar
    23    36    37   ar
    24    37    38    1
    25     3     4   ar
    26     4     5   ar
    27     5     6   ar
    28     6     7    1
    29     7     8    1
    30     8     9    1
    31     9    10    1
    32    10    13    1
    33    13    14    1
    34    14    15    1
    35    15    16   ar
    36    16    17   ar
    37    17    18   ar
    38    18    19   ar
    39    19    21    1
    40    21    22    2
    41    21    23    1
    42    19    20   ar
    43    10    11    1
    44    11    12    1
    45     6     1   ar
    46    12     7    1
    47    37    29   ar
    48    20    15   ar
    49    36    31   ar
    50    44    39   ar
    51    25    28    1
    52    23    24    1
