@<TRIPOS>MOLECULE
*****
 39 43 0 0 0
SMALL
GASTEIGER

@<TRIPOS>ATOM
      1 C         -21.4885   -8.4297  -14.2915 C.2     1  UNL1        0.2510
      2 O         -20.3798   -8.1075  -14.7980 O.2     1  UNL1       -0.2698
      3 N         -22.0796   -7.6093  -13.2643 N.am    1  UNL1       -0.2680
      4 C         -23.5447   -7.4667  -13.2314 C.3     1  UNL1        0.1412
      5 C         -24.0355   -6.4884  -12.1588 C.3     1  UNL1        0.2268
      6 O         -23.8801   -7.0250  -10.8472 O.3     1  UNL1       -0.4739
      7 C         -22.7041   -7.5327  -10.2676 C.ar    1  UNL1        0.1362
      8 C         -22.8269   -8.0801   -8.9856 C.ar    1  UNL1        0.0366
      9 C         -21.7403   -8.6816   -8.3527 C.ar    1  UNL1        0.0031
     10 C         -20.4946   -8.7450   -8.9907 C.ar    1  UNL1       -0.0000
     11 C         -20.3494   -8.1618  -10.2594 C.ar    1  UNL1        0.0004
     12 C         -21.4378   -7.5492  -10.9090 C.ar    1  UNL1        0.0317
     13 C         -21.2162   -6.9507  -12.2747 C.3     1  UNL1        0.1236
     14 C         -19.3531   -9.4387   -8.3457 C.ar    1  UNL1        0.0015
     15 C         -19.0228   -9.1748   -6.9873 C.ar    1  UNL1        0.0016
     16 C         -17.9478   -9.8371   -6.3651 C.ar    1  UNL1        0.0206
     17 C         -17.2266  -10.7545   -7.1218 C.ar    1  UNL1        0.0985
     18 N         -16.1752  -11.4978   -6.7330 N.ar    1  UNL1       -0.2241
     19 C         -15.8760  -12.2071   -7.8533 C.ar    1  UNL1        0.1750
     20 N         -16.6909  -11.9333   -8.9004 N.ar    1  UNL1       -0.3349
     21 C         -17.5363  -11.0137   -8.4209 C.ar    1  UNL1        0.0757
     22 C         -18.5891  -10.3814   -9.0758 C.ar    1  UNL1        0.0185
     23 H         -16.6631  -12.3465   -9.8589 H       1  UNL1        0.1675
     24 C         -22.0977  -10.8414  -13.9798 C.ar    1  UNL1        0.0508
     25 C         -22.7717  -11.9935  -14.4222 C.ar    1  UNL1        0.0328
     26 C         -23.4978  -11.9827  -15.6171 C.ar    1  UNL1        0.1074
     27 C         -23.5628  -10.8129  -16.3789 C.ar    1  UNL1        0.0244
     28 C         -22.8978   -9.6566  -15.9617 C.ar    1  UNL1        0.0283
     29 S         -23.0519   -8.1750  -16.9675 S.3     1  UNL1       -0.1412
     30 C         -22.1608   -9.6612  -14.7585 C.ar    1  UNL1        0.0721
     31 H         -21.9100   -8.5039  -17.7216 H       1  UNL1        0.1071
     32 S         -24.3479  -13.4323  -16.1429 S.O2    1  UNL1        0.0105
     33 C         -23.3598  -14.8620  -15.7679 C.3     1  UNL1        0.1816
     34 O         -24.5973  -13.3656  -17.6236 O.2     1  UNL1       -0.1686
     35 O         -25.6701  -13.5372  -15.4356 O.2     1  UNL1       -0.1686
     36 N         -21.3029  -10.8767  -12.7777 N.pl3   1  UNL1       -0.3325
     37 H         -20.5376  -10.1762  -12.6570 H       1  UNL1        0.1468
     38 C         -20.1535  -12.5777  -11.4442 C.3     1  UNL1        0.0229
     39 C         -21.4720  -11.8655  -11.7144 C.3     1  UNL1        0.0871
@<TRIPOS>BOND
     1    38    39    1
     2    39    36    1
     3    36    24    1
     4    24    25   ar
     5    25    26   ar
     6    26    32    1
     7    32    33    1
     8    32    34    2
     9    32    35    2
    10    26    27   ar
    11    27    28   ar
    12    28    29    1
    13    28    30   ar
    14    30     1    1
    15     1     2    2
    16     1     3   am
    17     3     4    1
    18     4     5    1
    19     5     6    1
    20     6     7    1
    21     7     8   ar
    22     8     9   ar
    23     9    10   ar
    24    10    14    1
    25    14    15   ar
    26    15    16   ar
    27    16    17   ar
    28    17    18   ar
    29    18    19   ar
    30    19    20   ar
    31    20    21   ar
    32    21    22   ar
    33    10    11   ar
    34    11    12   ar
    35    12    13    1
    36    30    24   ar
    37    13     3    1
    38    12     7   ar
    39    22    14   ar
    40    21    17   ar
    41    36    37    1
    42    29    31    1
    43    20    23    1
@<TRIPOS>MOLECULE
*****
 39 43 0 0 0
SMALL
GASTEIGER

@<TRIPOS>ATOM
      1 C         -21.4599   -8.3497  -14.1308 C.2     1  UNL1        0.2510
      2 O         -20.3431   -7.9880  -14.5910 O.2     1  UNL1       -0.2698
      3 N         -22.1251   -7.5478  -13.1348 N.am    1  UNL1       -0.2680
      4 C         -23.5945   -7.4606  -13.1657 C.3     1  UNL1        0.1412
      5 C         -24.1676   -6.4969  -12.1209 C.3     1  UNL1        0.2268
      6 O         -24.0489   -7.0216  -10.8007 O.3     1  UNL1       -0.4739
      7 C         -22.8808   -7.4820  -10.1682 C.ar    1  UNL1        0.1362
      8 C         -23.0381   -8.0281   -8.8894 C.ar    1  UNL1        0.0366
      9 C         -21.9579   -8.5853   -8.2069 C.ar    1  UNL1        0.0031
     10 C         -20.6844   -8.6044   -8.7904 C.ar    1  UNL1       -0.0000
     11 C         -20.5066   -8.0215  -10.0551 C.ar    1  UNL1        0.0004
     12 C         -21.5882   -7.4533  -10.7544 C.ar    1  UNL1        0.0317
     13 C         -21.3305   -6.8527  -12.1129 C.3     1  UNL1        0.1236
     14 C         -19.5465   -9.2516   -8.0928 C.ar    1  UNL1        0.0015
     15 C         -18.7563  -10.2311   -8.7564 C.ar    1  UNL1        0.0016
     16 C         -17.6682  -10.8418   -8.1048 C.ar    1  UNL1        0.0206
     17 C         -17.3947  -10.4532   -6.7977 C.ar    1  UNL1        0.0985
     18 N         -16.4110  -10.8970   -5.9949 N.ar    1  UNL1       -0.2241
     19 C         -16.6082  -10.1853   -4.8538 C.ar    1  UNL1        0.1750
     20 N         -17.6593   -9.3334   -4.9227 N.ar    1  UNL1       -0.3349
     21 C         -18.1444   -9.5167   -6.1561 C.ar    1  UNL1        0.0757
     22 C         -19.2291   -8.8888   -6.7612 C.ar    1  UNL1        0.0185
     23 H         -18.0076   -8.6845   -4.1824 H       1  UNL1        0.1675
     24 C         -22.0266  -10.7710  -13.8135 C.ar    1  UNL1        0.0508
     25 C         -22.6369  -11.9493  -14.2789 C.ar    1  UNL1        0.0328
     26 C         -23.2757  -11.9807  -15.5223 C.ar    1  UNL1        0.1074
     27 C         -23.3164  -10.8276  -16.3107 C.ar    1  UNL1        0.0244
     28 C         -22.7135   -9.6458  -15.8712 C.ar    1  UNL1        0.0283
     29 S         -22.8338   -8.1881  -16.9157 S.3     1  UNL1       -0.1412
     30 C         -22.0646   -9.6077  -14.6188 C.ar    1  UNL1        0.0721
     31 H         -21.6327   -8.4994  -17.5798 H       1  UNL1        0.1071
     32 S         -24.0478  -13.4627  -16.0773 S.O2    1  UNL1        0.0105
     33 C         -25.3121  -13.9359  -14.9202 C.3     1  UNL1        0.1816
     34 O         -23.0251  -14.5590  -16.1834 O.2     1  UNL1       -0.1686
     35 O         -24.6633  -13.2450  -17.4312 O.2     1  UNL1       -0.1686
     36 N         -21.3192  -10.7619  -12.5575 N.pl3   1  UNL1       -0.3325
     37 H         -20.6604   -9.9774  -12.3541 H       1  UNL1        0.1468
     38 C         -20.1117  -12.5558  -11.4101 C.3     1  UNL1        0.0229
     39 C         -21.4334  -11.8122  -11.5472 C.3     1  UNL1        0.0871
@<TRIPOS>BOND
     1    38    39    1
     2    39    36    1
     3    36    24    1
     4    24    25   ar
     5    25    26   ar
     6    26    32    1
     7    32    33    1
     8    32    34    2
     9    32    35    2
    10    26    27   ar
    11    27    28   ar
    12    28    29    1
    13    28    30   ar
    14    30     1    1
    15     1     2    2
    16     1     3   am
    17     3     4    1
    18     4     5    1
    19     5     6    1
    20     6     7    1
    21     7     8   ar
    22     8     9   ar
    23     9    10   ar
    24    10    14    1
    25    14    15   ar
    26    15    16   ar
    27    16    17   ar
    28    17    18   ar
    29    18    19   ar
    30    19    20   ar
    31    20    21   ar
    32    21    22   ar
    33    10    11   ar
    34    11    12   ar
    35    12    13    1
    36    30    24   ar
    37    13     3    1
    38    12     7   ar
    39    22    14   ar
    40    21    17   ar
    41    36    37    1
    42    29    31    1
    43    20    23    1
@<TRIPOS>MOLECULE
*****
 39 43 0 0 0
SMALL
GASTEIGER

@<TRIPOS>ATOM
      1 C         -21.5174   -8.6492  -14.2549 C.2     1  UNL1        0.2510
      2 O         -20.3939   -8.4036  -14.7718 O.2     1  UNL1       -0.2698
      3 N         -22.0849   -7.7385  -13.2927 N.am    1  UNL1       -0.2680
      4 C         -23.5439   -7.5408  -13.2837 C.3     1  UNL1        0.1412
      5 C         -24.0057   -6.4730  -12.2861 C.3     1  UNL1        0.2268
      6 O         -23.8795   -6.9224  -10.9391 O.3     1  UNL1       -0.4739
      7 C         -22.7272   -7.4310  -10.3146 C.ar    1  UNL1        0.1362
      8 C         -22.8791   -7.8831   -8.9990 C.ar    1  UNL1        0.0366
      9 C         -21.8199   -8.4782   -8.3156 C.ar    1  UNL1        0.0031
     10 C         -20.5730   -8.6311   -8.9357 C.ar    1  UNL1       -0.0000
     11 C         -20.3974   -8.1432  -10.2403 C.ar    1  UNL1        0.0004
     12 C         -21.4578   -7.5380  -10.9411 C.ar    1  UNL1        0.0317
     13 C         -21.2047   -7.0444  -12.3428 C.3     1  UNL1        0.1236
     14 C         -19.4624   -9.3193   -8.2334 C.ar    1  UNL1        0.0015
     15 C         -18.6857  -10.3051   -8.9035 C.ar    1  UNL1        0.0016
     16 C         -17.6233  -10.9546   -8.2471 C.ar    1  UNL1        0.0206
     17 C         -17.3614  -10.5978   -6.9286 C.ar    1  UNL1        0.0985
     18 N         -16.4016  -11.0809   -6.1195 N.ar    1  UNL1       -0.2241
     19 C         -16.5996  -10.3864   -4.9679 C.ar    1  UNL1        0.1750
     20 N         -17.6285   -9.5077   -5.0366 N.ar    1  UNL1       -0.3349
     21 C         -18.0982   -9.6556   -6.2806 C.ar    1  UNL1        0.0757
     22 C         -19.1576   -8.9898   -6.8902 C.ar    1  UNL1        0.0185
     23 H         -17.9727   -8.8647   -4.2893 H       1  UNL1        0.1675
     24 C         -22.6559  -10.0684  -15.9795 C.ar    1  UNL1        0.0508
     25 C         -23.3029  -11.2646  -16.3373 C.ar    1  UNL1        0.0328
     26 C         -23.5292  -12.2666  -15.3887 C.ar    1  UNL1        0.1074
     27 C         -23.1019  -12.0836  -14.0708 C.ar    1  UNL1        0.0244
     28 C         -22.4603  -10.9016  -13.6905 C.ar    1  UNL1        0.0283
     29 S         -21.9023  -10.7441  -11.9892 S.3     1  UNL1       -0.1412
     30 C         -22.2314   -9.8850  -14.6418 C.ar    1  UNL1        0.0721
     31 H         -23.1179  -10.1586  -11.5888 H       1  UNL1        0.1071
     32 S         -24.3262  -13.7633  -15.8632 S.O2    1  UNL1        0.0105
     33 C         -23.2358  -15.1334  -15.5550 C.3     1  UNL1        0.1816
     34 O         -24.6724  -13.7128  -17.3249 O.2     1  UNL1       -0.1686
     35 O         -25.5927  -13.9431  -15.0738 O.2     1  UNL1       -0.1686
     36 N         -22.4787   -9.0159  -16.9485 N.pl3   1  UNL1       -0.3325
     37 H         -21.5096   -8.7337  -17.2166 H       1  UNL1        0.1468
     38 C         -23.4944   -6.8025  -17.1970 C.3     1  UNL1        0.0229
     39 C         -23.5799   -8.2777  -17.5644 C.3     1  UNL1        0.0871
@<TRIPOS>BOND
     1    38    39    1
     2    39    36    1
     3    36    24    1
     4    24    25   ar
     5    25    26   ar
     6    26    32    1
     7    32    33    1
     8    32    34    2
     9    32    35    2
    10    26    27   ar
    11    27    28   ar
    12    28    29    1
    13    28    30   ar
    14    30     1    1
    15     1     2    2
    16     1     3   am
    17     3     4    1
    18     4     5    1
    19     5     6    1
    20     6     7    1
    21     7     8   ar
    22     8     9   ar
    23     9    10   ar
    24    10    14    1
    25    14    15   ar
    26    15    16   ar
    27    16    17   ar
    28    17    18   ar
    29    18    19   ar
    30    19    20   ar
    31    20    21   ar
    32    21    22   ar
    33    10    11   ar
    34    11    12   ar
    35    12    13    1
    36    30    24   ar
    37    13     3    1
    38    12     7   ar
    39    22    14   ar
    40    21    17   ar
    41    36    37    1
    42    29    31    1
    43    20    23    1
@<TRIPOS>MOLECULE
*****
 39 43 0 0 0
SMALL
GASTEIGER

@<TRIPOS>ATOM
      1 C         -21.3739   -9.0847   -9.3103 C.2     1  UNL1        0.2510
      2 O         -22.3477   -9.2956   -8.5377 O.2     1  UNL1       -0.2698
      3 N         -21.5190   -8.1849  -10.4269 N.am    1  UNL1       -0.2680
      4 C         -20.3692   -7.3510  -10.8148 C.3     1  UNL1        0.1412
      5 C         -20.6869   -6.3673  -11.9461 C.3     1  UNL1        0.2268
      6 O         -20.8497   -7.0364  -13.1944 O.3     1  UNL1       -0.4739
      7 C         -21.7155   -8.1062  -13.4816 C.ar    1  UNL1        0.1362
      8 C         -21.6330   -8.6464  -14.7699 C.ar    1  UNL1        0.0366
      9 C         -22.3897   -9.7592  -15.1335 C.ar    1  UNL1        0.0031
     10 C         -23.2571  -10.3587  -14.2110 C.ar    1  UNL1       -0.0000
     11 C         -23.3791   -9.7995  -12.9291 C.ar    1  UNL1        0.0004
     12 C         -22.6228   -8.6746  -12.5494 C.ar    1  UNL1        0.0317
     13 C         -22.7944   -8.1300  -11.1543 C.3     1  UNL1        0.1236
     14 C         -24.0168  -11.5794  -14.5756 C.ar    1  UNL1        0.0015
     15 C         -25.3213  -11.8004  -14.0527 C.ar    1  UNL1        0.0016
     16 C         -26.0528  -12.9510  -14.4025 C.ar    1  UNL1        0.0206
     17 C         -25.4578  -13.8568  -15.2743 C.ar    1  UNL1        0.0985
     18 N         -25.9711  -15.0086  -15.7424 N.ar    1  UNL1       -0.2241
     19 C         -24.9793  -15.4769  -16.5453 C.ar    1  UNL1        0.1750
     20 N         -23.8922  -14.6697  -16.5887 N.ar    1  UNL1       -0.3349
     21 C         -24.2114  -13.6529  -15.7798 C.ar    1  UNL1        0.0757
     22 C         -23.4526  -12.5308  -15.4599 C.ar    1  UNL1        0.0185
     23 H         -23.0104  -14.8112  -17.1298 H       1  UNL1        0.1675
     24 C         -19.3123   -9.4407   -7.9291 C.ar    1  UNL1        0.0508
     25 C         -18.1148  -10.1368   -7.6869 C.ar    1  UNL1        0.0328
     26 C         -17.6926  -11.1545   -8.5478 C.ar    1  UNL1        0.1074
     27 C         -18.4711  -11.4913   -9.6583 C.ar    1  UNL1        0.0244
     28 C         -19.6631  -10.8109   -9.9220 C.ar    1  UNL1        0.0283
     29 S         -20.6368  -11.3175  -11.3453 S.3     1  UNL1       -0.1412
     30 C         -20.0938   -9.7808   -9.0591 C.ar    1  UNL1        0.0721
     31 H         -19.9809  -10.4001  -12.1874 H       1  UNL1        0.1071
     32 S         -16.1980  -12.0241   -8.2154 S.O2    1  UNL1        0.0105
     33 C         -15.0509  -11.7520   -9.5463 C.3     1  UNL1        0.1816
     34 O         -16.4836  -13.4942   -8.0881 O.2     1  UNL1       -0.1686
     35 O         -15.5960  -11.5367   -6.9272 O.2     1  UNL1       -0.1686
     36 N         -19.7115   -8.3535   -7.0708 N.pl3   1  UNL1       -0.3325
     37 H         -20.5325   -7.7688   -7.3444 H       1  UNL1        0.1468
     38 C         -19.6956   -8.6139   -4.6368 C.3     1  UNL1        0.0229
     39 C         -19.0119   -7.9827   -5.8420 C.3     1  UNL1        0.0871
@<TRIPOS>BOND
     1    38    39    1
     2    39    36    1
     3    36    24    1
     4    24    25   ar
     5    25    26   ar
     6    26    32    1
     7    32    33    1
     8    32    34    2
     9    32    35    2
    10    26    27   ar
    11    27    28   ar
    12    28    29    1
    13    28    30   ar
    14    30     1    1
    15     1     2    2
    16     1     3   am
    17     3     4    1
    18     4     5    1
    19     5     6    1
    20     6     7    1
    21     7     8   ar
    22     8     9   ar
    23     9    10   ar
    24    10    14    1
    25    14    15   ar
    26    15    16   ar
    27    16    17   ar
    28    17    18   ar
    29    18    19   ar
    30    19    20   ar
    31    20    21   ar
    32    21    22   ar
    33    10    11   ar
    34    11    12   ar
    35    12    13    1
    36    30    24   ar
    37    13     3    1
    38    12     7   ar
    39    22    14   ar
    40    21    17   ar
    41    36    37    1
    42    29    31    1
    43    20    23    1
@<TRIPOS>MOLECULE
*****
 39 43 0 0 0
SMALL
GASTEIGER

@<TRIPOS>ATOM
      1 C         -21.4807   -8.3885  -13.9710 C.2     1  UNL1        0.2510
      2 O         -20.4083   -7.8431  -14.3483 O.2     1  UNL1       -0.2698
      3 N         -22.3553   -7.7040  -13.0522 N.am    1  UNL1       -0.2680
      4 C         -23.8099   -7.8737  -13.2039 C.3     1  UNL1        0.1412
      5 C         -24.6260   -7.0134  -12.2332 C.3     1  UNL1        0.2268
      6 O         -24.5299   -7.4957  -10.8950 O.3     1  UNL1       -0.4739
      7 C         -23.3572   -7.7397  -10.1590 C.ar    1  UNL1        0.1362
      8 C         -23.5249   -8.2915   -8.8840 C.ar    1  UNL1        0.0366
      9 C         -22.4260   -8.6455   -8.1027 C.ar    1  UNL1        0.0031
     10 C         -21.1238   -8.4491   -8.5807 C.ar    1  UNL1       -0.0000
     11 C         -20.9436   -7.8574   -9.8410 C.ar    1  UNL1        0.0004
     12 C         -22.0443   -7.4930  -10.6393 C.ar    1  UNL1        0.0317
     13 C         -21.7809   -6.8709  -11.9869 C.3     1  UNL1        0.1236
     14 C         -19.9541   -8.8816   -7.7777 C.ar    1  UNL1        0.0015
     15 C         -19.0697   -9.8808   -8.2713 C.ar    1  UNL1        0.0016
     16 C         -17.9514  -10.2886   -7.5199 C.ar    1  UNL1        0.0206
     17 C         -17.7433   -9.6811   -6.2862 C.ar    1  UNL1        0.0985
     18 N         -16.7465   -9.9103   -5.4127 N.ar    1  UNL1       -0.2241
     19 C         -17.0298   -9.0504   -4.3987 C.ar    1  UNL1        0.1750
     20 N         -18.1455   -8.3121   -4.6118 N.ar    1  UNL1       -0.3349
     21 C         -18.5832   -8.7242   -5.8071 C.ar    1  UNL1        0.0757
     22 C         -19.7007   -8.2919   -6.5153 C.ar    1  UNL1        0.0185
     23 H         -18.5643   -7.5889   -3.9858 H       1  UNL1        0.1675
     24 C         -22.0799   -9.9339  -15.8517 C.ar    1  UNL1        0.0508
     25 C         -22.3638  -11.2294  -16.3191 C.ar    1  UNL1        0.0328
     26 C         -22.3885  -12.3170  -15.4407 C.ar    1  UNL1        0.1074
     27 C         -22.1210  -12.1189  -14.0835 C.ar    1  UNL1        0.0244
     28 C         -21.8403  -10.8399  -13.5949 C.ar    1  UNL1        0.0283
     29 S         -21.4682  -10.6585  -11.8458 S.3     1  UNL1       -0.1412
     30 C         -21.8166   -9.7374  -14.4750 C.ar    1  UNL1        0.0721
     31 H         -22.8204  -10.4331  -11.5271 H       1  UNL1        0.1071
     32 S         -22.7297  -13.9330  -16.0511 S.O2    1  UNL1        0.0105
     33 C         -22.9741  -15.0396  -14.6811 C.3     1  UNL1        0.1816
     34 O         -21.5776  -14.4132  -16.8883 O.2     1  UNL1       -0.1686
     35 O         -23.9678  -13.9092  -16.9032 O.2     1  UNL1       -0.1686
     36 N         -22.1141   -8.8088  -16.7524 N.pl3   1  UNL1       -0.3325
     37 H         -21.2283   -8.2915  -16.9487 H       1  UNL1        0.1468
     38 C         -23.4623   -6.8091  -17.1714 C.3     1  UNL1        0.0229
     39 C         -23.3303   -8.3099  -17.3916 C.3     1  UNL1        0.0871
@<TRIPOS>BOND
     1    38    39    1
     2    39    36    1
     3    36    24    1
     4    24    25   ar
     5    25    26   ar
     6    26    32    1
     7    32    33    1
     8    32    34    2
     9    32    35    2
    10    26    27   ar
    11    27    28   ar
    12    28    29    1
    13    28    30   ar
    14    30     1    1
    15     1     2    2
    16     1     3   am
    17     3     4    1
    18     4     5    1
    19     5     6    1
    20     6     7    1
    21     7     8   ar
    22     8     9   ar
    23     9    10   ar
    24    10    14    1
    25    14    15   ar
    26    15    16   ar
    27    16    17   ar
    28    17    18   ar
    29    18    19   ar
    30    19    20   ar
    31    20    21   ar
    32    21    22   ar
    33    10    11   ar
    34    11    12   ar
    35    12    13    1
    36    30    24   ar
    37    13     3    1
    38    12     7   ar
    39    22    14   ar
    40    21    17   ar
    41    36    37    1
    42    29    31    1
    43    20    23    1
@<TRIPOS>MOLECULE
*****
 39 43 0 0 0
SMALL
GASTEIGER

@<TRIPOS>ATOM
      1 C         -21.3659   -9.4122   -9.5244 C.2     1  UNL1        0.2510
      2 O         -22.2756   -9.7028   -8.7012 O.2     1  UNL1       -0.2698
      3 N         -21.6266   -8.4763  -10.5892 N.am    1  UNL1       -0.2680
      4 C         -20.5458   -7.5707  -11.0128 C.3     1  UNL1        0.1412
      5 C         -20.9835   -6.5593  -12.0776 C.3     1  UNL1        0.2268
      6 O         -21.1960   -7.1848  -13.3410 O.3     1  UNL1       -0.4739
      7 C         -22.0271   -8.2842  -13.6188 C.ar    1  UNL1        0.1362
      8 C         -22.0039   -8.7672  -14.9321 C.ar    1  UNL1        0.0366
      9 C         -22.7291   -9.9009  -15.2949 C.ar    1  UNL1        0.0031
     10 C         -23.5045  -10.5800  -14.3460 C.ar    1  UNL1       -0.0000
     11 C         -23.5685  -10.0800  -13.0358 C.ar    1  UNL1        0.0004
     12 C         -22.8431   -8.9347  -12.6564 C.ar    1  UNL1        0.0317
     13 C         -22.9483   -8.4562  -11.2308 C.3     1  UNL1        0.1236
     14 C         -24.2277  -11.8216  -14.7143 C.ar    1  UNL1        0.0015
     15 C         -25.4440  -12.1684  -14.0628 C.ar    1  UNL1        0.0016
     16 C         -26.1416  -13.3394  -14.4143 C.ar    1  UNL1        0.0206
     17 C         -25.6026  -14.1384  -15.4170 C.ar    1  UNL1        0.0985
     18 N         -26.0983  -15.2870  -15.9110 N.ar    1  UNL1       -0.2241
     19 C         -25.1841  -15.6282  -16.8574 C.ar    1  UNL1        0.1750
     20 N         -24.1608  -14.7467  -16.9632 N.ar    1  UNL1       -0.3349
     21 C         -24.4408  -13.8138  -16.0460 C.ar    1  UNL1        0.0757
     22 C         -23.7180  -12.6672  -15.7295 C.ar    1  UNL1        0.0185
     23 H         -23.3437  -14.7886  -17.6121 H       1  UNL1        0.1675
     24 C         -19.6490  -11.0728  -10.2856 C.ar    1  UNL1        0.0508
     25 C         -18.3714  -11.6467  -10.1603 C.ar    1  UNL1        0.0328
     26 C         -17.4913  -11.2213   -9.1605 C.ar    1  UNL1        0.1074
     27 C         -17.8797  -10.2090   -8.2790 C.ar    1  UNL1        0.0244
     28 C         -19.1460   -9.6262   -8.3813 C.ar    1  UNL1        0.0283
     29 S         -19.5701   -8.3035   -7.2406 S.3     1  UNL1       -0.1412
     30 C         -20.0404  -10.0527   -9.3858 C.ar    1  UNL1        0.0721
     31 H         -20.1127   -9.2086   -6.3094 H       1  UNL1        0.1071
     32 S         -15.8900  -11.9426   -9.0331 S.O2    1  UNL1        0.0105
     33 C         -15.5364  -12.2913   -7.3259 C.3     1  UNL1        0.1816
     34 O         -14.8605  -10.9927   -9.5779 O.2     1  UNL1       -0.1686
     35 O         -15.8368  -13.2181   -9.8267 O.2     1  UNL1       -0.1686
     36 N         -20.5727  -11.5570  -11.2807 N.pl3   1  UNL1       -0.3325
     37 H         -21.3694  -10.9468  -11.5702 H       1  UNL1        0.1468
     38 C         -20.8796  -12.8013  -13.3664 C.3     1  UNL1        0.0229
     39 C         -20.4921  -12.8805  -11.8960 C.3     1  UNL1        0.0871
@<TRIPOS>BOND
     1    38    39    1
     2    39    36    1
     3    36    24    1
     4    24    25   ar
     5    25    26   ar
     6    26    32    1
     7    32    33    1
     8    32    34    2
     9    32    35    2
    10    26    27   ar
    11    27    28   ar
    12    28    29    1
    13    28    30   ar
    14    30     1    1
    15     1     2    2
    16     1     3   am
    17     3     4    1
    18     4     5    1
    19     5     6    1
    20     6     7    1
    21     7     8   ar
    22     8     9   ar
    23     9    10   ar
    24    10    14    1
    25    14    15   ar
    26    15    16   ar
    27    16    17   ar
    28    17    18   ar
    29    18    19   ar
    30    19    20   ar
    31    20    21   ar
    32    21    22   ar
    33    10    11   ar
    34    11    12   ar
    35    12    13    1
    36    30    24   ar
    37    13     3    1
    38    12     7   ar
    39    22    14   ar
    40    21    17   ar
    41    36    37    1
    42    29    31    1
    43    20    23    1
@<TRIPOS>MOLECULE
*****
 39 43 0 0 0
SMALL
GASTEIGER

@<TRIPOS>ATOM
      1 C         -19.8858   -8.9461  -11.1201 C.2     1  UNL1        0.2510
      2 O         -19.3050   -8.0305  -11.7636 O.2     1  UNL1       -0.2698
      3 N         -20.4950  -10.0480  -11.8216 N.am    1  UNL1       -0.2680
      4 C         -20.4526  -11.3853  -11.2072 C.3     1  UNL1        0.1412
      5 C         -21.0417  -12.4827  -12.1001 C.3     1  UNL1        0.2268
      6 O         -22.4601  -12.3769  -12.1967 O.3     1  UNL1       -0.4739
      7 C         -23.2066  -11.2498  -12.5828 C.ar    1  UNL1        0.1362
      8 C         -24.5991  -11.3730  -12.5205 C.ar    1  UNL1        0.0366
      9 C         -25.4308  -10.2912  -12.8052 C.ar    1  UNL1        0.0031
     10 C         -24.8843   -9.0530  -13.1669 C.ar    1  UNL1       -0.0000
     11 C         -23.4900   -8.9297  -13.2735 C.ar    1  UNL1        0.0004
     12 C         -22.6385  -10.0145  -12.9911 C.ar    1  UNL1        0.0317
     13 C         -21.1499   -9.8119  -13.1156 C.3     1  UNL1        0.1236
     14 C         -25.7645   -7.8840  -13.4102 C.ar    1  UNL1        0.0015
     15 C         -25.2649   -6.5606  -13.2580 C.ar    1  UNL1        0.0016
     16 C         -26.0909   -5.4463  -13.4977 C.ar    1  UNL1        0.0206
     17 C         -27.4042   -5.6853  -13.8882 C.ar    1  UNL1        0.0985
     18 N         -28.3572   -4.7796  -14.1717 N.ar    1  UNL1       -0.2241
     19 C         -29.4251   -5.5560  -14.4950 C.ar    1  UNL1        0.1750
     20 N         -29.1694   -6.8844  -14.4226 N.ar    1  UNL1       -0.3349
     21 C         -27.8898   -6.9473  -14.0371 C.ar    1  UNL1        0.0757
     22 C         -27.1094   -8.0771  -13.8096 C.ar    1  UNL1        0.0185
     23 H         -29.8225   -7.6743  -14.6226 H       1  UNL1        0.1675
     24 C         -18.9283   -9.4701   -8.8633 C.ar    1  UNL1        0.0508
     25 C         -18.9777   -9.3522   -7.4630 C.ar    1  UNL1        0.0328
     26 C         -20.0120   -8.6463   -6.8408 C.ar    1  UNL1        0.1074
     27 C         -21.0053   -8.0433   -7.6171 C.ar    1  UNL1        0.0244
     28 C         -20.9796   -8.1502   -9.0104 C.ar    1  UNL1        0.0283
     29 S         -22.2658   -7.3204   -9.9527 S.3     1  UNL1       -0.1412
     30 C         -19.9406   -8.8636   -9.6448 C.ar    1  UNL1        0.0721
     31 H         -23.0931   -8.4586   -9.9269 H       1  UNL1        0.1071
     32 S         -20.0443   -8.4974   -5.0866 S.O2    1  UNL1        0.0105
     33 C         -18.8626   -9.6218   -4.3792 C.3     1  UNL1        0.1816
     34 O         -21.4195   -8.8228   -4.5748 O.2     1  UNL1       -0.1686
     35 O         -19.7007   -7.0904   -4.6843 O.2     1  UNL1       -0.1686
     36 N         -17.8922  -10.2487   -9.4945 N.pl3   1  UNL1       -0.3325
     37 H         -17.6241  -10.0291  -10.4798 H       1  UNL1        0.1468
     38 C         -17.5698  -12.6748   -9.5445 C.3     1  UNL1        0.0229
     39 C         -17.2051  -11.3682   -8.8530 C.3     1  UNL1        0.0871
@<TRIPOS>BOND
     1    38    39    1
     2    39    36    1
     3    36    24    1
     4    24    25   ar
     5    25    26   ar
     6    26    32    1
     7    32    33    1
     8    32    34    2
     9    32    35    2
    10    26    27   ar
    11    27    28   ar
    12    28    29    1
    13    28    30   ar
    14    30     1    1
    15     1     2    2
    16     1     3   am
    17     3     4    1
    18     4     5    1
    19     5     6    1
    20     6     7    1
    21     7     8   ar
    22     8     9   ar
    23     9    10   ar
    24    10    14    1
    25    14    15   ar
    26    15    16   ar
    27    16    17   ar
    28    17    18   ar
    29    18    19   ar
    30    19    20   ar
    31    20    21   ar
    32    21    22   ar
    33    10    11   ar
    34    11    12   ar
    35    12    13    1
    36    30    24   ar
    37    13     3    1
    38    12     7   ar
    39    22    14   ar
    40    21    17   ar
    41    36    37    1
    42    29    31    1
    43    20    23    1
@<TRIPOS>MOLECULE
*****
 39 43 0 0 0
SMALL
GASTEIGER

@<TRIPOS>ATOM
      1 C         -26.3231   -8.5669  -11.9534 C.2     1  UNL1        0.2510
      2 O         -26.9805   -8.4664  -10.8822 O.2     1  UNL1       -0.2698
      3 N         -25.5649   -9.7618  -12.2267 N.am    1  UNL1       -0.2680
      4 C         -25.4765  -10.2387  -13.6169 C.3     1  UNL1        0.1412
      5 C         -24.7316  -11.5707  -13.7556 C.3     1  UNL1        0.2268
      6 O         -23.3321  -11.4161  -13.5320 O.3     1  UNL1       -0.4739
      7 C         -22.7061  -10.8433  -12.4110 C.ar    1  UNL1        0.1362
      8 C         -21.3120  -10.7336  -12.4636 C.ar    1  UNL1        0.0366
      9 C         -20.6000  -10.1095  -11.4406 C.ar    1  UNL1        0.0031
     10 C         -21.2712   -9.5812  -10.3301 C.ar    1  UNL1       -0.0000
     11 C         -22.6654   -9.7229  -10.2469 C.ar    1  UNL1        0.0004
     12 C         -23.3965  -10.3530  -11.2716 C.ar    1  UNL1        0.0317
     13 C         -24.8927  -10.4633  -11.1244 C.3     1  UNL1        0.1236
     14 C         -20.5227   -8.8624   -9.2702 C.ar    1  UNL1        0.0015
     15 C         -20.6921   -7.4612   -9.0912 C.ar    1  UNL1        0.0016
     16 C         -19.9937   -6.7739   -8.0806 C.ar    1  UNL1        0.0206
     17 C         -19.1391   -7.5109   -7.2676 C.ar    1  UNL1        0.0985
     18 N         -18.3844   -7.0652   -6.2473 N.ar    1  UNL1       -0.2241
     19 C         -17.7652   -8.1948   -5.8137 C.ar    1  UNL1        0.1750
     20 N         -18.1051   -9.3017   -6.5170 N.ar    1  UNL1       -0.3349
     21 C         -18.9720   -8.8510   -7.4311 C.ar    1  UNL1        0.0757
     22 C         -19.6409   -9.5700   -8.4174 C.ar    1  UNL1        0.0185
     23 H         -17.7670  -10.2795   -6.3756 H       1  UNL1        0.1675
     24 C         -25.1233   -6.7995  -13.2654 C.ar    1  UNL1        0.0508
     25 C         -25.1485   -5.7528  -14.2041 C.ar    1  UNL1        0.0328
     26 C         -26.3521   -5.3430  -14.7860 C.ar    1  UNL1        0.1074
     27 C         -27.5443   -5.9838  -14.4385 C.ar    1  UNL1        0.0244
     28 C         -27.5449   -7.0239  -13.5048 C.ar    1  UNL1        0.0283
     29 S         -29.1062   -7.8312  -13.1294 S.3     1  UNL1       -0.1412
     30 C         -26.3344   -7.4406  -12.9115 C.ar    1  UNL1        0.0721
     31 H         -29.3721   -6.9427  -12.0708 H       1  UNL1        0.1071
     32 S         -26.3574   -4.0414  -15.9718 S.O2    1  UNL1        0.0105
     33 C         -28.0327   -3.6924  -16.4543 C.3     1  UNL1        0.1816
     34 O         -25.5596   -4.4504  -17.1782 O.2     1  UNL1       -0.1686
     35 O         -25.7382   -2.8057  -15.3808 O.2     1  UNL1       -0.1686
     36 N         -23.8878   -7.1772  -12.6258 N.pl3   1  UNL1       -0.3325
     37 H         -23.5175   -8.1427  -12.7723 H       1  UNL1        0.1468
     38 C         -21.6487   -6.3283  -12.1180 C.3     1  UNL1        0.0229
     39 C         -23.1236   -6.2999  -11.7409 C.3     1  UNL1        0.0871
@<TRIPOS>BOND
     1    38    39    1
     2    39    36    1
     3    36    24    1
     4    24    25   ar
     5    25    26   ar
     6    26    32    1
     7    32    33    1
     8    32    34    2
     9    32    35    2
    10    26    27   ar
    11    27    28   ar
    12    28    29    1
    13    28    30   ar
    14    30     1    1
    15     1     2    2
    16     1     3   am
    17     3     4    1
    18     4     5    1
    19     5     6    1
    20     6     7    1
    21     7     8   ar
    22     8     9   ar
    23     9    10   ar
    24    10    14    1
    25    14    15   ar
    26    15    16   ar
    27    16    17   ar
    28    17    18   ar
    29    18    19   ar
    30    19    20   ar
    31    20    21   ar
    32    21    22   ar
    33    10    11   ar
    34    11    12   ar
    35    12    13    1
    36    30    24   ar
    37    13     3    1
    38    12     7   ar
    39    22    14   ar
    40    21    17   ar
    41    36    37    1
    42    29    31    1
    43    20    23    1
@<TRIPOS>MOLECULE
*****
 39 43 0 0 0
SMALL
GASTEIGER

@<TRIPOS>ATOM
      1 C         -19.8168   -8.8518  -11.0552 C.2     1  UNL1        0.2510
      2 O         -19.2446   -7.9522  -11.7283 O.2     1  UNL1       -0.2698
      3 N         -20.4230   -9.9773  -11.7210 N.am    1  UNL1       -0.2680
      4 C         -20.3697  -11.2957  -11.0678 C.3     1  UNL1        0.1412
      5 C         -20.9567  -12.4222  -11.9251 C.3     1  UNL1        0.2268
      6 O         -22.3762  -12.3274  -12.0174 O.3     1  UNL1       -0.4739
      7 C         -23.1312  -11.2165  -12.4326 C.ar    1  UNL1        0.1362
      8 C         -24.5226  -11.3458  -12.3595 C.ar    1  UNL1        0.0366
      9 C         -25.3621  -10.2777  -12.6717 C.ar    1  UNL1        0.0031
     10 C         -24.8247   -9.0475  -13.0723 C.ar    1  UNL1       -0.0000
     11 C         -23.4317   -8.9193  -13.1897 C.ar    1  UNL1        0.0004
     12 C         -22.5724   -9.9905  -12.8799 C.ar    1  UNL1        0.0317
     13 C         -21.0857   -9.7831  -13.0179 C.3     1  UNL1        0.1236
     14 C         -25.7129   -7.8912  -13.3453 C.ar    1  UNL1        0.0015
     15 C         -25.2226   -6.5610  -13.2269 C.ar    1  UNL1        0.0016
     16 C         -26.0562   -5.4589  -13.4949 C.ar    1  UNL1        0.0206
     17 C         -27.3678   -5.7169  -13.8791 C.ar    1  UNL1        0.0985
     18 N         -28.3271   -4.8253  -14.1856 N.ar    1  UNL1       -0.2241
     19 C         -29.3895   -5.6171  -14.4889 C.ar    1  UNL1        0.1750
     20 N         -29.1246   -6.9414  -14.3827 N.ar    1  UNL1       -0.3349
     21 C         -27.8446   -6.9856  -13.9958 C.ar    1  UNL1        0.0757
     22 C         -27.0564   -8.1038  -13.7396 C.ar    1  UNL1        0.0185
     23 H         -29.7721   -7.7406  -14.5624 H       1  UNL1        0.1675
     24 C         -20.8100   -7.8655   -8.9754 C.ar    1  UNL1        0.0508
     25 C         -20.8644   -7.7847   -7.5726 C.ar    1  UNL1        0.0328
     26 C         -19.9977   -8.5420   -6.7786 C.ar    1  UNL1        0.1074
     27 C         -19.0709   -9.3957   -7.3828 C.ar    1  UNL1        0.0244
     28 C         -18.9953   -9.4898   -8.7752 C.ar    1  UNL1        0.0283
     29 S         -17.8070  -10.6340   -9.4888 S.3     1  UNL1       -0.1412
     30 C         -19.8648   -8.7263   -9.5827 C.ar    1  UNL1        0.0721
     31 H         -16.8087   -9.6437   -9.5478 H       1  UNL1        0.1071
     32 S         -20.0952   -8.4374   -5.0236 S.O2    1  UNL1        0.0105
     33 C         -19.0233   -9.6584   -4.3014 C.3     1  UNL1        0.1816
     34 O         -21.5099   -8.6812   -4.5783 O.2     1  UNL1       -0.1686
     35 O         -19.6752   -7.0684   -4.5667 O.2     1  UNL1       -0.1686
     36 N         -21.6661   -7.0381   -9.7883 N.pl3   1  UNL1       -0.3325
     37 H         -22.3641   -7.4962  -10.4159 H       1  UNL1        0.1468
     38 C         -21.5815   -5.0879  -11.2654 C.3     1  UNL1        0.0229
     39 C         -21.5983   -5.5784   -9.8240 C.3     1  UNL1        0.0871
@<TRIPOS>BOND
     1    38    39    1
     2    39    36    1
     3    36    24    1
     4    24    25   ar
     5    25    26   ar
     6    26    32    1
     7    32    33    1
     8    32    34    2
     9    32    35    2
    10    26    27   ar
    11    27    28   ar
    12    28    29    1
    13    28    30   ar
    14    30     1    1
    15     1     2    2
    16     1     3   am
    17     3     4    1
    18     4     5    1
    19     5     6    1
    20     6     7    1
    21     7     8   ar
    22     8     9   ar
    23     9    10   ar
    24    10    14    1
    25    14    15   ar
    26    15    16   ar
    27    16    17   ar
    28    17    18   ar
    29    18    19   ar
    30    19    20   ar
    31    20    21   ar
    32    21    22   ar
    33    10    11   ar
    34    11    12   ar
    35    12    13    1
    36    30    24   ar
    37    13     3    1
    38    12     7   ar
    39    22    14   ar
    40    21    17   ar
    41    36    37    1
    42    29    31    1
    43    20    23    1
