@<TRIPOS>MOLECULE
*****
 47 52 0 0 0
SMALL
GASTEIGER

@<TRIPOS>ATOM
      1 C         -25.4332   49.7872   -9.1636 C.ar    1  UNL1        0.0702
      2 C         -25.5557   48.4722   -8.6855 C.ar    1  UNL1        0.0191
      3 C         -26.6308   47.6790   -9.0885 C.ar    1  UNL1        0.0356
      4 C         -27.5699   48.1981   -9.9879 C.ar    1  UNL1        0.1317
      5 N         -27.4275   49.4697  -10.4496 N.ar    1  UNL1       -0.2279
      6 C         -26.3882   50.2600  -10.0734 C.ar    1  UNL1        0.1149
      7 N         -28.7097   47.4171  -10.3802 N.pl3   1  UNL1       -0.2949
      8 C         -28.5699   45.9563  -10.3036 C.3     1  UNL1        0.0922
      9 C         -29.8243   45.2998   -9.6996 C.3     1  UNL1        0.0252
     10 C         -31.0882   46.1854   -9.7844 C.3     1  UNL1        0.0471
     11 C         -31.0612   47.0127  -11.0867 C.3     1  UNL1        0.0235
     12 C         -29.8365   47.9852  -11.1695 C.3     1  UNL1        0.0742
     13 C         -30.1412   49.4931  -10.8015 C.3     1  UNL1        0.0182
     14 C         -31.5486   49.7553  -10.2325 C.3     1  UNL1        0.0017
     15 C         -29.9657   50.4072  -12.0330 C.3     1  UNL1        0.0017
     16 C         -31.2992   47.0795   -8.5426 C.3     1  UNL1        0.2054
     17 O         -30.3632   46.7665   -7.5077 O.3     1  UNL1       -0.4755
     18 C         -29.4323   47.6483   -6.9281 C.ar    1  UNL1        0.1388
     19 C         -28.4803   47.1069   -6.0578 C.ar    1  UNL1        0.0369
     20 C         -27.5415   47.9274   -5.4316 C.ar    1  UNL1        0.0033
     21 C         -27.5354   49.3012   -5.6775 C.ar    1  UNL1        0.0066
     22 C         -28.4629   49.8690   -6.5673 C.ar    1  UNL1        0.0785
     23 C         -29.4158   49.0368   -7.1841 C.ar    1  UNL1        0.0433
     24 C         -28.4379   51.3287   -6.8274 C.2     1  UNL1        0.3381
     25 O         -28.5921   51.7565   -8.0022 O.2     1  UNL1       -0.2451
     26 O         -28.2658   52.2542   -5.7990 O.3     1  UNL1       -0.4771
     27 H         -28.2502   51.9856   -4.8241 H       1  UNL1        0.2954
     28 C         -23.4115   51.2148   -9.7233 C.2     1  UNL1        0.2839
     29 O         -23.3820   50.8145  -10.9182 O.2     1  UNL1       -0.2665
     30 N         -24.3311   50.6300   -8.7871 N.am    1  UNL1       -0.2766
     31 H         -24.1363   50.7503   -7.7673 H       1  UNL1        0.1553
     32 C         -23.5401   54.3445  -10.4020 C.3     1  UNL1        0.0345
     33 C         -22.5246   53.6258   -9.5655 C.ar    1  UNL1        0.0202
     34 C         -22.4717   52.2586   -9.2723 C.ar    1  UNL1        0.1946
     35 O         -21.4292   52.0014   -8.5024 O.2     1  UNL1       -0.4492
     36 C         -20.8030   53.1314   -8.2815 C.ar    1  UNL1        0.1452
     37 C         -19.6548   53.3253   -7.5216 C.ar    1  UNL1        0.0375
     38 C         -19.1473   54.6316   -7.4140 C.ar    1  UNL1        0.0031
     39 C         -19.7911   55.7192   -8.0640 C.ar    1  UNL1        0.0002
     40 C         -20.9578   55.4783   -8.8286 C.ar    1  UNL1        0.0028
     41 C         -21.4337   54.1689   -8.9141 C.ar    1  UNL1        0.0337
     42 C         -19.2458   57.0952   -7.9429 C.ar    1  UNL1        0.0000
     43 C         -19.4903   58.0529   -8.9456 C.ar    1  UNL1        0.0000
     44 C         -18.9757   59.3477   -8.8289 C.ar    1  UNL1        0.0000
     45 C         -18.2140   59.7014   -7.7131 C.ar    1  UNL1        0.0000
     46 C         -17.9648   58.7608   -6.7113 C.ar    1  UNL1        0.0000
     47 C         -18.4761   57.4642   -6.8231 C.ar    1  UNL1        0.0000
@<TRIPOS>BOND
     1    32    33    1
     2    33    34   ar
     3    34    28    1
     4    28    29    2
     5    28    30   am
     6    30     1    1
     7     1     2   ar
     8     2     3   ar
     9     3     4   ar
    10     4     7    1
    11     7     8    1
    12     8     9    1
    13     9    10    1
    14    10    16    1
    15    16    17    1
    16    17    18    1
    17    18    19   ar
    18    19    20   ar
    19    20    21   ar
    20    21    22   ar
    21    22    24    1
    22    24    25    2
    23    24    26    1
    24    22    23   ar
    25    10    11    1
    26    11    12    1
    27    12    13    1
    28    13    14    1
    29    13    15    1
    30     4     5   ar
    31     5     6   ar
    32    34    35   ar
    33    35    36   ar
    34    36    37   ar
    35    37    38   ar
    36    38    39   ar
    37    39    42    1
    38    42    43   ar
    39    43    44   ar
    40    44    45   ar
    41    45    46   ar
    42    46    47   ar
    43    39    40   ar
    44    40    41   ar
    45    41    33   ar
    46     6     1   ar
    47    41    36   ar
    48    12     7    1
    49    47    42   ar
    50    23    18   ar
    51    30    31    1
    52    26    27    1
@<TRIPOS>MOLECULE
*****
 47 52 0 0 0
SMALL
GASTEIGER

@<TRIPOS>ATOM
      1 C         -25.4908   49.8401   -9.2065 C.ar    1  UNL1        0.0702
      2 C         -25.6004   48.5040   -8.7872 C.ar    1  UNL1        0.0191
      3 C         -26.6801   47.7259   -9.2069 C.ar    1  UNL1        0.0356
      4 C         -27.6371   48.2820  -10.0643 C.ar    1  UNL1        0.1317
      5 N         -27.5072   49.5740  -10.4695 N.ar    1  UNL1       -0.2279
      6 C         -26.4637   50.3504  -10.0762 C.ar    1  UNL1        0.1149
      7 N         -28.7813   47.5152  -10.4715 N.pl3   1  UNL1       -0.2949
      8 C         -28.5991   46.0613  -10.5827 C.3     1  UNL1        0.0922
      9 C         -29.7905   45.2951   -9.9804 C.3     1  UNL1        0.0252
     10 C         -31.0795   46.1410   -9.8720 C.3     1  UNL1        0.0471
     11 C         -31.1657   47.1186  -11.0628 C.3     1  UNL1        0.0235
     12 C         -29.9753   48.1351  -11.1085 C.3     1  UNL1        0.0742
     13 C         -30.2918   49.5769  -10.5402 C.3     1  UNL1        0.0182
     14 C         -31.5840   49.6821   -9.7082 C.3     1  UNL1        0.0017
     15 C         -30.3958   50.6091  -11.6833 C.3     1  UNL1        0.0017
     16 C         -31.2252   46.8726   -8.5192 C.3     1  UNL1        0.2054
     17 O         -30.3219   46.3493   -7.5419 O.3     1  UNL1       -0.4755
     18 C         -29.3135   47.0635   -6.8687 C.ar    1  UNL1        0.1388
     19 C         -29.4013   48.4596   -6.8618 C.ar    1  UNL1        0.0369
     20 C         -28.4237   49.2303   -6.2316 C.ar    1  UNL1        0.0033
     21 C         -27.3498   48.6127   -5.5888 C.ar    1  UNL1        0.0066
     22 C         -27.2498   47.2116   -5.5570 C.ar    1  UNL1        0.0785
     23 C         -28.2322   46.4414   -6.2071 C.ar    1  UNL1        0.0433
     24 C         -26.1090   46.5687   -4.8610 C.2     1  UNL1        0.3381
     25 O         -25.9159   46.7956   -3.6370 O.2     1  UNL1       -0.2451
     26 O         -25.2444   45.6966   -5.5211 O.3     1  UNL1       -0.4771
     27 H         -25.4080   45.3840   -6.4688 H       1  UNL1        0.2954
     28 C         -23.4355   51.2326   -9.7312 C.2     1  UNL1        0.2839
     29 O         -23.3853   50.8225  -10.9220 O.2     1  UNL1       -0.2665
     30 N         -24.3847   50.6692   -8.8116 N.am    1  UNL1       -0.2766
     31 H         -24.2111   50.7946   -7.7886 H       1  UNL1        0.1553
     32 C         -23.5091   54.3607  -10.4252 C.3     1  UNL1        0.0345
     33 C         -22.5192   53.6322   -9.5668 C.ar    1  UNL1        0.0202
     34 C         -22.4902   52.2656   -9.2670 C.ar    1  UNL1        0.1946
     35 O         -21.4659   51.9979   -8.4766 O.2     1  UNL1       -0.4492
     36 C         -20.8287   53.1203   -8.2487 C.ar    1  UNL1        0.1452
     37 C         -19.6925   53.3022   -7.4683 C.ar    1  UNL1        0.0375
     38 C         -19.1695   54.6020   -7.3566 C.ar    1  UNL1        0.0031
     39 C         -19.7862   55.6952   -8.0230 C.ar    1  UNL1        0.0002
     40 C         -20.9416   55.4666   -8.8083 C.ar    1  UNL1        0.0028
     41 C         -21.4335   54.1634   -8.8973 C.ar    1  UNL1        0.0337
     42 C         -19.2247   57.0642   -7.8974 C.ar    1  UNL1        0.0000
     43 C         -19.4793   58.0357   -8.8843 C.ar    1  UNL1        0.0000
     44 C         -18.9494   59.3239   -8.7634 C.ar    1  UNL1        0.0000
     45 C         -18.1622   59.6574   -7.6591 C.ar    1  UNL1        0.0000
     46 C         -17.9028   58.7030   -6.6731 C.ar    1  UNL1        0.0000
     47 C         -18.4293   57.4129   -6.7892 C.ar    1  UNL1        0.0000
@<TRIPOS>BOND
     1    32    33    1
     2    33    34   ar
     3    34    28    1
     4    28    29    2
     5    28    30   am
     6    30     1    1
     7     1     2   ar
     8     2     3   ar
     9     3     4   ar
    10     4     7    1
    11     7     8    1
    12     8     9    1
    13     9    10    1
    14    10    16    1
    15    16    17    1
    16    17    18    1
    17    18    19   ar
    18    19    20   ar
    19    20    21   ar
    20    21    22   ar
    21    22    24    1
    22    24    25    2
    23    24    26    1
    24    22    23   ar
    25    10    11    1
    26    11    12    1
    27    12    13    1
    28    13    14    1
    29    13    15    1
    30     4     5   ar
    31     5     6   ar
    32    34    35   ar
    33    35    36   ar
    34    36    37   ar
    35    37    38   ar
    36    38    39   ar
    37    39    42    1
    38    42    43   ar
    39    43    44   ar
    40    44    45   ar
    41    45    46   ar
    42    46    47   ar
    43    39    40   ar
    44    40    41   ar
    45    41    33   ar
    46     6     1   ar
    47    41    36   ar
    48    12     7    1
    49    47    42   ar
    50    23    18   ar
    51    30    31    1
    52    26    27    1
@<TRIPOS>MOLECULE
*****
 47 52 0 0 0
SMALL
GASTEIGER

@<TRIPOS>ATOM
      1 C         -25.1553   49.9486   -8.9723 C.ar    1  UNL1        0.0702
      2 C         -25.9308   50.1598  -10.1242 C.ar    1  UNL1        0.0191
      3 C         -26.9834   49.2950  -10.4266 C.ar    1  UNL1        0.0356
      4 C         -27.2710   48.2321   -9.5617 C.ar    1  UNL1        0.1317
      5 N         -26.5164   48.0512   -8.4445 N.ar    1  UNL1       -0.2279
      6 C         -25.4883   48.8813   -8.1279 C.ar    1  UNL1        0.1149
      7 N         -28.3191   47.3019   -9.8766 N.pl3   1  UNL1       -0.2949
      8 C         -27.9080   45.9985  -10.4164 C.3     1  UNL1        0.0922
      9 C         -28.7045   44.8463   -9.7782 C.3     1  UNL1        0.0252
     10 C         -30.0398   45.2947   -9.1419 C.3     1  UNL1        0.0471
     11 C         -30.6533   46.4444   -9.9684 C.3     1  UNL1        0.0235
     12 C         -29.7415   47.7165  -10.0196 C.3     1  UNL1        0.0742
     13 C         -30.1421   48.8791   -9.0247 C.3     1  UNL1        0.0182
     14 C         -31.4435   48.6436   -8.2346 C.3     1  UNL1        0.0017
     15 C         -30.2967   50.2187   -9.7761 C.3     1  UNL1        0.0017
     16 C         -29.9169   45.6663   -7.6476 C.3     1  UNL1        0.2054
     17 O         -28.5489   45.7967   -7.2520 O.3     1  UNL1       -0.4755
     18 C         -28.0723   45.9855   -5.9416 C.ar    1  UNL1        0.1388
     19 C         -26.7863   46.5144   -5.7886 C.ar    1  UNL1        0.0369
     20 C         -26.2434   46.7071   -4.5178 C.ar    1  UNL1        0.0033
     21 C         -26.9858   46.3835   -3.3812 C.ar    1  UNL1        0.0066
     22 C         -28.2900   45.8753   -3.5039 C.ar    1  UNL1        0.0785
     23 C         -28.8254   45.6704   -4.7894 C.ar    1  UNL1        0.0433
     24 C         -29.0714   45.5460   -2.2874 C.2     1  UNL1        0.3381
     25 O         -28.6112   45.8377   -1.1515 O.2     1  UNL1       -0.2451
     26 O         -30.3216   44.9335   -2.3621 O.3     1  UNL1       -0.4771
     27 H         -30.7973   44.7761   -3.2406 H       1  UNL1        0.2954
     28 C         -23.1647   51.4065   -9.5649 C.2     1  UNL1        0.2839
     29 O         -23.1210   50.9737  -10.7479 O.2     1  UNL1       -0.2665
     30 N         -24.0745   50.8270   -8.6158 N.am    1  UNL1       -0.2766
     31 H         -23.8867   50.9803   -7.5991 H       1  UNL1        0.1553
     32 C         -23.3583   54.5108  -10.3382 C.3     1  UNL1        0.0345
     33 C         -22.3324   53.8404   -9.4746 C.ar    1  UNL1        0.0202
     34 C         -22.2511   52.4840   -9.1401 C.ar    1  UNL1        0.1946
     35 O         -21.2082   52.2734   -8.3568 O.2     1  UNL1       -0.4492
     36 C         -20.6085   53.4231   -8.1665 C.ar    1  UNL1        0.1452
     37 C         -19.4699   53.6653   -7.4062 C.ar    1  UNL1        0.0375
     38 C         -18.9921   54.9853   -7.3350 C.ar    1  UNL1        0.0031
     39 C         -19.6556   56.0382   -8.0211 C.ar    1  UNL1        0.0002
     40 C         -20.8118   55.7485   -8.7848 C.ar    1  UNL1        0.0028
     41 C         -21.2581   54.4269   -8.8335 C.ar    1  UNL1        0.0337
     42 C         -19.1417   57.4290   -7.9383 C.ar    1  UNL1        0.0000
     43 C         -18.3543   57.8373   -6.8449 C.ar    1  UNL1        0.0000
     44 C         -17.8716   59.1474   -6.7696 C.ar    1  UNL1        0.0000
     45 C         -18.1673   60.0627   -7.7821 C.ar    1  UNL1        0.0000
     46 C         -18.9468   59.6700   -8.8723 C.ar    1  UNL1        0.0000
     47 C         -19.4329   58.3614   -8.9523 C.ar    1  UNL1        0.0000
@<TRIPOS>BOND
     1    32    33    1
     2    33    34   ar
     3    34    28    1
     4    28    29    2
     5    28    30   am
     6    30     1    1
     7     1     2   ar
     8     2     3   ar
     9     3     4   ar
    10     4     7    1
    11     7     8    1
    12     8     9    1
    13     9    10    1
    14    10    16    1
    15    16    17    1
    16    17    18    1
    17    18    19   ar
    18    19    20   ar
    19    20    21   ar
    20    21    22   ar
    21    22    24    1
    22    24    25    2
    23    24    26    1
    24    22    23   ar
    25    10    11    1
    26    11    12    1
    27    12    13    1
    28    13    14    1
    29    13    15    1
    30     4     5   ar
    31     5     6   ar
    32    34    35   ar
    33    35    36   ar
    34    36    37   ar
    35    37    38   ar
    36    38    39   ar
    37    39    42    1
    38    42    43   ar
    39    43    44   ar
    40    44    45   ar
    41    45    46   ar
    42    46    47   ar
    43    39    40   ar
    44    40    41   ar
    45    41    33   ar
    46     6     1   ar
    47    41    36   ar
    48    12     7    1
    49    47    42   ar
    50    23    18   ar
    51    30    31    1
    52    26    27    1
@<TRIPOS>MOLECULE
*****
 47 52 0 0 0
SMALL
GASTEIGER

@<TRIPOS>ATOM
      1 C         -26.3991   50.1978   -9.7371 C.ar    1  UNL1        0.0702
      2 C         -27.2477   50.8217  -10.6663 C.ar    1  UNL1        0.0191
      3 C         -28.4230   50.1895  -11.0744 C.ar    1  UNL1        0.0356
      4 C         -28.7569   48.9420  -10.5334 C.ar    1  UNL1        0.1317
      5 N         -27.9285   48.3593   -9.6254 N.ar    1  UNL1       -0.2279
      6 C         -26.7804   48.9563   -9.2111 C.ar    1  UNL1        0.1149
      7 N         -29.9369   48.2513  -10.9732 N.pl3   1  UNL1       -0.2949
      8 C         -30.8664   49.0049  -11.8263 C.3     1  UNL1        0.0922
      9 C         -31.3734   48.1501  -13.0017 C.3     1  UNL1        0.0252
     10 C         -31.2334   46.6289  -12.7667 C.3     1  UNL1        0.0471
     11 C         -31.4602   46.3069  -11.2747 C.3     1  UNL1        0.0235
     12 C         -30.4149   46.9952  -10.3335 C.3     1  UNL1        0.0742
     13 C         -29.2295   46.0695   -9.8437 C.3     1  UNL1        0.0182
     14 C         -28.3253   45.5187  -10.9628 C.3     1  UNL1        0.0017
     15 C         -29.7671   44.8596   -9.0499 C.3     1  UNL1        0.0017
     16 C         -29.8991   46.0454  -13.2818 C.3     1  UNL1        0.2054
     17 O         -30.0461   45.4751  -14.5849 O.3     1  UNL1       -0.4755
     18 C         -30.0129   46.1681  -15.8090 C.ar    1  UNL1        0.1388
     19 C         -30.2473   45.4345  -16.9768 C.ar    1  UNL1        0.0369
     20 C         -30.2076   46.0546  -18.2260 C.ar    1  UNL1        0.0033
     21 C         -29.9441   47.4218  -18.3226 C.ar    1  UNL1        0.0066
     22 C         -29.7311   48.1890  -17.1649 C.ar    1  UNL1        0.0785
     23 C         -29.7586   47.5535  -15.9093 C.ar    1  UNL1        0.0433
     24 C         -29.4629   49.6427  -17.2819 C.2     1  UNL1        0.3381
     25 O         -28.6268   50.1875  -16.5130 O.2     1  UNL1       -0.2451
     26 O         -30.1000   50.4315  -18.2389 O.3     1  UNL1       -0.4771
     27 H         -30.6938   50.0393  -18.9575 H       1  UNL1        0.2954
     28 C         -24.1144   51.2247  -10.1422 C.2     1  UNL1        0.2839
     29 O         -24.0760   50.8214  -11.3358 O.2     1  UNL1       -0.2665
     30 N         -25.1893   50.8236   -9.2774 N.am    1  UNL1       -0.2766
     31 H         -25.0473   50.9096   -8.2454 H       1  UNL1        0.1553
     32 C         -24.0103   54.4280  -10.1566 C.3     1  UNL1        0.0345
     33 C         -22.9826   53.4769   -9.6210 C.ar    1  UNL1        0.0202
     34 C         -23.0317   52.0784   -9.6175 C.ar    1  UNL1        0.1946
     35 O         -21.9396   51.5892   -9.0576 O.2     1  UNL1       -0.4492
     36 C         -21.1844   52.5983   -8.6982 C.ar    1  UNL1        0.1452
     37 C         -19.9446   52.5433   -8.0713 C.ar    1  UNL1        0.0375
     38 C         -19.3023   53.7568   -7.7710 C.ar    1  UNL1        0.0031
     39 C         -19.9051   55.0011   -8.0999 C.ar    1  UNL1        0.0002
     40 C         -21.1685   55.0127   -8.7383 C.ar    1  UNL1        0.0028
     41 C         -21.7773   53.7891   -9.0219 C.ar    1  UNL1        0.0337
     42 C         -19.2170   56.2769   -7.7775 C.ar    1  UNL1        0.0000
     43 C         -19.4904   57.4442   -8.5158 C.ar    1  UNL1        0.0000
     44 C         -18.8411   58.6441   -8.2100 C.ar    1  UNL1        0.0000
     45 C         -17.9147   58.6936   -7.1661 C.ar    1  UNL1        0.0000
     46 C         -17.6351   57.5429   -6.4258 C.ar    1  UNL1        0.0000
     47 C         -18.2807   56.3399   -6.7278 C.ar    1  UNL1        0.0000
@<TRIPOS>BOND
     1    32    33    1
     2    33    34   ar
     3    34    28    1
     4    28    29    2
     5    28    30   am
     6    30     1    1
     7     1     2   ar
     8     2     3   ar
     9     3     4   ar
    10     4     7    1
    11     7     8    1
    12     8     9    1
    13     9    10    1
    14    10    16    1
    15    16    17    1
    16    17    18    1
    17    18    19   ar
    18    19    20   ar
    19    20    21   ar
    20    21    22   ar
    21    22    24    1
    22    24    25    2
    23    24    26    1
    24    22    23   ar
    25    10    11    1
    26    11    12    1
    27    12    13    1
    28    13    14    1
    29    13    15    1
    30     4     5   ar
    31     5     6   ar
    32    34    35   ar
    33    35    36   ar
    34    36    37   ar
    35    37    38   ar
    36    38    39   ar
    37    39    42    1
    38    42    43   ar
    39    43    44   ar
    40    44    45   ar
    41    45    46   ar
    42    46    47   ar
    43    39    40   ar
    44    40    41   ar
    45    41    33   ar
    46     6     1   ar
    47    41    36   ar
    48    12     7    1
    49    47    42   ar
    50    23    18   ar
    51    30    31    1
    52    26    27    1
