@<TRIPOS>MOLECULE
*****
 38 42 0 0 0
SMALL
GASTEIGER

@<TRIPOS>ATOM
      1 C         -21.5950   -8.6168   -9.7435 C.2     1  UNL1        0.2506
      2 O         -22.3165   -8.4600   -8.7214 O.2     1  UNL1       -0.2699
      3 N         -21.8629   -7.8575  -10.9397 N.am    1  UNL1       -0.2680
      4 C         -20.7519   -7.3439  -11.7460 C.3     1  UNL1        0.1412
      5 C         -20.5677   -8.2129  -12.9840 C.3     1  UNL1        0.2268
      6 O         -21.8027   -8.7937  -13.3945 O.3     1  UNL1       -0.4739
      7 C         -22.9460   -8.0364  -13.6613 C.ar    1  UNL1        0.1367
      8 C         -23.4277   -8.0447  -14.9706 C.ar    1  UNL1        0.0367
      9 C         -24.5592   -7.3163  -15.3161 C.ar    1  UNL1        0.0036
     10 C         -25.2526   -6.5825  -14.3491 C.ar    1  UNL1        0.0062
     11 C         -24.7893   -6.5681  -13.0140 C.ar    1  UNL1        0.0351
     12 BR        -25.7480   -5.5330  -11.6912 Br      1  UNL1       -0.0492
     13 C         -23.6207   -7.2918  -12.6550 C.ar    1  UNL1        0.0379
     14 C         -23.2159   -7.3408  -11.1830 C.3     1  UNL1        0.1241
     15 C         -26.4689   -5.8515  -14.7603 C.ar    1  UNL1        0.0020
     16 C         -26.3627   -4.6190  -15.4579 C.ar    1  UNL1        0.0017
     17 C         -27.5169   -3.9065  -15.8345 C.ar    1  UNL1        0.0206
     18 C         -28.7524   -4.4475  -15.4909 C.ar    1  UNL1        0.0985
     19 N         -29.9726   -3.9410  -15.7437 N.ar    1  UNL1       -0.2241
     20 C         -30.8033   -4.8625  -15.1882 C.ar    1  UNL1        0.1750
     21 N         -30.1512   -5.9005  -14.6111 N.ar    1  UNL1       -0.3349
     22 C         -28.8579   -5.6224  -14.8116 C.ar    1  UNL1        0.0757
     23 C         -27.7429   -6.3588  -14.4202 C.ar    1  UNL1        0.0186
     24 H         -30.5655   -6.7254  -14.1230 H       1  UNL1        0.1675
     25 C         -19.3860   -9.3815   -8.7912 C.ar    1  UNL1        0.0503
     26 C         -18.3771  -10.3653   -8.7372 C.ar    1  UNL1        0.0328
     27 C         -18.4261  -11.4913   -9.5681 C.ar    1  UNL1        0.1069
     28 C         -19.4911  -11.6503  -10.4590 C.ar    1  UNL1        0.0186
     29 C         -20.5027  -10.6930  -10.5194 C.ar    1  UNL1        0.0071
     30 C         -20.4705   -9.5688   -9.6823 C.ar    1  UNL1        0.0667
     31 S         -17.1601  -12.7111   -9.4699 S.O2    1  UNL1        0.0105
     32 C         -15.5838  -11.9093   -9.2862 C.3     1  UNL1        0.1816
     33 O         -17.1609  -13.5433  -10.7216 O.2     1  UNL1       -0.1686
     34 O         -17.4033  -13.6120   -8.2915 O.2     1  UNL1       -0.1686
     35 N         -19.3035   -8.1853   -7.9835 N.pl3   1  UNL1       -0.3325
     36 H         -19.1341   -7.2648   -8.4471 H       1  UNL1        0.1468
     37 C         -18.1588   -7.7221   -5.8623 C.3     1  UNL1        0.0229
     38 C         -19.4604   -8.1519   -6.5295 C.3     1  UNL1        0.0871
@<TRIPOS>BOND
     1    37    38    1
     2    38    35    1
     3    35    25    1
     4    25    26   ar
     5    26    27   ar
     6    27    31    1
     7    31    32    1
     8    31    33    2
     9    31    34    2
    10    27    28   ar
    11    28    29   ar
    12    29    30   ar
    13    30     1    1
    14     1     2    2
    15     1     3   am
    16     3     4    1
    17     4     5    1
    18     5     6    1
    19     6     7    1
    20     7     8   ar
    21     8     9   ar
    22     9    10   ar
    23    10    15    1
    24    15    16   ar
    25    16    17   ar
    26    17    18   ar
    27    18    19   ar
    28    19    20   ar
    29    20    21   ar
    30    21    22   ar
    31    22    23   ar
    32    10    11   ar
    33    11    12    1
    34    11    13   ar
    35    13    14    1
    36    30    25   ar
    37    14     3    1
    38    13     7   ar
    39    23    15   ar
    40    22    18   ar
    41    35    36    1
    42    21    24    1
@<TRIPOS>MOLECULE
*****
 38 42 0 0 0
SMALL
GASTEIGER

@<TRIPOS>ATOM
      1 C         -22.1033   -8.0197   -9.4369 C.2     1  UNL1        0.2506
      2 O         -22.8955   -7.8853   -8.4651 O.2     1  UNL1       -0.2699
      3 N         -22.3389   -7.3013  -10.6648 N.am    1  UNL1       -0.2680
      4 C         -21.2108   -6.7394  -11.4131 C.3     1  UNL1        0.1412
      5 C         -20.8996   -7.6204  -12.6167 C.3     1  UNL1        0.2268
      6 O         -22.0709   -8.2810  -13.0886 O.3     1  UNL1       -0.4739
      7 C         -23.2369   -7.5978  -13.4429 C.ar    1  UNL1        0.1367
      8 C         -23.6341   -7.6604  -14.7789 C.ar    1  UNL1        0.0367
      9 C         -24.7817   -7.0068  -15.2103 C.ar    1  UNL1        0.0036
     10 C         -25.5755   -6.2961  -14.3053 C.ar    1  UNL1        0.0062
     11 C         -25.1986   -6.2278  -12.9450 C.ar    1  UNL1        0.0351
     12 BR        -26.2963   -5.2249  -11.7084 Br      1  UNL1       -0.0492
     13 C         -24.0151   -6.8743  -12.4979 C.ar    1  UNL1        0.0379
     14 C         -23.7014   -6.8701  -11.0030 C.3     1  UNL1        0.1241
     15 C         -26.8036   -5.6462  -14.8077 C.ar    1  UNL1        0.0020
     16 C         -26.7193   -4.4724  -15.6026 C.ar    1  UNL1        0.0017
     17 C         -27.8857   -3.8359  -16.0673 C.ar    1  UNL1        0.0206
     18 C         -29.1115   -4.3913  -15.7121 C.ar    1  UNL1        0.0985
     19 N         -30.3404   -3.9521  -16.0380 N.ar    1  UNL1       -0.2241
     20 C         -31.1549   -4.8544  -15.4294 C.ar    1  UNL1        0.1750
     21 N         -30.4848   -5.8168  -14.7509 N.ar    1  UNL1       -0.3349
     22 C         -29.1965   -5.5093  -14.9402 C.ar    1  UNL1        0.0757
     23 C         -28.0689   -6.1698  -14.4598 C.ar    1  UNL1        0.0186
     24 H         -30.8847   -6.6132  -14.2067 H       1  UNL1        0.1675
     25 C         -20.7435  -10.0365  -10.1112 C.ar    1  UNL1        0.0503
     26 C         -19.5677  -10.7993   -9.9554 C.ar    1  UNL1        0.0328
     27 C         -18.6173  -10.4644   -8.9833 C.ar    1  UNL1        0.1069
     28 C         -18.8288   -9.3558   -8.1591 C.ar    1  UNL1        0.0186
     29 C         -19.9806   -8.5840   -8.3050 C.ar    1  UNL1        0.0071
     30 C         -20.9321   -8.9024   -9.2843 C.ar    1  UNL1        0.0667
     31 S         -17.1514  -11.4261   -8.8200 S.O2    1  UNL1        0.0105
     32 C         -17.4290  -13.0425   -9.5068 C.3     1  UNL1        0.1816
     33 O         -16.7867  -11.5502   -7.3671 O.2     1  UNL1       -0.1686
     34 O         -16.0160  -10.7619   -9.5473 O.2     1  UNL1       -0.1686
     35 N         -21.7579  -10.4188  -11.0677 N.pl3   1  UNL1       -0.3325
     36 H         -22.6611   -9.8948  -11.0936 H       1  UNL1        0.1468
     37 C         -22.8602  -11.5961  -12.9179 C.3     1  UNL1        0.0229
     38 C         -21.6146  -11.4984  -12.0442 C.3     1  UNL1        0.0871
@<TRIPOS>BOND
     1    37    38    1
     2    38    35    1
     3    35    25    1
     4    25    26   ar
     5    26    27   ar
     6    27    31    1
     7    31    32    1
     8    31    33    2
     9    31    34    2
    10    27    28   ar
    11    28    29   ar
    12    29    30   ar
    13    30     1    1
    14     1     2    2
    15     1     3   am
    16     3     4    1
    17     4     5    1
    18     5     6    1
    19     6     7    1
    20     7     8   ar
    21     8     9   ar
    22     9    10   ar
    23    10    15    1
    24    15    16   ar
    25    16    17   ar
    26    17    18   ar
    27    18    19   ar
    28    19    20   ar
    29    20    21   ar
    30    21    22   ar
    31    22    23   ar
    32    10    11   ar
    33    11    12    1
    34    11    13   ar
    35    13    14    1
    36    30    25   ar
    37    14     3    1
    38    13     7   ar
    39    23    15   ar
    40    22    18   ar
    41    35    36    1
    42    21    24    1
@<TRIPOS>MOLECULE
*****
 38 42 0 0 0
SMALL
GASTEIGER

@<TRIPOS>ATOM
      1 C         -22.6059   -8.2976  -10.2503 C.2     1  UNL1        0.2506
      2 O         -23.7889   -8.6429   -9.9835 O.2     1  UNL1       -0.2699
      3 N         -22.3187   -7.5908  -11.4740 N.am    1  UNL1       -0.2680
      4 C         -21.3298   -6.5091  -11.4807 C.3     1  UNL1        0.1412
      5 C         -20.0256   -7.0058  -12.0922 C.3     1  UNL1        0.2268
      6 O         -20.2642   -8.0318  -13.0521 O.3     1  UNL1       -0.4739
      7 C         -21.1247   -7.8677  -14.1404 C.ar    1  UNL1        0.1367
      8 C         -20.5600   -7.9146  -15.4152 C.ar    1  UNL1        0.0367
      9 C         -21.3491   -7.7591  -16.5481 C.ar    1  UNL1        0.0036
     10 C         -22.7306   -7.5800  -16.4308 C.ar    1  UNL1        0.0062
     11 C         -23.3262   -7.5399  -15.1498 C.ar    1  UNL1        0.0351
     12 BR        -25.2359   -7.2724  -15.0025 Br      1  UNL1       -0.0492
     13 C         -22.5251   -7.6760  -13.9844 C.ar    1  UNL1        0.0379
     14 C         -23.2188   -7.7381  -12.6250 C.3     1  UNL1        0.1241
     15 C         -23.5300   -7.4525  -17.6667 C.ar    1  UNL1        0.0020
     16 C         -24.2363   -6.2517  -17.9425 C.ar    1  UNL1        0.0017
     17 C         -25.0168   -6.1304  -19.1077 C.ar    1  UNL1        0.0206
     18 C         -25.0759   -7.2260  -19.9642 C.ar    1  UNL1        0.0985
     19 N         -25.7558   -7.3327  -21.1199 N.ar    1  UNL1       -0.2241
     20 C         -25.4654   -8.5971  -21.5257 C.ar    1  UNL1        0.1750
     21 N         -24.6460   -9.2631  -20.6766 N.ar    1  UNL1       -0.3349
     22 C         -24.4101   -8.3829  -19.6970 C.ar    1  UNL1        0.0757
     23 C         -23.6274   -8.5452  -18.5570 C.ar    1  UNL1        0.0186
     24 H         -24.2844  -10.2383  -20.7686 H       1  UNL1        0.1675
     25 C         -20.4192   -9.4027   -9.6431 C.ar    1  UNL1        0.0503
     26 C         -19.4012   -9.6082   -8.6892 C.ar    1  UNL1        0.0328
     27 C         -19.5037   -9.0685   -7.4013 C.ar    1  UNL1        0.1069
     28 C         -20.6244   -8.3090   -7.0544 C.ar    1  UNL1        0.0186
     29 C         -21.6362   -8.0871   -7.9873 C.ar    1  UNL1        0.0071
     30 C         -21.5372   -8.6113   -9.2839 C.ar    1  UNL1        0.0667
     31 S         -18.2111   -9.3291   -6.2343 S.O2    1  UNL1        0.0105
     32 C         -18.9188   -9.6874   -4.6430 C.3     1  UNL1        0.1816
     33 O         -17.3569   -8.0958   -6.1413 O.2     1  UNL1       -0.1686
     34 O         -17.3491  -10.4812   -6.6693 O.2     1  UNL1       -0.1686
     35 N         -20.3484  -10.0143  -10.9512 N.pl3   1  UNL1       -0.3325
     36 H         -19.9291   -9.4800  -11.7446 H       1  UNL1        0.1468
     37 C         -21.6162  -11.3694  -12.5578 C.3     1  UNL1        0.0229
     38 C         -20.8120  -11.3663  -11.2626 C.3     1  UNL1        0.0871
@<TRIPOS>BOND
     1    37    38    1
     2    38    35    1
     3    35    25    1
     4    25    26   ar
     5    26    27   ar
     6    27    31    1
     7    31    32    1
     8    31    33    2
     9    31    34    2
    10    27    28   ar
    11    28    29   ar
    12    29    30   ar
    13    30     1    1
    14     1     2    2
    15     1     3   am
    16     3     4    1
    17     4     5    1
    18     5     6    1
    19     6     7    1
    20     7     8   ar
    21     8     9   ar
    22     9    10   ar
    23    10    15    1
    24    15    16   ar
    25    16    17   ar
    26    17    18   ar
    27    18    19   ar
    28    19    20   ar
    29    20    21   ar
    30    21    22   ar
    31    22    23   ar
    32    10    11   ar
    33    11    12    1
    34    11    13   ar
    35    13    14    1
    36    30    25   ar
    37    14     3    1
    38    13     7   ar
    39    23    15   ar
    40    22    18   ar
    41    35    36    1
    42    21    24    1
@<TRIPOS>MOLECULE
*****
 38 42 0 0 0
SMALL
GASTEIGER

@<TRIPOS>ATOM
      1 C         -20.4033   -8.6695  -10.5341 C.2     1  UNL1        0.2506
      2 O         -19.7555   -8.0680  -11.4334 O.2     1  UNL1       -0.2699
      3 N         -21.7820   -9.0290  -10.7556 N.am    1  UNL1       -0.2680
      4 C         -22.2932  -10.3114  -10.2632 C.3     1  UNL1        0.1412
      5 C         -23.1141  -10.0888   -8.9990 C.3     1  UNL1        0.2268
      6 O         -23.7256   -8.8015   -9.0015 O.3     1  UNL1       -0.4739
      7 C         -24.5465   -8.3532  -10.0393 C.ar    1  UNL1        0.1367
      8 C         -25.8852   -8.1053   -9.7344 C.ar    1  UNL1        0.0367
      9 C         -26.7655   -7.6583  -10.7119 C.ar    1  UNL1        0.0036
     10 C         -26.3177   -7.4223  -12.0150 C.ar    1  UNL1        0.0062
     11 C         -24.9634   -7.6563  -12.3443 C.ar    1  UNL1        0.0351
     12 BR        -24.3627   -7.3436  -14.1558 Br      1  UNL1       -0.0492
     13 C         -24.0601   -8.1343  -11.3574 C.ar    1  UNL1        0.0379
     14 C         -22.5833   -8.2691  -11.7237 C.3     1  UNL1        0.1241
     15 C         -27.2857   -6.9159  -13.0097 C.ar    1  UNL1        0.0020
     16 C         -28.3862   -7.7186  -13.4116 C.ar    1  UNL1        0.0017
     17 C         -29.3008   -7.2512  -14.3742 C.ar    1  UNL1        0.0206
     18 C         -29.0802   -5.9889  -14.9176 C.ar    1  UNL1        0.0985
     19 N         -29.8165   -5.3509  -15.8449 N.ar    1  UNL1       -0.2241
     20 C         -29.1505   -4.1767  -16.0041 C.ar    1  UNL1        0.1750
     21 N         -28.0487   -4.0694  -15.2230 N.ar    1  UNL1       -0.3349
     22 C         -28.0196   -5.2218  -14.5438 C.ar    1  UNL1        0.0757
     23 C         -27.0918   -5.6451  -13.5959 C.ar    1  UNL1        0.0186
     24 H         -27.3788   -3.2704  -15.1668 H       1  UNL1        0.1675
     25 C         -18.8611  -10.1325   -9.1729 C.ar    1  UNL1        0.0503
     26 C         -18.1886  -10.3632   -7.9551 C.ar    1  UNL1        0.0328
     27 C         -18.3872   -9.5216   -6.8539 C.ar    1  UNL1        0.1069
     28 C         -19.2568   -8.4328   -6.9606 C.ar    1  UNL1        0.0186
     29 C         -19.9229   -8.1832   -8.1596 C.ar    1  UNL1        0.0071
     30 C         -19.7208   -9.0116   -9.2725 C.ar    1  UNL1        0.0667
     31 S         -17.5237   -9.8249   -5.3496 S.O2    1  UNL1        0.0105
     32 C         -16.9545   -8.2808   -4.6766 C.3     1  UNL1        0.1816
     33 O         -16.3490  -10.7250   -5.6130 O.2     1  UNL1       -0.1686
     34 O         -18.4338  -10.4968   -4.3598 O.2     1  UNL1       -0.1686
     35 N         -18.7103  -11.0378  -10.2900 N.pl3   1  UNL1       -0.3325
     36 H         -18.4848  -10.6529  -11.2345 H       1  UNL1        0.1468
     37 C         -19.7159  -13.0222  -11.3270 C.3     1  UNL1        0.0229
     38 C         -18.8325  -12.4928  -10.2028 C.3     1  UNL1        0.0871
@<TRIPOS>BOND
     1    37    38    1
     2    38    35    1
     3    35    25    1
     4    25    26   ar
     5    26    27   ar
     6    27    31    1
     7    31    32    1
     8    31    33    2
     9    31    34    2
    10    27    28   ar
    11    28    29   ar
    12    29    30   ar
    13    30     1    1
    14     1     2    2
    15     1     3   am
    16     3     4    1
    17     4     5    1
    18     5     6    1
    19     6     7    1
    20     7     8   ar
    21     8     9   ar
    22     9    10   ar
    23    10    15    1
    24    15    16   ar
    25    16    17   ar
    26    17    18   ar
    27    18    19   ar
    28    19    20   ar
    29    20    21   ar
    30    21    22   ar
    31    22    23   ar
    32    10    11   ar
    33    11    12    1
    34    11    13   ar
    35    13    14    1
    36    30    25   ar
    37    14     3    1
    38    13     7   ar
    39    23    15   ar
    40    22    18   ar
    41    35    36    1
    42    21    24    1
@<TRIPOS>MOLECULE
*****
 38 42 0 0 0
SMALL
GASTEIGER

@<TRIPOS>ATOM
      1 C         -21.5491   -7.7863  -12.1649 C.2     1  UNL1        0.2506
      2 O         -20.7974   -7.5775  -13.1556 O.2     1  UNL1       -0.2699
      3 N         -22.9808   -7.8021  -12.3358 N.am    1  UNL1       -0.2680
      4 C         -23.7962   -8.7720  -11.5991 C.3     1  UNL1        0.1412
      5 C         -24.4828   -8.0835  -10.4259 C.3     1  UNL1        0.2268
      6 O         -24.7304   -6.7087  -10.7080 O.3     1  UNL1       -0.4739
      7 C         -25.4393   -6.2805  -11.8331 C.ar    1  UNL1        0.1367
      8 C         -26.6524   -5.6270  -11.6144 C.ar    1  UNL1        0.0367
      9 C         -27.4167   -5.1717  -12.6815 C.ar    1  UNL1        0.0036
     10 C         -26.9691   -5.3366  -13.9956 C.ar    1  UNL1        0.0062
     11 C         -25.7382   -5.9862  -14.2408 C.ar    1  UNL1        0.0351
     12 BR        -25.1410   -6.2241  -16.0648 Br      1  UNL1       -0.0492
     13 C         -24.9596   -6.4749  -13.1576 C.ar    1  UNL1        0.0379
     14 C         -23.5856   -7.0713  -13.4570 C.3     1  UNL1        0.1241
     15 C         -27.8028   -4.8056  -15.0937 C.ar    1  UNL1        0.0020
     16 C         -29.1849   -5.1251  -15.1629 C.ar    1  UNL1        0.0017
     17 C         -29.9810   -4.6399  -16.2176 C.ar    1  UNL1        0.0206
     18 C         -29.3640   -3.8515  -17.1846 C.ar    1  UNL1        0.0985
     19 N         -29.9248   -3.2901  -18.2706 N.ar    1  UNL1       -0.2241
     20 C         -28.8780   -2.6480  -18.8535 C.ar    1  UNL1        0.1750
     21 N         -27.7119   -2.7911  -18.1787 N.ar    1  UNL1       -0.3349
     22 C         -28.0370   -3.5533  -17.1282 C.ar    1  UNL1        0.0757
     23 C         -27.2137   -4.0121  -16.1033 C.ar    1  UNL1        0.0186
     24 H         -26.7770   -2.3966  -18.4247 H       1  UNL1        0.1675
     25 C         -20.2327   -9.2273  -10.5642 C.ar    1  UNL1        0.0503
     26 C         -19.6156   -9.3681   -9.3041 C.ar    1  UNL1        0.0328
     27 C         -19.7206   -8.3619   -8.3361 C.ar    1  UNL1        0.1069
     28 C         -20.4391   -7.1975   -8.6207 C.ar    1  UNL1        0.0186
     29 C         -21.0478   -7.0364   -9.8645 C.ar    1  UNL1        0.0071
     30 C         -20.9374   -8.0316  -10.8458 C.ar    1  UNL1        0.0667
     31 S         -18.9283   -8.5581   -6.7759 S.O2    1  UNL1        0.0105
     32 C         -20.1557   -8.8712   -5.5282 C.3     1  UNL1        0.1816
     33 O         -18.1676   -7.3076   -6.4338 O.2     1  UNL1       -0.1686
     34 O         -17.9639   -9.7099   -6.8292 O.2     1  UNL1       -0.1686
     35 N         -20.1832  -10.2921  -11.5408 N.pl3   1  UNL1       -0.3325
     36 H         -19.5773  -10.1853  -12.3850 H       1  UNL1        0.1468
     37 C         -21.6464  -11.8572  -12.7384 C.3     1  UNL1        0.0229
     38 C         -20.9180  -11.5524  -11.4342 C.3     1  UNL1        0.0871
@<TRIPOS>BOND
     1    37    38    1
     2    38    35    1
     3    35    25    1
     4    25    26   ar
     5    26    27   ar
     6    27    31    1
     7    31    32    1
     8    31    33    2
     9    31    34    2
    10    27    28   ar
    11    28    29   ar
    12    29    30   ar
    13    30     1    1
    14     1     2    2
    15     1     3   am
    16     3     4    1
    17     4     5    1
    18     5     6    1
    19     6     7    1
    20     7     8   ar
    21     8     9   ar
    22     9    10   ar
    23    10    15    1
    24    15    16   ar
    25    16    17   ar
    26    17    18   ar
    27    18    19   ar
    28    19    20   ar
    29    20    21   ar
    30    21    22   ar
    31    22    23   ar
    32    10    11   ar
    33    11    12    1
    34    11    13   ar
    35    13    14    1
    36    30    25   ar
    37    14     3    1
    38    13     7   ar
    39    23    15   ar
    40    22    18   ar
    41    35    36    1
    42    21    24    1
@<TRIPOS>MOLECULE
*****
 38 42 0 0 0
SMALL
GASTEIGER

@<TRIPOS>ATOM
      1 C         -26.4084   -5.4764  -15.4818 C.2     1  UNL1        0.2506
      2 O         -25.8660   -5.5563  -16.6173 O.2     1  UNL1       -0.2699
      3 N         -25.7283   -5.9914  -14.3192 N.am    1  UNL1       -0.2680
      4 C         -25.8050   -5.2697  -13.0457 C.3     1  UNL1        0.1412
      5 C         -26.7894   -5.9677  -12.1154 C.3     1  UNL1        0.2268
      6 O         -26.8419   -7.3677  -12.3770 O.3     1  UNL1       -0.4739
      7 C         -25.7084   -8.1843  -12.3692 C.ar    1  UNL1        0.1367
      8 C         -25.6448   -9.1810  -11.3950 C.ar    1  UNL1        0.0367
      9 C         -24.5501  -10.0333  -11.3208 C.ar    1  UNL1        0.0036
     10 C         -23.5031   -9.9244  -12.2408 C.ar    1  UNL1        0.0062
     11 C         -23.5510   -8.9291  -13.2430 C.ar    1  UNL1        0.0351
     12 BR        -22.0863   -8.7780  -14.4969 Br      1  UNL1       -0.0492
     13 C         -24.6556   -8.0385  -13.3139 C.ar    1  UNL1        0.0379
     14 C         -24.7230   -7.0502  -14.4766 C.3     1  UNL1        0.1241
     15 C         -22.3773  -10.8758  -12.1398 C.ar    1  UNL1        0.0020
     16 C         -22.2692  -11.9576  -13.0536 C.ar    1  UNL1        0.0017
     17 C         -21.2109  -12.8800  -12.9506 C.ar    1  UNL1        0.0206
     18 C         -20.2905  -12.6972  -11.9227 C.ar    1  UNL1        0.0985
     19 N         -19.2141  -13.4514  -11.6368 N.ar    1  UNL1       -0.2241
     20 C         -18.6889  -12.8281  -10.5488 C.ar    1  UNL1        0.1750
     21 N         -19.3906  -11.7365  -10.1594 N.ar    1  UNL1       -0.3349
     22 C         -20.3978  -11.6686  -11.0375 C.ar    1  UNL1        0.0757
     23 C         -21.4279  -10.7342  -11.1031 C.ar    1  UNL1        0.0186
     24 H         -19.1891  -11.0979   -9.3582 H       1  UNL1        0.1675
     25 C         -28.1351   -3.8042  -16.2523 C.ar    1  UNL1        0.0503
     26 C         -29.4380   -3.2792  -16.1285 C.ar    1  UNL1        0.0328
     27 C         -30.3073   -3.7409  -15.1327 C.ar    1  UNL1        0.1069
     28 C         -29.8851   -4.7407  -14.2522 C.ar    1  UNL1        0.0186
     29 C         -28.6040   -5.2786  -14.3655 C.ar    1  UNL1        0.0071
     30 C         -27.7304   -4.8332  -15.3676 C.ar    1  UNL1        0.0667
     31 S         -31.9337   -3.0775  -15.0098 S.O2    1  UNL1        0.0105
     32 C         -33.0165   -4.3011  -14.3087 C.3     1  UNL1        0.1816
     33 O         -32.4267   -2.6898  -16.3758 O.2     1  UNL1       -0.1686
     34 O         -31.9267   -1.8554  -14.1347 O.2     1  UNL1       -0.1686
     35 N         -27.2124   -3.2826  -17.2355 N.pl3   1  UNL1       -0.3325
     36 H         -26.3502   -2.7867  -16.9166 H       1  UNL1        0.1468
     37 C         -28.3562   -2.3607  -19.2018 C.3     1  UNL1        0.0229
     38 C         -27.3802   -3.4108  -18.6829 C.3     1  UNL1        0.0871
@<TRIPOS>BOND
     1    37    38    1
     2    38    35    1
     3    35    25    1
     4    25    26   ar
     5    26    27   ar
     6    27    31    1
     7    31    32    1
     8    31    33    2
     9    31    34    2
    10    27    28   ar
    11    28    29   ar
    12    29    30   ar
    13    30     1    1
    14     1     2    2
    15     1     3   am
    16     3     4    1
    17     4     5    1
    18     5     6    1
    19     6     7    1
    20     7     8   ar
    21     8     9   ar
    22     9    10   ar
    23    10    15    1
    24    15    16   ar
    25    16    17   ar
    26    17    18   ar
    27    18    19   ar
    28    19    20   ar
    29    20    21   ar
    30    21    22   ar
    31    22    23   ar
    32    10    11   ar
    33    11    12    1
    34    11    13   ar
    35    13    14    1
    36    30    25   ar
    37    14     3    1
    38    13     7   ar
    39    23    15   ar
    40    22    18   ar
    41    35    36    1
    42    21    24    1
@<TRIPOS>MOLECULE
*****
 38 42 0 0 0
SMALL
GASTEIGER

@<TRIPOS>ATOM
      1 C         -26.5216   -7.4826  -12.1849 C.2     1  UNL1        0.2506
      2 O         -27.1272   -7.6639  -11.0939 O.2     1  UNL1       -0.2699
      3 N         -25.2636   -8.1433  -12.4306 N.am    1  UNL1       -0.2680
      4 C         -24.9595   -8.6675  -13.7652 C.3     1  UNL1        0.1412
      5 C         -23.9936   -7.7306  -14.4800 C.3     1  UNL1        0.2268
      6 O         -23.1526   -7.0511  -13.5516 O.3     1  UNL1       -0.4739
      7 C         -22.3654   -7.7193  -12.6106 C.ar    1  UNL1        0.1367
      8 C         -20.9810   -7.5951  -12.7308 C.ar    1  UNL1        0.0367
      9 C         -20.1301   -8.2301  -11.8346 C.ar    1  UNL1        0.0036
     10 C         -20.6484   -8.9839  -10.7775 C.ar    1  UNL1        0.0062
     11 C         -22.0478   -9.1149  -10.6295 C.ar    1  UNL1        0.0351
     12 BR        -22.7499  -10.1766   -9.1736 Br      1  UNL1       -0.0492
     13 C         -22.9261   -8.4876  -11.5535 C.ar    1  UNL1        0.0379
     14 C         -24.4299   -8.5610  -11.2961 C.3     1  UNL1        0.1241
     15 C         -19.7023   -9.6120   -9.8324 C.ar    1  UNL1        0.0020
     16 C         -19.4829   -9.0396   -8.5514 C.ar    1  UNL1        0.0017
     17 C         -18.5675   -9.6206   -7.6536 C.ar    1  UNL1        0.0206
     18 C         -17.8860  -10.7602   -8.0710 C.ar    1  UNL1        0.0985
     19 N         -16.9726  -11.4711   -7.3860 N.ar    1  UNL1       -0.2241
     20 C         -16.6395  -12.4573   -8.2603 C.ar    1  UNL1        0.1750
     21 N         -17.3022  -12.3813   -9.4396 N.ar    1  UNL1       -0.3349
     22 C         -18.0846  -11.3046   -9.3027 C.ar    1  UNL1        0.0757
     23 C         -18.9801  -10.7625  -10.2208 C.ar    1  UNL1        0.0186
     24 H         -17.2188  -13.0177  -10.2632 H       1  UNL1        0.1675
     25 C         -26.4541   -5.4693  -13.7059 C.ar    1  UNL1        0.0503
     26 C         -27.0684   -4.7123  -14.7248 C.ar    1  UNL1        0.0328
     27 C         -28.3365   -5.0551  -15.2094 C.ar    1  UNL1        0.1069
     28 C         -29.0028   -6.1659  -14.6849 C.ar    1  UNL1        0.0186
     29 C         -28.4071   -6.9320  -13.6841 C.ar    1  UNL1        0.0071
     30 C         -27.1319   -6.6057  -13.2012 C.ar    1  UNL1        0.0667
     31 S         -29.0741   -4.1005  -16.4920 S.O2    1  UNL1        0.0105
     32 C         -27.8111   -3.5495  -17.6157 C.3     1  UNL1        0.1816
     33 O         -29.7758   -2.9112  -15.8982 O.2     1  UNL1       -0.1686
     34 O         -30.0803   -4.9310  -17.2386 O.2     1  UNL1       -0.1686
     35 N         -25.1752   -5.0789  -13.1563 N.pl3   1  UNL1       -0.3325
     36 H         -24.3346   -5.0626  -13.7762 H       1  UNL1        0.1468
     37 C         -23.4664   -4.6715  -11.4420 C.3     1  UNL1        0.0229
     38 C         -24.9558   -4.6749  -11.7676 C.3     1  UNL1        0.0871
@<TRIPOS>BOND
     1    37    38    1
     2    38    35    1
     3    35    25    1
     4    25    26   ar
     5    26    27   ar
     6    27    31    1
     7    31    32    1
     8    31    33    2
     9    31    34    2
    10    27    28   ar
    11    28    29   ar
    12    29    30   ar
    13    30     1    1
    14     1     2    2
    15     1     3   am
    16     3     4    1
    17     4     5    1
    18     5     6    1
    19     6     7    1
    20     7     8   ar
    21     8     9   ar
    22     9    10   ar
    23    10    15    1
    24    15    16   ar
    25    16    17   ar
    26    17    18   ar
    27    18    19   ar
    28    19    20   ar
    29    20    21   ar
    30    21    22   ar
    31    22    23   ar
    32    10    11   ar
    33    11    12    1
    34    11    13   ar
    35    13    14    1
    36    30    25   ar
    37    14     3    1
    38    13     7   ar
    39    23    15   ar
    40    22    18   ar
    41    35    36    1
    42    21    24    1
@<TRIPOS>MOLECULE
*****
 38 42 0 0 0
SMALL
GASTEIGER

@<TRIPOS>ATOM
      1 C         -22.3930   -9.4919  -11.2557 C.2     1  UNL1        0.2506
      2 O         -23.5091   -9.6349  -10.6866 O.2     1  UNL1       -0.2699
      3 N         -22.2182   -8.4667  -12.2545 N.am    1  UNL1       -0.2680
      4 C         -20.9630   -7.7125  -12.3187 C.3     1  UNL1        0.1412
      5 C         -20.1095   -8.2279  -13.4710 C.3     1  UNL1        0.2268
      6 O         -20.9209   -8.7431  -14.5232 O.3     1  UNL1       -0.4739
      7 C         -21.9308   -7.9980  -15.1372 C.ar    1  UNL1        0.1367
      8 C         -21.7703   -7.6955  -16.4897 C.ar    1  UNL1        0.0367
      9 C         -22.7301   -6.9578  -17.1715 C.ar    1  UNL1        0.0036
     10 C         -23.8896   -6.5282  -16.5192 C.ar    1  UNL1        0.0062
     11 C         -24.0786   -6.8321  -15.1521 C.ar    1  UNL1        0.0351
     12 BR        -25.6786   -6.2147  -14.2583 Br      1  UNL1       -0.0492
     13 C         -23.0930   -7.5671  -14.4402 C.ar    1  UNL1        0.0379
     14 C         -23.3844   -7.9700  -12.9960 C.3     1  UNL1        0.1241
     15 C         -24.8951   -5.7752  -17.2970 C.ar    1  UNL1        0.0020
     16 C         -24.9586   -5.9126  -18.7090 C.ar    1  UNL1        0.0017
     17 C         -25.9002   -5.1826  -19.4588 C.ar    1  UNL1        0.0206
     18 C         -26.7502   -4.3227  -18.7694 C.ar    1  UNL1        0.0985
     19 N         -27.7133   -3.5333  -19.2780 N.ar    1  UNL1       -0.2241
     20 C         -28.2143   -2.9184  -18.1740 C.ar    1  UNL1        0.1750
     21 N         -27.6052   -3.2925  -17.0230 N.ar    1  UNL1       -0.3349
     22 C         -26.6841   -4.1792  -17.4173 C.ar    1  UNL1        0.0757
     23 C         -25.7688   -4.8816  -16.6379 C.ar    1  UNL1        0.0186
     24 H         -27.8097   -2.9626  -16.0537 H       1  UNL1        0.1675
     25 C         -21.0402  -11.6062  -11.5223 C.ar    1  UNL1        0.0503
     26 C         -19.9157  -12.3686  -11.1443 C.ar    1  UNL1        0.0328
     27 C         -19.0646  -11.9349  -10.1206 C.ar    1  UNL1        0.1069
     28 C         -19.3247  -10.7274   -9.4669 C.ar    1  UNL1        0.0186
     29 C         -20.4261   -9.9554   -9.8336 C.ar    1  UNL1        0.0071
     30 C         -21.2769  -10.3736  -10.8666 C.ar    1  UNL1        0.0667
     31 S         -17.6597  -12.9000   -9.6785 S.O2    1  UNL1        0.0105
     32 C         -16.3363  -11.8201   -9.1846 C.3     1  UNL1        0.1816
     33 O         -17.2240  -13.7280  -10.8549 O.2     1  UNL1       -0.1686
     34 O         -18.0046  -13.8209   -8.5417 O.2     1  UNL1       -0.1686
     35 N         -21.9583  -12.0836  -12.5320 N.pl3   1  UNL1       -0.3325
     36 H         -22.9369  -12.3275  -12.2604 H       1  UNL1        0.1468
     37 C         -22.8951  -12.4292  -14.7742 C.3     1  UNL1        0.0229
     38 C         -21.6276  -12.2411  -13.9481 C.3     1  UNL1        0.0871
@<TRIPOS>BOND
     1    37    38    1
     2    38    35    1
     3    35    25    1
     4    25    26   ar
     5    26    27   ar
     6    27    31    1
     7    31    32    1
     8    31    33    2
     9    31    34    2
    10    27    28   ar
    11    28    29   ar
    12    29    30   ar
    13    30     1    1
    14     1     2    2
    15     1     3   am
    16     3     4    1
    17     4     5    1
    18     5     6    1
    19     6     7    1
    20     7     8   ar
    21     8     9   ar
    22     9    10   ar
    23    10    15    1
    24    15    16   ar
    25    16    17   ar
    26    17    18   ar
    27    18    19   ar
    28    19    20   ar
    29    20    21   ar
    30    21    22   ar
    31    22    23   ar
    32    10    11   ar
    33    11    12    1
    34    11    13   ar
    35    13    14    1
    36    30    25   ar
    37    14     3    1
    38    13     7   ar
    39    23    15   ar
    40    22    18   ar
    41    35    36    1
    42    21    24    1
@<TRIPOS>MOLECULE
*****
 38 42 0 0 0
SMALL
GASTEIGER

@<TRIPOS>ATOM
      1 C         -26.2453   -5.7588  -12.7324 C.2     1  UNL1        0.2506
      2 O         -26.7252   -5.3115  -11.6555 O.2     1  UNL1       -0.2699
      3 N         -25.2596   -6.8108  -12.7013 N.am    1  UNL1       -0.2680
      4 C         -25.2917   -7.8751  -13.7086 C.3     1  UNL1        0.1412
      5 C         -24.2121   -7.6280  -14.7552 C.3     1  UNL1        0.2268
      6 O         -23.1012   -6.9326  -14.1955 O.3     1  UNL1       -0.4739
      7 C         -22.4068   -7.3901  -13.0728 C.ar    1  UNL1        0.1367
      8 C         -21.0700   -7.7483  -13.2496 C.ar    1  UNL1        0.0367
      9 C         -20.3120   -8.2134  -12.1821 C.ar    1  UNL1        0.0036
     10 C         -20.8693   -8.3046  -10.9033 C.ar    1  UNL1        0.0062
     11 C         -22.2184   -7.9370  -10.6983 C.ar    1  UNL1        0.0351
     12 BR        -22.9811   -8.0866   -8.9275 Br      1  UNL1       -0.0492
     13 C         -23.0084   -7.4810  -11.7876 C.ar    1  UNL1        0.0379
     14 C         -24.4267   -6.9893  -11.5051 C.3     1  UNL1        0.1241
     15 C         -20.0120   -8.7738   -9.7952 C.ar    1  UNL1        0.0020
     16 C         -19.2293   -9.9495   -9.9431 C.ar    1  UNL1        0.0017
     17 C         -18.4262  -10.4142   -8.8845 C.ar    1  UNL1        0.0206
     18 C         -18.4376   -9.6887   -7.6967 C.ar    1  UNL1        0.0985
     19 N         -17.7573   -9.9488   -6.5659 N.ar    1  UNL1       -0.2241
     20 C         -18.1423   -8.9382   -5.7424 C.ar    1  UNL1        0.1750
     21 N         -19.0209   -8.0795   -6.3139 N.ar    1  UNL1       -0.3349
     22 C         -19.1960   -8.5682   -7.5471 C.ar    1  UNL1        0.0757
     23 C         -20.0039   -8.0742   -8.5677 C.ar    1  UNL1        0.0186
     24 H         -19.4587   -7.2330   -5.8873 H       1  UNL1        0.1675
     25 C         -28.0449   -5.4262  -14.4708 C.ar    1  UNL1        0.0503
     26 C         -28.4577   -4.8091  -15.6697 C.ar    1  UNL1        0.0328
     27 C         -27.5740   -4.0150  -16.4105 C.ar    1  UNL1        0.1069
     28 C         -26.2666   -3.8222  -15.9557 C.ar    1  UNL1        0.0186
     29 C         -25.8436   -4.4163  -14.7676 C.ar    1  UNL1        0.0071
     30 C         -26.7244   -5.2022  -14.0111 C.ar    1  UNL1        0.0667
     31 S         -28.1202   -3.2450  -17.8968 S.O2    1  UNL1        0.0105
     32 C         -29.8476   -3.5906  -18.1378 C.3     1  UNL1        0.1816
     33 O         -27.3316   -3.7757  -19.0612 O.2     1  UNL1       -0.1686
     34 O         -27.9146   -1.7584  -17.8124 O.2     1  UNL1       -0.1686
     35 N         -28.9336   -6.3009  -13.7392 N.pl3   1  UNL1       -0.3325
     36 H         -29.7830   -5.9015  -13.2811 H       1  UNL1        0.1468
     37 C         -28.7604   -8.1424  -12.1256 C.3     1  UNL1        0.0229
     38 C         -28.7476   -7.7449  -13.5974 C.3     1  UNL1        0.0871
@<TRIPOS>BOND
     1    37    38    1
     2    38    35    1
     3    35    25    1
     4    25    26   ar
     5    26    27   ar
     6    27    31    1
     7    31    32    1
     8    31    33    2
     9    31    34    2
    10    27    28   ar
    11    28    29   ar
    12    29    30   ar
    13    30     1    1
    14     1     2    2
    15     1     3   am
    16     3     4    1
    17     4     5    1
    18     5     6    1
    19     6     7    1
    20     7     8   ar
    21     8     9   ar
    22     9    10   ar
    23    10    15    1
    24    15    16   ar
    25    16    17   ar
    26    17    18   ar
    27    18    19   ar
    28    19    20   ar
    29    20    21   ar
    30    21    22   ar
    31    22    23   ar
    32    10    11   ar
    33    11    12    1
    34    11    13   ar
    35    13    14    1
    36    30    25   ar
    37    14     3    1
    38    13     7   ar
    39    23    15   ar
    40    22    18   ar
    41    35    36    1
    42    21    24    1
