@<TRIPOS>MOLECULE
*****
 38 42 0 0 0
SMALL
GASTEIGER

@<TRIPOS>ATOM
      1 C          49.8699   11.6279  -21.3937 C.2     1  UNL1        0.2506
      2 O          51.0462   11.7006  -21.8419 O.2     1  UNL1       -0.2699
      3 N          48.7942   11.2035  -22.2551 N.am    1  UNL1       -0.2680
      4 C          47.7337   10.3379  -21.7311 C.3     1  UNL1        0.1412
      5 C          46.4792   11.1613  -21.4661 C.3     1  UNL1        0.2268
      6 O          46.3961   12.2739  -22.3527 O.3     1  UNL1       -0.4739
      7 C          46.4451   12.1421  -23.7427 C.ar    1  UNL1        0.1367
      8 C          45.3057   12.5070  -24.4604 C.ar    1  UNL1        0.0367
      9 C          45.2753   12.4041  -25.8456 C.ar    1  UNL1        0.0036
     10 C          46.3986   11.9580  -26.5483 C.ar    1  UNL1        0.0062
     11 C          47.5676   11.5931  -25.8430 C.ar    1  UNL1        0.0351
     12 BR         49.1072   10.9596  -26.8272 Br      1  UNL1       -0.0492
     13 C          47.6015   11.6738  -24.4250 C.ar    1  UNL1        0.0379
     14 C          48.9172   11.3765  -23.7082 C.3     1  UNL1        0.1241
     15 C          46.3267   11.8979  -28.0228 C.ar    1  UNL1        0.0020
     16 C          46.5417   10.6688  -28.7011 C.ar    1  UNL1        0.0017
     17 C          46.4954   10.6079  -30.1066 C.ar    1  UNL1        0.0206
     18 C          46.2433   11.7895  -30.7978 C.ar    1  UNL1        0.0985
     19 N          46.1593   11.9635  -32.1289 N.ar    1  UNL1       -0.2241
     20 C          45.9069   13.2943  -32.2443 C.ar    1  UNL1        0.1750
     21 N          45.8345   13.9365  -31.0535 N.ar    1  UNL1       -0.3349
     22 C          46.0490   12.9717  -30.1516 C.ar    1  UNL1        0.0757
     23 C          46.0861   13.0765  -28.7637 C.ar    1  UNL1        0.0186
     24 H          45.6532   14.9505  -30.8827 H       1  UNL1        0.1675
     25 C          48.8720   13.1030  -19.6049 C.ar    1  UNL1        0.0503
     26 C          48.6194   13.3277  -18.2359 C.ar    1  UNL1        0.0328
     27 C          49.1267   12.4612  -17.2599 C.ar    1  UNL1        0.1069
     28 C          49.8876   11.3535  -17.6434 C.ar    1  UNL1        0.0186
     29 C          50.1394   11.1098  -18.9927 C.ar    1  UNL1        0.0071
     30 C          49.6247   11.9633  -19.9788 C.ar    1  UNL1        0.0667
     31 S          48.7841   12.7579  -15.5584 S.O2    1  UNL1        0.0105
     32 C          50.3079   13.0723  -14.6978 C.3     1  UNL1        0.1816
     33 O          48.1055   11.5567  -14.9619 O.2     1  UNL1       -0.1686
     34 O          47.8747   13.9461  -15.4157 O.2     1  UNL1       -0.1686
     35 N          48.4071   14.0322  -20.6102 N.pl3   1  UNL1       -0.3325
     36 H          47.3822   14.1203  -20.7916 H       1  UNL1        0.1468
     37 C          48.6438   15.1871  -22.7631 C.3     1  UNL1        0.0229
     38 C          49.2760   14.8991  -21.4060 C.3     1  UNL1        0.0871
@<TRIPOS>BOND
     1    37    38    1
     2    38    35    1
     3    35    25    1
     4    25    26   ar
     5    26    27   ar
     6    27    31    1
     7    31    32    1
     8    31    33    2
     9    31    34    2
    10    27    28   ar
    11    28    29   ar
    12    29    30   ar
    13    30     1    1
    14     1     2    2
    15     1     3   am
    16     3     4    1
    17     4     5    1
    18     5     6    1
    19     6     7    1
    20     7     8   ar
    21     8     9   ar
    22     9    10   ar
    23    10    15    1
    24    15    16   ar
    25    16    17   ar
    26    17    18   ar
    27    18    19   ar
    28    19    20   ar
    29    20    21   ar
    30    21    22   ar
    31    22    23   ar
    32    10    11   ar
    33    11    12    1
    34    11    13   ar
    35    13    14    1
    36    30    25   ar
    37    14     3    1
    38    13     7   ar
    39    23    15   ar
    40    22    18   ar
    41    35    36    1
    42    21    24    1
@<TRIPOS>MOLECULE
*****
 38 42 0 0 0
SMALL
GASTEIGER

@<TRIPOS>ATOM
      1 C          46.6776   12.2369  -20.2502 C.2     1  UNL1        0.2506
      2 O          45.4818   11.8514  -20.1433 O.2     1  UNL1       -0.2699
      3 N          47.1590   12.7560  -21.5064 N.am    1  UNL1       -0.2680
      4 C          48.0831   13.8937  -21.5234 C.3     1  UNL1        0.1412
      5 C          49.4997   13.4039  -21.7971 C.3     1  UNL1        0.2268
      6 O          49.4917   12.2212  -22.5922 O.3     1  UNL1       -0.4739
      7 C          48.8454   12.1421  -23.8283 C.ar    1  UNL1        0.1367
      8 C          49.6420   11.9322  -24.9543 C.ar    1  UNL1        0.0367
      9 C          49.0746   11.8428  -26.2194 C.ar    1  UNL1        0.0036
     10 C          47.6893   11.9343  -26.3832 C.ar    1  UNL1        0.0062
     11 C          46.8616   12.1361  -25.2556 C.ar    1  UNL1        0.0351
     12 BR         44.9486   12.2799  -25.5000 Br      1  UNL1       -0.0492
     13 C          47.4338   12.2508  -23.9602 C.ar    1  UNL1        0.0379
     14 C          46.4995   12.3575  -22.7565 C.3     1  UNL1        0.1241
     15 C          47.1325   11.7999  -27.7451 C.ar    1  UNL1        0.0020
     16 C          47.0720   10.5271  -28.3721 C.ar    1  UNL1        0.0017
     17 C          46.5622   10.3943  -29.6774 C.ar    1  UNL1        0.0206
     18 C          46.1338   11.5491  -30.3256 C.ar    1  UNL1        0.0985
     19 N          45.6203   11.6565  -31.5642 N.ar    1  UNL1       -0.2241
     20 C          45.3866   12.9906  -31.6798 C.ar    1  UNL1        0.1750
     21 N          45.7321   13.6979  -30.5770 N.ar    1  UNL1       -0.3349
     22 C          46.2016   12.7725  -29.7325 C.ar    1  UNL1        0.0757
     23 C          46.6984   12.9486  -28.4438 C.ar    1  UNL1        0.0186
     24 H          45.6499   14.7277  -30.4249 H       1  UNL1        0.1675
     25 C          48.4700   11.0974  -18.8864 C.ar    1  UNL1        0.0503
     26 C          49.3287   11.1253  -17.7681 C.ar    1  UNL1        0.0328
     27 C          49.2630   12.1695  -16.8376 C.ar    1  UNL1        0.1069
     28 C          48.3410   13.2039  -17.0194 C.ar    1  UNL1        0.0186
     29 C          47.4907   13.1983  -18.1241 C.ar    1  UNL1        0.0071
     30 C          47.5575   12.1647  -19.0691 C.ar    1  UNL1        0.0667
     31 S          50.3568   12.1865  -15.4578 S.O2    1  UNL1        0.0105
     32 C          49.8661   13.4742  -14.3342 C.3     1  UNL1        0.1816
     33 O          51.7622   12.4355  -15.9291 O.2     1  UNL1       -0.1686
     34 O          50.3132   10.8613  -14.7497 O.2     1  UNL1       -0.1686
     35 N          48.4888    9.9870  -19.8121 N.pl3   1  UNL1       -0.3325
     36 H          47.6146    9.4380  -19.9715 H       1  UNL1        0.1468
     37 C          49.2371    9.0253  -21.9427 C.3     1  UNL1        0.0229
     38 C          49.6596    9.5662  -20.5814 C.3     1  UNL1        0.0871
@<TRIPOS>BOND
     1    37    38    1
     2    38    35    1
     3    35    25    1
     4    25    26   ar
     5    26    27   ar
     6    27    31    1
     7    31    32    1
     8    31    33    2
     9    31    34    2
    10    27    28   ar
    11    28    29   ar
    12    29    30   ar
    13    30     1    1
    14     1     2    2
    15     1     3   am
    16     3     4    1
    17     4     5    1
    18     5     6    1
    19     6     7    1
    20     7     8   ar
    21     8     9   ar
    22     9    10   ar
    23    10    15    1
    24    15    16   ar
    25    16    17   ar
    26    17    18   ar
    27    18    19   ar
    28    19    20   ar
    29    20    21   ar
    30    21    22   ar
    31    22    23   ar
    32    10    11   ar
    33    11    12    1
    34    11    13   ar
    35    13    14    1
    36    30    25   ar
    37    14     3    1
    38    13     7   ar
    39    23    15   ar
    40    22    18   ar
    41    35    36    1
    42    21    24    1
@<TRIPOS>MOLECULE
*****
 38 42 0 0 0
SMALL
GASTEIGER

@<TRIPOS>ATOM
      1 C          49.9076   11.8465  -21.2016 C.2     1  UNL1        0.2506
      2 O          51.0613   12.0901  -21.6483 O.2     1  UNL1       -0.2699
      3 N          48.8912   11.3180  -22.0774 N.am    1  UNL1       -0.2680
      4 C          47.9568   10.3012  -21.5861 C.3     1  UNL1        0.1412
      5 C          46.6070   10.9420  -21.2874 C.3     1  UNL1        0.2268
      6 O          46.3729   12.0674  -22.1298 O.3     1  UNL1       -0.4739
      7 C          46.4298   11.9967  -23.5239 C.ar    1  UNL1        0.1367
      8 C          45.2477   12.2362  -24.2253 C.ar    1  UNL1        0.0367
      9 C          45.2221   12.1836  -25.6134 C.ar    1  UNL1        0.0036
     10 C          46.3895   11.9161  -26.3345 C.ar    1  UNL1        0.0062
     11 C          47.6009   11.6809  -25.6456 C.ar    1  UNL1        0.0351
     12 BR         49.2037   11.2933  -26.6559 Br      1  UNL1       -0.0492
     13 C          47.6331   11.7108  -24.2256 C.ar    1  UNL1        0.0379
     14 C          48.9810   11.5614  -23.5228 C.3     1  UNL1        0.1241
     15 C          46.3166   11.9038  -27.8101 C.ar    1  UNL1        0.0020
     16 C          46.5356   10.6983  -28.5283 C.ar    1  UNL1        0.0017
     17 C          46.4884   10.6832  -29.9351 C.ar    1  UNL1        0.0206
     18 C          46.2311   11.8857  -30.5871 C.ar    1  UNL1        0.0985
     19 N          46.1452   12.1027  -31.9118 N.ar    1  UNL1       -0.2241
     20 C          45.8877   13.4355  -31.9835 C.ar    1  UNL1        0.1750
     21 N          45.8138   14.0382  -30.7724 N.ar    1  UNL1       -0.3349
     22 C          46.0328   13.0454  -29.9025 C.ar    1  UNL1        0.0757
     23 C          46.0708   13.1050  -28.5120 C.ar    1  UNL1        0.0186
     24 H          45.6288   15.0454  -30.5685 H       1  UNL1        0.1675
     25 C          50.6673   12.1308  -18.8113 C.ar    1  UNL1        0.0503
     26 C          50.3385   12.4368  -17.4746 C.ar    1  UNL1        0.0328
     27 C          49.0105   12.6679  -17.0961 C.ar    1  UNL1        0.1069
     28 C          47.9947   12.6032  -18.0538 C.ar    1  UNL1        0.0186
     29 C          48.3019   12.3118  -19.3820 C.ar    1  UNL1        0.0071
     30 C          49.6298   12.0921  -19.7744 C.ar    1  UNL1        0.0667
     31 S          48.6300   13.0617  -15.4226 S.O2    1  UNL1        0.0105
     32 C          50.1210   13.5311  -14.5752 C.3     1  UNL1        0.1816
     33 O          48.0202   11.8654  -14.7472 O.2     1  UNL1       -0.1686
     34 O          47.6469   14.1977  -15.3715 O.2     1  UNL1       -0.1686
     35 N          52.0281   11.8254  -19.1923 N.pl3   1  UNL1       -0.3325
     36 H          52.2638   10.8630  -19.5230 H       1  UNL1        0.1468
     37 C          52.7070   14.1025  -19.8072 C.3     1  UNL1        0.0229
     38 C          53.1324   12.7843  -19.1703 C.3     1  UNL1        0.0871
@<TRIPOS>BOND
     1    37    38    1
     2    38    35    1
     3    35    25    1
     4    25    26   ar
     5    26    27   ar
     6    27    31    1
     7    31    32    1
     8    31    33    2
     9    31    34    2
    10    27    28   ar
    11    28    29   ar
    12    29    30   ar
    13    30     1    1
    14     1     2    2
    15     1     3   am
    16     3     4    1
    17     4     5    1
    18     5     6    1
    19     6     7    1
    20     7     8   ar
    21     8     9   ar
    22     9    10   ar
    23    10    15    1
    24    15    16   ar
    25    16    17   ar
    26    17    18   ar
    27    18    19   ar
    28    19    20   ar
    29    20    21   ar
    30    21    22   ar
    31    22    23   ar
    32    10    11   ar
    33    11    12    1
    34    11    13   ar
    35    13    14    1
    36    30    25   ar
    37    14     3    1
    38    13     7   ar
    39    23    15   ar
    40    22    18   ar
    41    35    36    1
    42    21    24    1
