@<TRIPOS>MOLECULE
*****
 41 45 0 0 0
SMALL
GASTEIGER

@<TRIPOS>ATOM
      1 C          49.3445    8.6440  -29.1243 C.ar    1  UNL1        0.0477
      2 C          50.0505    9.3237  -28.1129 C.ar    1  UNL1        0.0290
      3 C          51.4467    9.2106  -27.9926 C.ar    1  UNL1        0.0518
      4 C          52.1440    8.4444  -28.9350 C.ar    1  UNL1        0.0144
      5 C          51.4637    7.7804  -29.9560 C.ar    1  UNL1       -0.0018
      6 C          50.0657    7.8596  -30.0546 C.ar    1  UNL1       -0.0083
      7 C          49.3641    7.1208  -31.1623 C.3     1  UNL1        0.0323
      8 N          52.1774    9.8478  -26.9241 N.am    1  UNL1       -0.2803
      9 C          51.9760    9.5464  -25.5355 C.2     1  UNL1        0.2495
     10 O          52.8931    8.9537  -24.9057 O.2     1  UNL1       -0.2698
     11 H          53.0931   10.2911  -27.1638 H       1  UNL1        0.1552
     12 C          50.7439    9.9551  -24.8206 C.ar    1  UNL1        0.0537
     13 C          50.2799    9.2259  -23.7119 C.ar    1  UNL1        0.0042
     14 C          49.1488    9.6501  -23.0088 C.ar    1  UNL1       -0.0028
     15 C          48.4621   10.8079  -23.4043 C.ar    1  UNL1       -0.0061
     16 C          48.9043   11.5199  -24.5282 C.ar    1  UNL1       -0.0028
     17 C          50.0313   11.0936  -25.2344 C.ar    1  UNL1        0.0042
     18 C          47.2362   11.2666  -22.6589 C.3     1  UNL1        0.0992
     19 N          47.5726   11.5979  -21.2596 N.3     1  UNL1       -0.2665
     20 C          46.3634   11.9656  -20.5066 C.3     1  UNL1        0.0899
     21 C          46.6894   12.0730  -19.0036 C.3     1  UNL1        0.0897
     22 N          48.0911   12.4727  -18.7328 N.3     1  UNL1       -0.2691
     23 C          48.9617   11.3138  -18.4661 C.3     1  UNL1        0.0897
     24 C          48.6382   13.3419  -19.7921 C.3     1  UNL1        0.0897
     25 C          48.5784   12.6837  -21.1893 C.3     1  UNL1        0.0899
     26 N          47.9133    8.7958  -29.2497 N.pl3   1  UNL1       -0.2827
     27 H          47.3260    7.9372  -29.3436 H       1  UNL1        0.1551
     28 C          46.1698   11.8182  -28.0388 C.ar    1  UNL1        0.0873
     29 C          45.9065   12.4791  -29.2490 C.ar    1  UNL1        0.0400
     30 C          46.3196   11.8830  -30.4407 C.ar    1  UNL1        0.1034
     31 N          46.9688   10.6907  -30.4167 N.ar    1  UNL1       -0.2120
     32 C          47.2200   10.0546  -29.2424 C.ar    1  UNL1        0.2207
     33 N          46.8005   10.6140  -28.0766 N.ar    1  UNL1       -0.2135
     34 C          45.9662   14.2114  -25.1042 C.ar    1  UNL1        0.1579
     35 C          45.0423   13.5363  -24.2897 C.ar    1  UNL1        0.1356
     36 N          44.5195   12.3495  -24.6926 N.ar    1  UNL1       -0.2391
     37 C          44.8683   11.7713  -25.8716 C.ar    1  UNL1        0.1006
     38 C          45.7996   12.3955  -26.7206 C.ar    1  UNL1        0.0400
     39 C          46.3378   13.6303  -26.3190 C.ar    1  UNL1        0.0416
     40 C          47.3019   15.6732  -23.5801 C.3     1  UNL1        0.2525
     41 O          46.5250   15.4485  -24.7517 O.3     1  UNL1       -0.4699
@<TRIPOS>BOND
     1    40    41    1
     2    41    34    1
     3    34    35   ar
     4    35    36   ar
     5    36    37   ar
     6    37    38   ar
     7    38    28    1
     8    28    29   ar
     9    29    30   ar
    10    30    31   ar
    11    31    32   ar
    12    32    26    1
    13    26     1    1
    14     1     2   ar
    15     2     3   ar
    16     3     8    1
    17     8     9   am
    18     9    10    2
    19     9    12    1
    20    12    13   ar
    21    13    14   ar
    22    14    15   ar
    23    15    18    1
    24    18    19    1
    25    19    20    1
    26    20    21    1
    27    21    22    1
    28    22    23    1
    29    22    24    1
    30    24    25    1
    31    15    16   ar
    32    16    17   ar
    33     3     4   ar
    34     4     5   ar
    35     5     6   ar
    36     6     7    1
    37    32    33   ar
    38    38    39   ar
    39    39    34   ar
    40    33    28   ar
    41     6     1   ar
    42    17    12   ar
    43    25    19    1
    44    26    27    1
    45     8    11    1
@<TRIPOS>MOLECULE
*****
 41 45 0 0 0
SMALL
GASTEIGER

@<TRIPOS>ATOM
      1 C          46.6769   11.6333  -28.5387 C.ar    1  UNL1        0.0477
      2 C          46.5350   12.5552  -27.4836 C.ar    1  UNL1        0.0290
      3 C          46.0883   13.8681  -27.7142 C.ar    1  UNL1        0.0518
      4 C          45.7314   14.2391  -29.0166 C.ar    1  UNL1        0.0144
      5 C          45.8460   13.3330  -30.0712 C.ar    1  UNL1       -0.0018
      6 C          46.3294   12.0339  -29.8500 C.ar    1  UNL1       -0.0083
      7 C          46.4505   11.0869  -31.0134 C.3     1  UNL1        0.0323
      8 N          45.9991   14.8439  -26.6551 N.am    1  UNL1       -0.2803
      9 C          46.9129   14.9009  -25.5500 C.2     1  UNL1        0.2495
     10 O          47.7066   15.8770  -25.4708 O.2     1  UNL1       -0.2698
     11 H          45.4727   15.7247  -26.8543 H       1  UNL1        0.1552
     12 C          46.9114   13.8712  -24.4843 C.ar    1  UNL1        0.0537
     13 C          45.7094   13.2828  -24.0539 C.ar    1  UNL1        0.0042
     14 C          45.7218   12.2723  -23.0883 C.ar    1  UNL1       -0.0028
     15 C          46.9354   11.8360  -22.5355 C.ar    1  UNL1       -0.0061
     16 C          48.1330   12.4423  -22.9401 C.ar    1  UNL1       -0.0028
     17 C          48.1207   13.4557  -23.9010 C.ar    1  UNL1        0.0042
     18 C          46.9574   10.7550  -21.4868 C.3     1  UNL1        0.0992
     19 N          48.1176   10.9256  -20.5891 N.3     1  UNL1       -0.2665
     20 C          48.7646    9.6314  -20.3230 C.3     1  UNL1        0.0899
     21 C          50.1027    9.8507  -19.5895 C.3     1  UNL1        0.0897
     22 N          50.1187   11.0705  -18.7470 N.3     1  UNL1       -0.2691
     23 C          50.7282   12.2203  -19.4389 C.3     1  UNL1        0.0897
     24 C          48.7837   11.3945  -18.2086 C.3     1  UNL1        0.0897
     25 C          47.7254   11.5810  -19.3195 C.3     1  UNL1        0.0899
     26 N          47.1096   10.2798  -28.2779 N.pl3   1  UNL1       -0.2827
     27 H          46.3842    9.5395  -28.1482 H       1  UNL1        0.1551
     28 C          50.3355    8.6898  -29.1182 C.ar    1  UNL1        0.0873
     29 C          51.1214    9.0825  -28.0233 C.ar    1  UNL1        0.0400
     30 C          50.5386    9.8681  -27.0287 C.ar    1  UNL1        0.1034
     31 N          49.2383   10.2449  -27.1328 N.ar    1  UNL1       -0.2120
     32 C          48.4817    9.8609  -28.1942 C.ar    1  UNL1        0.2207
     33 N          49.0319    9.0749  -29.1573 N.ar    1  UNL1       -0.2135
     34 C          50.5045    6.5633  -32.2535 C.ar    1  UNL1        0.1579
     35 C          51.8957    6.4483  -32.4075 C.ar    1  UNL1        0.1356
     36 N          52.7307    7.0417  -31.5160 N.ar    1  UNL1       -0.2391
     37 C          52.2656    7.7487  -30.4530 C.ar    1  UNL1        0.1006
     38 C          50.8819    7.8848  -30.2413 C.ar    1  UNL1        0.0400
     39 C          50.0087    7.2850  -31.1650 C.ar    1  UNL1        0.0416
     40 C          48.1786    6.0244  -32.9909 C.3     1  UNL1        0.2525
     41 O          49.5927    5.9902  -33.1519 O.3     1  UNL1       -0.4699
@<TRIPOS>BOND
     1    40    41    1
     2    41    34    1
     3    34    35   ar
     4    35    36   ar
     5    36    37   ar
     6    37    38   ar
     7    38    28    1
     8    28    29   ar
     9    29    30   ar
    10    30    31   ar
    11    31    32   ar
    12    32    26    1
    13    26     1    1
    14     1     2   ar
    15     2     3   ar
    16     3     8    1
    17     8     9   am
    18     9    10    2
    19     9    12    1
    20    12    13   ar
    21    13    14   ar
    22    14    15   ar
    23    15    18    1
    24    18    19    1
    25    19    20    1
    26    20    21    1
    27    21    22    1
    28    22    23    1
    29    22    24    1
    30    24    25    1
    31    15    16   ar
    32    16    17   ar
    33     3     4   ar
    34     4     5   ar
    35     5     6   ar
    36     6     7    1
    37    32    33   ar
    38    38    39   ar
    39    39    34   ar
    40    33    28   ar
    41     6     1   ar
    42    17    12   ar
    43    25    19    1
    44    26    27    1
    45     8    11    1
@<TRIPOS>MOLECULE
*****
 41 45 0 0 0
SMALL
GASTEIGER

@<TRIPOS>ATOM
      1 C          49.9421    8.7060  -28.7822 C.ar    1  UNL1        0.0477
      2 C          50.6420    9.3500  -27.7436 C.ar    1  UNL1        0.0290
      3 C          52.0462    9.4184  -27.7401 C.ar    1  UNL1        0.0518
      4 C          52.7496    8.8761  -28.8230 C.ar    1  UNL1        0.0144
      5 C          52.0722    8.2523  -29.8709 C.ar    1  UNL1       -0.0018
      6 C          50.6725    8.1476  -29.8572 C.ar    1  UNL1       -0.0083
      7 C          49.9760    7.4578  -30.9992 C.3     1  UNL1        0.0323
      8 N          52.7811   10.0171  -26.6523 N.am    1  UNL1       -0.2803
      9 C          52.1925   10.3530  -25.3873 C.2     1  UNL1        0.2495
     10 O          52.5330    9.6949  -24.3676 O.2     1  UNL1       -0.2698
     11 H          53.8204    9.9054  -26.6537 H       1  UNL1        0.1552
     12 C          51.2373   11.4773  -25.2468 C.ar    1  UNL1        0.0537
     13 C          49.8575   11.2759  -25.4256 C.ar    1  UNL1        0.0042
     14 C          48.9581   12.3288  -25.2362 C.ar    1  UNL1       -0.0028
     15 C          49.4235   13.6003  -24.8681 C.ar    1  UNL1       -0.0061
     16 C          50.8014   13.8118  -24.7193 C.ar    1  UNL1       -0.0028
     17 C          51.7011   12.7615  -24.9136 C.ar    1  UNL1        0.0042
     18 C          48.4625   14.7434  -24.6721 C.3     1  UNL1        0.0992
     19 N          48.9694   15.9663  -25.3265 N.3     1  UNL1       -0.2665
     20 C          48.2625   17.1556  -24.8261 C.3     1  UNL1        0.0899
     21 C          48.9582   18.4352  -25.3317 C.3     1  UNL1        0.0897
     22 N          49.6382   18.2584  -26.6371 N.3     1  UNL1       -0.2691
     23 C          51.0764   17.9746  -26.4849 C.3     1  UNL1        0.0897
     24 C          48.9648   17.2571  -27.4862 C.3     1  UNL1        0.0897
     25 C          48.8547   15.8761  -26.8010 C.3     1  UNL1        0.0899
     26 N          48.4978    8.6713  -28.7831 N.pl3   1  UNL1       -0.2827
     27 H          48.0188    7.7904  -28.4906 H       1  UNL1        0.1551
     28 C          46.3883   11.6919  -28.5249 C.ar    1  UNL1        0.0873
     29 C          46.0472   11.8969  -29.8712 C.ar    1  UNL1        0.0400
     30 C          46.5340   11.0060  -30.8280 C.ar    1  UNL1        0.1034
     31 N          47.3268    9.9695  -30.4527 N.ar    1  UNL1       -0.2120
     32 C          47.6529    9.7750  -29.1480 C.ar    1  UNL1        0.2207
     33 N          47.1644   10.6225  -28.2039 N.ar    1  UNL1       -0.2135
     34 C          45.3027   12.9592  -25.1196 C.ar    1  UNL1        0.1579
     35 C          45.2052   14.3359  -25.3804 C.ar    1  UNL1        0.1356
     36 N          45.4814   14.8151  -26.6206 N.ar    1  UNL1       -0.2391
     37 C          45.8462   13.9990  -27.6438 C.ar    1  UNL1        0.1006
     38 C          45.9462   12.6105  -27.4439 C.ar    1  UNL1        0.0400
     39 C          45.6745   12.1052  -26.1607 C.ar    1  UNL1        0.0416
     40 C          46.0355   12.2373  -22.8425 C.3     1  UNL1        0.2525
     41 O          45.0497   12.4077  -23.8552 O.3     1  UNL1       -0.4699
@<TRIPOS>BOND
     1    40    41    1
     2    41    34    1
     3    34    35   ar
     4    35    36   ar
     5    36    37   ar
     6    37    38   ar
     7    38    28    1
     8    28    29   ar
     9    29    30   ar
    10    30    31   ar
    11    31    32   ar
    12    32    26    1
    13    26     1    1
    14     1     2   ar
    15     2     3   ar
    16     3     8    1
    17     8     9   am
    18     9    10    2
    19     9    12    1
    20    12    13   ar
    21    13    14   ar
    22    14    15   ar
    23    15    18    1
    24    18    19    1
    25    19    20    1
    26    20    21    1
    27    21    22    1
    28    22    23    1
    29    22    24    1
    30    24    25    1
    31    15    16   ar
    32    16    17   ar
    33     3     4   ar
    34     4     5   ar
    35     5     6   ar
    36     6     7    1
    37    32    33   ar
    38    38    39   ar
    39    39    34   ar
    40    33    28   ar
    41     6     1   ar
    42    17    12   ar
    43    25    19    1
    44    26    27    1
    45     8    11    1
@<TRIPOS>MOLECULE
*****
 41 45 0 0 0
SMALL
GASTEIGER

@<TRIPOS>ATOM
      1 C          46.5616   11.6590  -28.4840 C.ar    1  UNL1        0.0477
      2 C          46.3396   12.4827  -27.3635 C.ar    1  UNL1        0.0290
      3 C          45.8864   13.8058  -27.5064 C.ar    1  UNL1        0.0518
      4 C          45.6046   14.2862  -28.7914 C.ar    1  UNL1        0.0144
      5 C          45.7990   13.4778  -29.9117 C.ar    1  UNL1       -0.0018
      6 C          46.2893   12.1697  -29.7746 C.ar    1  UNL1       -0.0083
      7 C          46.4976   11.3302  -31.0063 C.3     1  UNL1        0.0323
      8 N          45.7159   14.6834  -26.3739 N.am    1  UNL1       -0.2803
      9 C          46.8061   15.3250  -25.6963 C.2     1  UNL1        0.2495
     10 O          46.9278   16.5758  -25.7947 O.2     1  UNL1       -0.2698
     11 H          44.7777   15.1256  -26.2438 H       1  UNL1        0.1552
     12 C          47.7557   14.5620  -24.8524 C.ar    1  UNL1        0.0537
     13 C          48.9030   13.9733  -25.4123 C.ar    1  UNL1        0.0042
     14 C          49.8226   13.3032  -24.6005 C.ar    1  UNL1       -0.0028
     15 C          49.6088   13.2085  -23.2170 C.ar    1  UNL1       -0.0061
     16 C          48.4500   13.7678  -22.6602 C.ar    1  UNL1       -0.0028
     17 C          47.5281   14.4328  -23.4716 C.ar    1  UNL1        0.0042
     18 C          50.5890   12.4793  -22.3361 C.3     1  UNL1        0.0992
     19 N          49.9075   11.9230  -21.1499 N.3     1  UNL1       -0.2665
     20 C          50.6913   12.1790  -19.9315 C.3     1  UNL1        0.0899
     21 C          49.8633   11.8118  -18.6839 C.3     1  UNL1        0.0897
     22 N          48.8813   10.7283  -18.9276 N.3     1  UNL1       -0.2691
     23 C          47.5340   11.2497  -19.2193 C.3     1  UNL1        0.0897
     24 C          49.3415    9.7797  -19.9598 C.3     1  UNL1        0.0897
     25 C          49.6502   10.4723  -21.3066 C.3     1  UNL1        0.0899
     26 N          46.9996   10.2926  -28.3156 N.pl3   1  UNL1       -0.2827
     27 H          46.2784    9.5382  -28.2735 H       1  UNL1        0.1551
     28 C          50.2427    8.7131  -29.1081 C.ar    1  UNL1        0.0873
     29 C          51.0129    9.1135  -28.0048 C.ar    1  UNL1        0.0400
     30 C          50.4141    9.9006  -27.0209 C.ar    1  UNL1        0.1034
     31 N          49.1137   10.2714  -27.1432 N.ar    1  UNL1       -0.2120
     32 C          48.3723    9.8799  -28.2126 C.ar    1  UNL1        0.2207
     33 N          48.9381    9.0925  -29.1654 N.ar    1  UNL1       -0.2135
     34 C          50.4635    6.5993  -32.2488 C.ar    1  UNL1        0.1579
     35 C          51.8566    6.4658  -32.3675 C.ar    1  UNL1        0.1356
     36 N          52.6763    7.0434  -31.4518 N.ar    1  UNL1       -0.2391
     37 C          52.1936    7.7517  -30.3976 C.ar    1  UNL1        0.1006
     38 C          50.8069    7.9060  -30.2208 C.ar    1  UNL1        0.0400
     39 C          49.9497    7.3226  -31.1697 C.ar    1  UNL1        0.0416
     40 C          48.1579    5.9776  -32.9847 C.3     1  UNL1        0.2525
     41 O          49.5674    6.0431  -33.1732 O.3     1  UNL1       -0.4699
@<TRIPOS>BOND
     1    40    41    1
     2    41    34    1
     3    34    35   ar
     4    35    36   ar
     5    36    37   ar
     6    37    38   ar
     7    38    28    1
     8    28    29   ar
     9    29    30   ar
    10    30    31   ar
    11    31    32   ar
    12    32    26    1
    13    26     1    1
    14     1     2   ar
    15     2     3   ar
    16     3     8    1
    17     8     9   am
    18     9    10    2
    19     9    12    1
    20    12    13   ar
    21    13    14   ar
    22    14    15   ar
    23    15    18    1
    24    18    19    1
    25    19    20    1
    26    20    21    1
    27    21    22    1
    28    22    23    1
    29    22    24    1
    30    24    25    1
    31    15    16   ar
    32    16    17   ar
    33     3     4   ar
    34     4     5   ar
    35     5     6   ar
    36     6     7    1
    37    32    33   ar
    38    38    39   ar
    39    39    34   ar
    40    33    28   ar
    41     6     1   ar
    42    17    12   ar
    43    25    19    1
    44    26    27    1
    45     8    11    1
@<TRIPOS>MOLECULE
*****
 41 45 0 0 0
SMALL
GASTEIGER

@<TRIPOS>ATOM
      1 C          48.7071    9.4343  -28.7719 C.ar    1  UNL1        0.0477
      2 C          47.8033   10.4551  -28.4192 C.ar    1  UNL1        0.0290
      3 C          46.7249   10.7980  -29.2534 C.ar    1  UNL1        0.0518
      4 C          46.5263   10.0677  -30.4319 C.ar    1  UNL1        0.0144
      5 C          47.3996    9.0396  -30.7876 C.ar    1  UNL1       -0.0018
      6 C          48.5000    8.7217  -29.9761 C.ar    1  UNL1       -0.0083
      7 C          49.4277    7.6139  -30.3970 C.3     1  UNL1        0.0323
      8 N          45.8281   11.8836  -28.9387 N.am    1  UNL1       -0.2803
      9 C          46.1806   12.9812  -28.0839 C.2     1  UNL1        0.2495
     10 O          46.3120   14.1268  -28.5931 O.2     1  UNL1       -0.2698
     11 H          45.0316   12.0560  -29.5932 H       1  UNL1        0.1552
     12 C          46.3454   12.8076  -26.6215 C.ar    1  UNL1        0.0537
     13 C          47.6020   12.9756  -26.0141 C.ar    1  UNL1        0.0042
     14 C          47.7384   12.8655  -24.6273 C.ar    1  UNL1       -0.0028
     15 C          46.6217   12.5828  -23.8262 C.ar    1  UNL1       -0.0061
     16 C          45.3731   12.3841  -24.4320 C.ar    1  UNL1       -0.0028
     17 C          45.2372   12.4887  -25.8180 C.ar    1  UNL1        0.0042
     18 C          46.7612   12.4519  -22.3322 C.3     1  UNL1        0.0992
     19 N          47.7353   11.3953  -21.9919 N.3     1  UNL1       -0.2665
     20 C          47.1069   10.3558  -21.1618 C.3     1  UNL1        0.0899
     21 C          48.0566    9.1501  -21.0168 C.3     1  UNL1        0.0897
     22 N          49.4907    9.5188  -21.0887 N.3     1  UNL1       -0.2691
     23 C          50.0494    9.3317  -22.4396 C.3     1  UNL1        0.0897
     24 C          49.7447   10.8763  -20.5694 C.3     1  UNL1        0.0897
     25 C          48.9239   11.9573  -21.3088 C.3     1  UNL1        0.0899
     26 N          49.7922    9.0766  -27.8877 N.pl3   1  UNL1       -0.2827
     27 H          49.7333    8.1750  -27.3637 H       1  UNL1        0.1551
     28 C          52.2171   11.3917  -26.3383 C.ar    1  UNL1        0.0873
     29 C          53.2526   11.3695  -27.2860 C.ar    1  UNL1        0.0400
     30 C          53.1006   10.5782  -28.4248 C.ar    1  UNL1        0.1034
     31 N          51.9722    9.8432  -28.5980 N.ar    1  UNL1       -0.2120
     32 C          50.9724    9.8693  -27.6780 C.ar    1  UNL1        0.2207
     33 N          51.0988   10.6556  -26.5763 N.ar    1  UNL1       -0.2135
     34 C          51.3210   13.7737  -23.5270 C.ar    1  UNL1        0.1579
     35 C          52.4208   13.5850  -22.6741 C.ar    1  UNL1        0.1356
     36 N          53.4071   12.7168  -23.0170 N.ar    1  UNL1       -0.2391
     37 C          53.3780   12.0159  -24.1806 C.ar    1  UNL1        0.1006
     38 C          52.3081   12.1757  -25.0794 C.ar    1  UNL1        0.0400
     39 C          51.2757   13.0626  -24.7285 C.ar    1  UNL1        0.0416
     40 C          49.9842   15.8481  -23.9191 C.3     1  UNL1        0.2525
     41 O          50.2626   14.6406  -23.2183 O.3     1  UNL1       -0.4699
@<TRIPOS>BOND
     1    40    41    1
     2    41    34    1
     3    34    35   ar
     4    35    36   ar
     5    36    37   ar
     6    37    38   ar
     7    38    28    1
     8    28    29   ar
     9    29    30   ar
    10    30    31   ar
    11    31    32   ar
    12    32    26    1
    13    26     1    1
    14     1     2   ar
    15     2     3   ar
    16     3     8    1
    17     8     9   am
    18     9    10    2
    19     9    12    1
    20    12    13   ar
    21    13    14   ar
    22    14    15   ar
    23    15    18    1
    24    18    19    1
    25    19    20    1
    26    20    21    1
    27    21    22    1
    28    22    23    1
    29    22    24    1
    30    24    25    1
    31    15    16   ar
    32    16    17   ar
    33     3     4   ar
    34     4     5   ar
    35     5     6   ar
    36     6     7    1
    37    32    33   ar
    38    38    39   ar
    39    39    34   ar
    40    33    28   ar
    41     6     1   ar
    42    17    12   ar
    43    25    19    1
    44    26    27    1
    45     8    11    1
@<TRIPOS>MOLECULE
*****
 41 45 0 0 0
SMALL
GASTEIGER

@<TRIPOS>ATOM
      1 C          49.4770   11.8442  -17.1919 C.ar    1  UNL1        0.0477
      2 C          50.3745   12.1217  -18.2411 C.ar    1  UNL1        0.0290
      3 C          51.6651   12.6183  -17.9879 C.ar    1  UNL1        0.0518
      4 C          52.0729   12.7877  -16.6588 C.ar    1  UNL1        0.0144
      5 C          51.2046   12.4987  -15.6058 C.ar    1  UNL1       -0.0018
      6 C          49.9017   12.0405  -15.8571 C.ar    1  UNL1       -0.0083
      7 C          48.9886   11.7496  -14.6966 C.3     1  UNL1        0.0323
      8 N          52.5734   12.9689  -19.0528 N.am    1  UNL1       -0.2803
      9 C          52.4438   14.1571  -19.8470 C.2     1  UNL1        0.2495
     10 O          53.3058   15.0678  -19.7186 O.2     1  UNL1       -0.2698
     11 H          53.5241   12.5347  -19.0379 H       1  UNL1        0.1552
     12 C          51.3552   14.3153  -20.8399 C.ar    1  UNL1        0.0537
     13 C          50.0430   14.6076  -20.4287 C.ar    1  UNL1        0.0042
     14 C          49.0336   14.8107  -21.3739 C.ar    1  UNL1       -0.0028
     15 C          49.3189   14.7221  -22.7448 C.ar    1  UNL1       -0.0061
     16 C          50.6196   14.4003  -23.1573 C.ar    1  UNL1       -0.0028
     17 C          51.6275   14.1919  -22.2132 C.ar    1  UNL1        0.0042
     18 C          48.2352   14.9291  -23.7702 C.3     1  UNL1        0.0992
     19 N          48.6284   15.9729  -24.7382 N.3     1  UNL1       -0.2665
     20 C          47.7654   17.1570  -24.6059 C.3     1  UNL1        0.0899
     21 C          48.3320   18.3199  -25.4446 C.3     1  UNL1        0.0897
     22 N          49.0902   17.8705  -26.6366 N.3     1  UNL1       -0.2691
     23 C          50.5425   17.8222  -26.3904 C.3     1  UNL1        0.0897
     24 C          48.5790   16.5956  -27.1754 C.3     1  UNL1        0.0897
     25 C          48.5963   15.4595  -26.1277 C.3     1  UNL1        0.0899
     26 N          48.1652   11.3069  -17.4706 N.pl3   1  UNL1       -0.2827
     27 H          47.7011   10.7188  -16.7427 H       1  UNL1        0.1551
     28 C          47.3539   11.5980  -21.0619 C.ar    1  UNL1        0.0873
     29 C          45.9961   11.9494  -21.0026 C.ar    1  UNL1        0.0400
     30 C          45.3937   12.0842  -19.7516 C.ar    1  UNL1        0.1034
     31 N          46.1153   11.8701  -18.6215 N.ar    1  UNL1       -0.2120
     32 C          47.4297   11.5314  -18.6845 C.ar    1  UNL1        0.2207
     33 N          48.0336   11.4210  -19.8975 N.ar    1  UNL1       -0.2135
     34 C          50.0689   10.6987  -23.5520 C.ar    1  UNL1        0.1579
     35 C          49.3897   10.9242  -24.7605 C.ar    1  UNL1        0.1356
     36 N          48.1020   11.3551  -24.7476 N.ar    1  UNL1       -0.2391
     37 C          47.4327   11.5915  -23.5891 C.ar    1  UNL1        0.1006
     38 C          48.0676   11.3962  -22.3495 C.ar    1  UNL1        0.0400
     39 C          49.3966   10.9386  -22.3512 C.ar    1  UNL1        0.0416
     40 C          52.0624    9.6032  -24.5863 C.3     1  UNL1        0.2525
     41 O          51.3916   10.2350  -23.5012 O.3     1  UNL1       -0.4699
@<TRIPOS>BOND
     1    40    41    1
     2    41    34    1
     3    34    35   ar
     4    35    36   ar
     5    36    37   ar
     6    37    38   ar
     7    38    28    1
     8    28    29   ar
     9    29    30   ar
    10    30    31   ar
    11    31    32   ar
    12    32    26    1
    13    26     1    1
    14     1     2   ar
    15     2     3   ar
    16     3     8    1
    17     8     9   am
    18     9    10    2
    19     9    12    1
    20    12    13   ar
    21    13    14   ar
    22    14    15   ar
    23    15    18    1
    24    18    19    1
    25    19    20    1
    26    20    21    1
    27    21    22    1
    28    22    23    1
    29    22    24    1
    30    24    25    1
    31    15    16   ar
    32    16    17   ar
    33     3     4   ar
    34     4     5   ar
    35     5     6   ar
    36     6     7    1
    37    32    33   ar
    38    38    39   ar
    39    39    34   ar
    40    33    28   ar
    41     6     1   ar
    42    17    12   ar
    43    25    19    1
    44    26    27    1
    45     8    11    1
@<TRIPOS>MOLECULE
*****
 41 45 0 0 0
SMALL
GASTEIGER

@<TRIPOS>ATOM
      1 C          46.9882   11.8705  -22.1356 C.ar    1  UNL1        0.0477
      2 C          48.3192   11.8095  -22.5914 C.ar    1  UNL1        0.0290
      3 C          49.3970   11.7207  -21.6930 C.ar    1  UNL1        0.0518
      4 C          49.1256   11.6404  -20.3214 C.ar    1  UNL1        0.0144
      5 C          47.8122   11.6788  -19.8525 C.ar    1  UNL1       -0.0018
      6 C          46.7365   11.8075  -20.7451 C.ar    1  UNL1       -0.0083
      7 C          45.3335   11.8571  -20.2027 C.3     1  UNL1        0.0323
      8 N          50.7688   11.7226  -22.1400 N.am    1  UNL1       -0.2803
      9 C          51.1694   12.0848  -23.4697 C.2     1  UNL1        0.2495
     10 O          51.8173   13.1531  -23.6367 O.2     1  UNL1       -0.2698
     11 H          51.5138   11.7839  -21.4093 H       1  UNL1        0.1552
     12 C          50.8816   11.2143  -24.6340 C.ar    1  UNL1        0.0537
     13 C          50.0385   11.6534  -25.6696 C.ar    1  UNL1        0.0042
     14 C          49.8168   10.8490  -26.7910 C.ar    1  UNL1       -0.0028
     15 C          50.4319    9.5921  -26.8937 C.ar    1  UNL1       -0.0061
     16 C          51.2485    9.1385  -25.8483 C.ar    1  UNL1       -0.0028
     17 C          51.4662    9.9395  -24.7251 C.ar    1  UNL1        0.0042
     18 C          50.1904    8.7142  -28.0935 C.3     1  UNL1        0.0992
     19 N          51.4493    8.4837  -28.8304 N.3     1  UNL1       -0.2665
     20 C          52.1356    9.7569  -29.0993 C.3     1  UNL1        0.0899
     21 C          53.5508    9.4884  -29.6488 C.3     1  UNL1        0.0897
     22 N          53.6577    8.2161  -30.4021 N.3     1  UNL1       -0.2691
     23 C          54.1681    7.1134  -29.5682 C.3     1  UNL1        0.0897
     24 C          52.3949    7.8591  -31.0768 C.3     1  UNL1        0.0897
     25 C          51.2081    7.7470  -30.0931 C.3     1  UNL1        0.0899
     26 N          45.8924   11.9321  -23.0751 N.pl3   1  UNL1       -0.2827
     27 H          45.0058   11.4312  -22.8424 H       1  UNL1        0.1551
     28 C          46.1250   12.6520  -26.6901 C.ar    1  UNL1        0.0873
     29 C          45.9537   14.0454  -26.6978 C.ar    1  UNL1        0.0400
     30 C          45.7705   14.7038  -25.4816 C.ar    1  UNL1        0.1034
     31 N          45.7530   13.9989  -24.3213 N.ar    1  UNL1       -0.2120
     32 C          45.9205   12.6504  -24.3194 C.ar    1  UNL1        0.2207
     33 N          46.1243   12.0010  -25.4962 N.ar    1  UNL1       -0.2135
     34 C          46.4065   11.7888  -30.3720 C.ar    1  UNL1        0.1579
     35 C          46.6874   10.4151  -30.2899 C.ar    1  UNL1        0.1356
     36 N          46.7744    9.8093  -29.0776 N.ar    1  UNL1       -0.2391
     37 C          46.5871   10.4899  -27.9167 C.ar    1  UNL1        0.1006
     38 C          46.2892   11.8642  -27.9392 C.ar    1  UNL1        0.0400
     39 C          46.2089   12.5038  -29.1882 C.ar    1  UNL1        0.0416
     40 C          45.1047   12.7708  -32.2654 C.3     1  UNL1        0.2525
     41 O          46.3239   12.4737  -31.5931 O.3     1  UNL1       -0.4699
@<TRIPOS>BOND
     1    40    41    1
     2    41    34    1
     3    34    35   ar
     4    35    36   ar
     5    36    37   ar
     6    37    38   ar
     7    38    28    1
     8    28    29   ar
     9    29    30   ar
    10    30    31   ar
    11    31    32   ar
    12    32    26    1
    13    26     1    1
    14     1     2   ar
    15     2     3   ar
    16     3     8    1
    17     8     9   am
    18     9    10    2
    19     9    12    1
    20    12    13   ar
    21    13    14   ar
    22    14    15   ar
    23    15    18    1
    24    18    19    1
    25    19    20    1
    26    20    21    1
    27    21    22    1
    28    22    23    1
    29    22    24    1
    30    24    25    1
    31    15    16   ar
    32    16    17   ar
    33     3     4   ar
    34     4     5   ar
    35     5     6   ar
    36     6     7    1
    37    32    33   ar
    38    38    39   ar
    39    39    34   ar
    40    33    28   ar
    41     6     1   ar
    42    17    12   ar
    43    25    19    1
    44    26    27    1
    45     8    11    1
@<TRIPOS>MOLECULE
*****
 41 45 0 0 0
SMALL
GASTEIGER

@<TRIPOS>ATOM
      1 C          46.4648   12.0741  -21.2407 C.ar    1  UNL1        0.0477
      2 C          47.8687   12.1263  -21.3385 C.ar    1  UNL1        0.0290
      3 C          48.6848   12.0579  -20.1957 C.ar    1  UNL1        0.0518
      4 C          48.0792   11.8827  -18.9451 C.ar    1  UNL1        0.0144
      5 C          46.6908   11.8084  -18.8310 C.ar    1  UNL1       -0.0018
      6 C          45.8721   11.9163  -19.9662 C.ar    1  UNL1       -0.0083
      7 C          44.3776   11.8431  -19.8039 C.3     1  UNL1        0.0323
      8 N          50.1208   12.1750  -20.2720 N.am    1  UNL1       -0.2803
      9 C          50.7988   13.3752  -20.6714 C.2     1  UNL1        0.2495
     10 O          51.4652   14.0092  -19.8095 O.2     1  UNL1       -0.2698
     11 H          50.6899   11.4955  -19.7180 H       1  UNL1        0.1552
     12 C          50.7715   13.8554  -22.0731 C.ar    1  UNL1        0.0537
     13 C          51.4649   13.1664  -23.0833 C.ar    1  UNL1        0.0042
     14 C          51.3884   13.5934  -24.4121 C.ar    1  UNL1       -0.0028
     15 C          50.6201   14.7173  -24.7516 C.ar    1  UNL1       -0.0061
     16 C          49.9525   15.4247  -23.7420 C.ar    1  UNL1       -0.0028
     17 C          50.0329   15.0017  -22.4134 C.ar    1  UNL1        0.0042
     18 C          50.5404   15.1908  -26.1793 C.3     1  UNL1        0.0992
     19 N          49.7657   16.4449  -26.2682 N.3     1  UNL1       -0.2665
     20 C          48.7783   16.3707  -27.3563 C.3     1  UNL1        0.0899
     21 C          47.8218   17.5778  -27.2848 C.3     1  UNL1        0.0897
     22 N          48.4448   18.7879  -26.6973 N.3     1  UNL1       -0.2691
     23 C          48.1457   18.9300  -25.2612 C.3     1  UNL1        0.0897
     24 C          49.8934   18.8580  -26.9691 C.3     1  UNL1        0.0897
     25 C          50.6545   17.6160  -26.4523 C.3     1  UNL1        0.0899
     26 N          45.6439   12.1165  -22.4289 N.pl3   1  UNL1       -0.2827
     27 H          44.7827   11.5266  -22.4626 H       1  UNL1        0.1551
     28 C          46.2360   13.1251  -25.9321 C.ar    1  UNL1        0.0873
     29 C          46.4195   14.5091  -25.7855 C.ar    1  UNL1        0.0400
     30 C          46.3443   15.0625  -24.5072 C.ar    1  UNL1        0.1034
     31 N          46.0909   14.2687  -23.4351 N.ar    1  UNL1       -0.2120
     32 C          45.9153   12.9293  -23.5825 C.ar    1  UNL1        0.2207
     33 N          46.0106   12.3753  -24.8203 N.ar    1  UNL1       -0.2135
     34 C          46.1277   12.6046  -29.6869 C.ar    1  UNL1        0.1579
     35 C          46.4006   11.2289  -29.7604 C.ar    1  UNL1        0.1356
     36 N          46.6052   10.5138  -28.6243 N.ar    1  UNL1       -0.2391
     37 C          46.5458   11.0846  -27.3928 C.ar    1  UNL1        0.1006
     38 C          46.2622   12.4555  -27.2584 C.ar    1  UNL1        0.0400
     39 C          46.0608   13.2077  -28.4286 C.ar    1  UNL1        0.0416
     40 C          45.5993   12.8884  -32.1126 C.3     1  UNL1        0.2525
     41 O          45.9273   13.3993  -30.8250 O.3     1  UNL1       -0.4699
@<TRIPOS>BOND
     1    40    41    1
     2    41    34    1
     3    34    35   ar
     4    35    36   ar
     5    36    37   ar
     6    37    38   ar
     7    38    28    1
     8    28    29   ar
     9    29    30   ar
    10    30    31   ar
    11    31    32   ar
    12    32    26    1
    13    26     1    1
    14     1     2   ar
    15     2     3   ar
    16     3     8    1
    17     8     9   am
    18     9    10    2
    19     9    12    1
    20    12    13   ar
    21    13    14   ar
    22    14    15   ar
    23    15    18    1
    24    18    19    1
    25    19    20    1
    26    20    21    1
    27    21    22    1
    28    22    23    1
    29    22    24    1
    30    24    25    1
    31    15    16   ar
    32    16    17   ar
    33     3     4   ar
    34     4     5   ar
    35     5     6   ar
    36     6     7    1
    37    32    33   ar
    38    38    39   ar
    39    39    34   ar
    40    33    28   ar
    41     6     1   ar
    42    17    12   ar
    43    25    19    1
    44    26    27    1
    45     8    11    1
@<TRIPOS>MOLECULE
*****
 41 45 0 0 0
SMALL
GASTEIGER

@<TRIPOS>ATOM
      1 C          50.0899    8.8128  -28.7371 C.ar    1  UNL1        0.0477
      2 C          48.7758    9.3172  -28.7811 C.ar    1  UNL1        0.0290
      3 C          47.9252    9.0493  -29.8679 C.ar    1  UNL1        0.0518
      4 C          48.3884    8.2203  -30.8973 C.ar    1  UNL1        0.0144
      5 C          49.6802    7.6949  -30.8610 C.ar    1  UNL1       -0.0018
      6 C          50.5451    7.9933  -29.7964 C.ar    1  UNL1       -0.0083
      7 C          51.9359    7.4181  -29.7961 C.3     1  UNL1        0.0323
      8 N          46.5994    9.6111  -29.9594 N.am    1  UNL1       -0.2803
      9 C          46.3332   11.0213  -29.9531 C.2     1  UNL1        0.2495
     10 O          45.9067   11.5613  -31.0093 O.2     1  UNL1       -0.2698
     11 H          45.8481    9.0094  -30.3670 H       1  UNL1        0.1552
     12 C          46.5023   11.8403  -28.7297 C.ar    1  UNL1        0.0537
     13 C          46.4216   13.2426  -28.7858 C.ar    1  UNL1        0.0042
     14 C          46.5262   14.0049  -27.6189 C.ar    1  UNL1       -0.0028
     15 C          46.7158   13.3779  -26.3780 C.ar    1  UNL1       -0.0061
     16 C          46.8275   11.9815  -26.3229 C.ar    1  UNL1       -0.0028
     17 C          46.7285   11.2196  -27.4892 C.ar    1  UNL1        0.0042
     18 C          46.8400   14.1919  -25.1168 C.3     1  UNL1        0.0992
     19 N          47.5795   15.4435  -25.3770 N.3     1  UNL1       -0.2665
     20 C          48.8266   15.4827  -24.5975 C.3     1  UNL1        0.0899
     21 C          49.6986   16.6688  -25.0555 C.3     1  UNL1        0.0897
     22 N          48.9108   17.8112  -25.5770 N.3     1  UNL1       -0.2691
     23 C          48.8053   17.7935  -27.0469 C.3     1  UNL1        0.0897
     24 C          47.5891   17.9195  -24.9300 C.3     1  UNL1        0.0897
     25 C          46.7463   16.6331  -25.0840 C.3     1  UNL1        0.0899
     26 N          50.9393    9.0748  -27.5982 N.pl3   1  UNL1       -0.2827
     27 H          51.7880    8.4816  -27.4608 H       1  UNL1        0.1551
     28 C          49.7698   10.8314  -24.5671 C.ar    1  UNL1        0.0873
     29 C          50.3054   12.1122  -24.7758 C.ar    1  UNL1        0.0400
     30 C          51.0414   12.3487  -25.9370 C.ar    1  UNL1        0.1034
     31 N          51.2349   11.3499  -26.8362 N.ar    1  UNL1       -0.2120
     32 C          50.7131   10.1123  -26.6299 C.ar    1  UNL1        0.2207
     33 N          49.9735    9.8767  -25.5138 N.ar    1  UNL1       -0.2135
     34 C          47.2350   11.0020  -21.7517 C.ar    1  UNL1        0.1579
     35 C          47.4981    9.7864  -21.0993 C.ar    1  UNL1        0.1356
     36 N          48.4671    8.9582  -21.5676 N.ar    1  UNL1       -0.2391
     37 C          49.2152    9.2685  -22.6585 C.ar    1  UNL1        0.1006
     38 C          49.0050   10.4791  -23.3429 C.ar    1  UNL1        0.0400
     39 C          47.9961   11.3381  -22.8739 C.ar    1  UNL1        0.0416
     40 C          45.7484   11.9702  -19.9921 C.3     1  UNL1        0.2525
     41 O          46.2345   11.8886  -21.3276 O.3     1  UNL1       -0.4699
@<TRIPOS>BOND
     1    40    41    1
     2    41    34    1
     3    34    35   ar
     4    35    36   ar
     5    36    37   ar
     6    37    38   ar
     7    38    28    1
     8    28    29   ar
     9    29    30   ar
    10    30    31   ar
    11    31    32   ar
    12    32    26    1
    13    26     1    1
    14     1     2   ar
    15     2     3   ar
    16     3     8    1
    17     8     9   am
    18     9    10    2
    19     9    12    1
    20    12    13   ar
    21    13    14   ar
    22    14    15   ar
    23    15    18    1
    24    18    19    1
    25    19    20    1
    26    20    21    1
    27    21    22    1
    28    22    23    1
    29    22    24    1
    30    24    25    1
    31    15    16   ar
    32    16    17   ar
    33     3     4   ar
    34     4     5   ar
    35     5     6   ar
    36     6     7    1
    37    32    33   ar
    38    38    39   ar
    39    39    34   ar
    40    33    28   ar
    41     6     1   ar
    42    17    12   ar
    43    25    19    1
    44    26    27    1
    45     8    11    1
