@<TRIPOS>MOLECULE
*****
 33 36 0 0 0
SMALL
GASTEIGER

@<TRIPOS>ATOM
      1 C         -25.3350   51.1731   -8.4378 C.ar    1  UNL1        0.0179
      2 C         -25.6387   51.4200   -9.7843 C.ar    1  UNL1        0.0028
      3 C         -24.6125   51.5921  -10.7173 C.ar    1  UNL1        0.0148
      4 C         -23.2702   51.5462  -10.3137 C.ar    1  UNL1        0.0516
      5 C         -22.9691   51.3041   -8.9616 C.ar    1  UNL1        0.0148
      6 C         -23.9954   51.1321   -8.0288 C.ar    1  UNL1        0.0028
      7 C         -25.8088   47.9541   -8.5536 C.3     1  UNL1        0.0327
      8 C         -26.8322   48.4833   -7.5994 C.ar    1  UNL1       -0.0005
      9 C         -27.7844   47.7188   -6.9288 C.ar    1  UNL1        0.0693
     10 N         -28.5284   48.4972   -6.1119 N.ar    1  UNL1       -0.3376
     11 C         -28.0561   49.7431   -6.2702 C.ar    1  UNL1        0.1435
     12 N         -28.4804   50.8406   -5.5993 N.ar    1  UNL1       -0.2068
     13 C         -27.8650   52.0327   -5.8462 C.ar    1  UNL1        0.2002
     14 N         -26.8460   52.1121   -6.7563 N.ar    1  UNL1       -0.2239
     15 C         -26.4107   51.0166   -7.4468 C.ar    1  UNL1        0.0856
     16 C         -27.0347   49.7911   -7.1781 C.ar    1  UNL1        0.0491
     17 H         -29.2967   48.1879   -5.4762 H       1  UNL1        0.1674
     18 N         -22.2322   51.7302  -11.2911 N.am    1  UNL1       -0.2679
     19 C         -20.8322   51.6639  -10.9876 C.2     1  UNL1        0.3115
     20 O         -20.1009   50.9031  -11.6774 O.2     1  UNL1       -0.2519
     21 N         -20.2499   52.4701   -9.9378 N.am    1  UNL1       -0.2396
     22 H         -22.5046   51.7974  -12.2978 H       1  UNL1        0.1564
     23 C         -18.9063   52.1981   -9.4989 C.ar    1  UNL1        0.0659
     24 C         -17.9081   51.9052  -10.4432 C.ar    1  UNL1        0.0158
     25 C         -16.5964   51.6575  -10.0312 C.ar    1  UNL1        0.0013
     26 C         -16.2690   51.7038   -8.6745 C.ar    1  UNL1        0.0009
     27 C         -17.2527   51.9995   -7.7272 C.ar    1  UNL1        0.0127
     28 C         -18.5698   52.2496   -8.1315 C.ar    1  UNL1        0.0714
     29 CL        -19.7778   52.6085   -6.9056 Cl      1  UNL1       -0.0809
     30 C         -20.8671   53.7397   -9.5228 C.3     1  UNL1        0.1314
     31 C         -20.1578   54.9313  -10.1664 C.3     1  UNL1        0.1590
     32 O         -19.9908   55.9577   -9.2286 O.3     1  UNL1       -0.3802
     33 H         -19.5416   56.6999   -9.7104 H       1  UNL1        0.2105
@<TRIPOS>BOND
     1     7     8    1
     2     8     9   ar
     3     9    10   ar
     4    10    11   ar
     5    11    12   ar
     6    12    13   ar
     7    13    14   ar
     8    14    15   ar
     9    15     1    1
    10     1     2   ar
    11     2     3   ar
    12     3     4   ar
    13     4    18    1
    14    18    19   am
    15    19    20    2
    16    19    21   am
    17    21    30    1
    18    30    31    1
    19    31    32    1
    20    21    23    1
    21    23    24   ar
    22    24    25   ar
    23    25    26   ar
    24    26    27   ar
    25    27    28   ar
    26    28    29    1
    27     4     5   ar
    28     5     6   ar
    29    15    16   ar
    30    16     8   ar
    31    16    11   ar
    32     6     1   ar
    33    28    23   ar
    34    10    17    1
    35    18    22    1
    36    32    33    1
@<TRIPOS>MOLECULE
*****
 33 36 0 0 0
SMALL
GASTEIGER

@<TRIPOS>ATOM
      1 C         -20.4505   52.4662  -10.5337 C.ar    1  UNL1        0.0179
      2 C         -20.9619   53.7635  -10.6816 C.ar    1  UNL1        0.0028
      3 C         -22.3252   54.0082  -10.4957 C.ar    1  UNL1        0.0148
      4 C         -23.2001   52.9568  -10.1856 C.ar    1  UNL1        0.0516
      5 C         -22.6849   51.6560  -10.0436 C.ar    1  UNL1        0.0148
      6 C         -21.3216   51.4116  -10.2296 C.ar    1  UNL1        0.0028
      7 C         -19.3919   52.2440   -7.4629 C.3     1  UNL1        0.0327
      8 C         -18.1776   52.1001   -8.3247 C.ar    1  UNL1       -0.0005
      9 C         -16.8752   51.9220   -7.8635 C.ar    1  UNL1        0.0693
     10 N         -16.0191   51.7858   -8.9005 N.ar    1  UNL1       -0.3376
     11 C         -16.7720   51.8843  -10.0068 C.ar    1  UNL1        0.1435
     12 N         -16.3278   51.7535  -11.2796 N.ar    1  UNL1       -0.2068
     13 C         -17.2327   51.8388  -12.2968 C.ar    1  UNL1        0.2002
     14 N         -18.5574   52.0569  -12.0305 N.ar    1  UNL1       -0.2239
     15 C         -19.0210   52.1982  -10.7532 C.ar    1  UNL1        0.0856
     16 C         -18.0905   52.0936   -9.7108 C.ar    1  UNL1        0.0491
     17 H         -14.9898   51.6187   -8.8487 H       1  UNL1        0.1674
     18 N         -24.5990   53.2327  -10.0030 N.am    1  UNL1       -0.2679
     19 C         -25.5380   52.2785   -9.4888 C.2     1  UNL1        0.3115
     20 O         -26.2696   52.6147   -8.5187 O.2     1  UNL1       -0.2519
     21 N         -25.6785   50.9660  -10.0796 N.am    1  UNL1       -0.2396
     22 H         -24.9331   54.2137  -10.1374 H       1  UNL1        0.1564
     23 C         -26.4420   49.9581   -9.3918 C.ar    1  UNL1        0.0659
     24 C         -27.6631   49.5178   -9.9294 C.ar    1  UNL1        0.0158
     25 C         -28.4043   48.5269   -9.2809 C.ar    1  UNL1        0.0013
     26 C         -27.9317   47.9647   -8.0933 C.ar    1  UNL1        0.0009
     27 C         -26.7159   48.3911   -7.5527 C.ar    1  UNL1        0.0127
     28 C         -25.9662   49.3833   -8.1964 C.ar    1  UNL1        0.0714
     29 CL        -24.4467   49.8968   -7.4766 Cl      1  UNL1       -0.0809
     30 C         -25.3291   50.7248  -11.4884 C.3     1  UNL1        0.1314
     31 C         -26.3671   51.3429  -12.4252 C.3     1  UNL1        0.1590
     32 O         -25.8623   51.4068  -13.7299 O.3     1  UNL1       -0.3802
     33 H         -26.5736   51.8274  -14.2795 H       1  UNL1        0.2105
@<TRIPOS>BOND
     1     7     8    1
     2     8     9   ar
     3     9    10   ar
     4    10    11   ar
     5    11    12   ar
     6    12    13   ar
     7    13    14   ar
     8    14    15   ar
     9    15     1    1
    10     1     2   ar
    11     2     3   ar
    12     3     4   ar
    13     4    18    1
    14    18    19   am
    15    19    20    2
    16    19    21   am
    17    21    30    1
    18    30    31    1
    19    31    32    1
    20    21    23    1
    21    23    24   ar
    22    24    25   ar
    23    25    26   ar
    24    26    27   ar
    25    27    28   ar
    26    28    29    1
    27     4     5   ar
    28     5     6   ar
    29    15    16   ar
    30    16     8   ar
    31    16    11   ar
    32     6     1   ar
    33    28    23   ar
    34    10    17    1
    35    18    22    1
    36    32    33    1
@<TRIPOS>MOLECULE
*****
 33 36 0 0 0
SMALL
GASTEIGER

@<TRIPOS>ATOM
      1 C         -25.5872   51.5706   -8.3750 C.ar    1  UNL1        0.0179
      2 C         -25.6687   52.5053   -9.4172 C.ar    1  UNL1        0.0028
      3 C         -24.6349   52.6093  -10.3519 C.ar    1  UNL1        0.0148
      4 C         -23.4946   51.8000  -10.2432 C.ar    1  UNL1        0.0516
      5 C         -23.4136   50.8676   -9.1936 C.ar    1  UNL1        0.0148
      6 C         -24.4474   50.7639   -8.2591 C.ar    1  UNL1        0.0028
      7 C         -28.0916   50.6658  -10.2483 C.3     1  UNL1        0.0327
      8 C         -28.6517   50.8341   -8.8714 C.ar    1  UNL1       -0.0005
      9 C         -29.9841   50.6444   -8.5115 C.ar    1  UNL1        0.0693
     10 N         -30.1492   50.8371   -7.1840 N.ar    1  UNL1       -0.3376
     11 C         -28.9341   51.1530   -6.7103 C.ar    1  UNL1        0.1435
     12 N         -28.6266   51.3792   -5.4108 N.ar    1  UNL1       -0.2068
     13 C         -27.3292   51.6486   -5.0863 C.ar    1  UNL1        0.2002
     14 N         -26.3660   51.6929   -6.0576 N.ar    1  UNL1       -0.2239
     15 C         -26.6604   51.4743   -7.3736 C.ar    1  UNL1        0.0856
     16 C         -27.9912   51.1819   -7.7002 C.ar    1  UNL1        0.0491
     17 H         -31.0348   50.7401   -6.6396 H       1  UNL1        0.1674
     18 N         -22.4426   51.9281  -11.2145 N.am    1  UNL1       -0.2679
     19 C         -21.0486   51.8133  -10.8979 C.2     1  UNL1        0.3115
     20 O         -20.3415   51.0139  -11.5690 O.2     1  UNL1       -0.2519
     21 N         -20.4442   52.6137   -9.8562 N.am    1  UNL1       -0.2396
     22 H         -22.7042   51.9892  -12.2244 H       1  UNL1        0.1564
     23 C         -19.1156   52.2977   -9.4014 C.ar    1  UNL1        0.0659
     24 C         -18.1228   51.9480  -10.3320 C.ar    1  UNL1        0.0158
     25 C         -16.8248   51.6571   -9.9047 C.ar    1  UNL1        0.0013
     26 C         -16.5059   51.7164   -8.5466 C.ar    1  UNL1        0.0009
     27 C         -17.4841   52.0684   -7.6130 C.ar    1  UNL1        0.0127
     28 C         -18.7873   52.3622   -8.0325 C.ar    1  UNL1        0.0714
     29 CL        -19.9893   52.7914   -6.8234 Cl      1  UNL1       -0.0809
     30 C         -21.0155   53.9126   -9.4670 C.3     1  UNL1        0.1314
     31 C         -20.1716   55.0676  -10.0066 C.3     1  UNL1        0.1590
     32 O         -19.9753   56.0296   -9.0081 O.3     1  UNL1       -0.3802
     33 H         -19.4374   56.7521   -9.4245 H       1  UNL1        0.2105
@<TRIPOS>BOND
     1     7     8    1
     2     8     9   ar
     3     9    10   ar
     4    10    11   ar
     5    11    12   ar
     6    12    13   ar
     7    13    14   ar
     8    14    15   ar
     9    15     1    1
    10     1     2   ar
    11     2     3   ar
    12     3     4   ar
    13     4    18    1
    14    18    19   am
    15    19    20    2
    16    19    21   am
    17    21    30    1
    18    30    31    1
    19    31    32    1
    20    21    23    1
    21    23    24   ar
    22    24    25   ar
    23    25    26   ar
    24    26    27   ar
    25    27    28   ar
    26    28    29    1
    27     4     5   ar
    28     5     6   ar
    29    15    16   ar
    30    16     8   ar
    31    16    11   ar
    32     6     1   ar
    33    28    23   ar
    34    10    17    1
    35    18    22    1
    36    32    33    1
@<TRIPOS>MOLECULE
*****
 33 36 0 0 0
SMALL
GASTEIGER

@<TRIPOS>ATOM
      1 C         -23.3948   51.9803   -9.8233 C.ar    1  UNL1        0.0179
      2 C         -23.6811   50.9497  -10.7301 C.ar    1  UNL1        0.0028
      3 C         -25.0067   50.6101  -11.0140 C.ar    1  UNL1        0.0148
      4 C         -26.0633   51.2770  -10.3768 C.ar    1  UNL1        0.0516
      5 C         -25.7725   52.3062   -9.4638 C.ar    1  UNL1        0.0148
      6 C         -24.4469   52.6455   -9.1799 C.ar    1  UNL1        0.0028
      7 C         -22.5320   53.6088  -12.5073 C.3     1  UNL1        0.0327
      8 C         -21.3033   53.5440  -11.6565 C.ar    1  UNL1       -0.0005
      9 C         -20.0594   54.0751  -11.9904 C.ar    1  UNL1        0.0693
     10 N         -19.1756   53.8811  -10.9865 N.ar    1  UNL1       -0.3376
     11 C         -19.8521   53.2270  -10.0300 C.ar    1  UNL1        0.1435
     12 N         -19.3634   52.8731   -8.8174 N.ar    1  UNL1       -0.2068
     13 C         -20.1967   52.2473   -7.9371 C.ar    1  UNL1        0.2002
     14 N         -21.4948   51.9814   -8.2799 N.ar    1  UNL1       -0.2239
     15 C         -22.0016   52.3250   -9.5012 C.ar    1  UNL1        0.0856
     16 C         -21.1467   52.9822  -10.3960 C.ar    1  UNL1        0.0491
     17 H         -18.1799   54.1938  -10.9558 H       1  UNL1        0.1674
     18 N         -27.4184   50.9071  -10.6824 N.am    1  UNL1       -0.2679
     19 C         -28.4950   50.9775   -9.7376 C.2     1  UNL1        0.3115
     20 O         -29.5444   51.5952  -10.0640 O.2     1  UNL1       -0.2519
     21 N         -28.4080   50.3316   -8.4467 N.am    1  UNL1       -0.2396
     22 H         -27.6615   50.6884  -11.6749 H       1  UNL1        0.1564
     23 C         -29.3918   50.6283   -7.4388 C.ar    1  UNL1        0.0659
     24 C         -30.6261   49.9572   -7.4476 C.ar    1  UNL1        0.0158
     25 C         -31.5820   50.2230   -6.4640 C.ar    1  UNL1        0.0013
     26 C         -31.3129   51.1574   -5.4618 C.ar    1  UNL1        0.0009
     27 C         -30.0866   51.8267   -5.4403 C.ar    1  UNL1        0.0127
     28 C         -29.1226   51.5659   -6.4219 C.ar    1  UNL1        0.0714
     29 CL        -27.5968   52.4373   -6.3625 Cl      1  UNL1       -0.0809
     30 C         -27.5369   49.1643   -8.2375 C.3     1  UNL1        0.1314
     31 C         -27.8803   48.0405   -9.2153 C.3     1  UNL1        0.1590
     32 O         -26.7092   47.5035   -9.7641 O.3     1  UNL1       -0.3802
     33 H         -27.0009   46.7955  -10.3952 H       1  UNL1        0.2105
@<TRIPOS>BOND
     1     7     8    1
     2     8     9   ar
     3     9    10   ar
     4    10    11   ar
     5    11    12   ar
     6    12    13   ar
     7    13    14   ar
     8    14    15   ar
     9    15     1    1
    10     1     2   ar
    11     2     3   ar
    12     3     4   ar
    13     4    18    1
    14    18    19   am
    15    19    20    2
    16    19    21   am
    17    21    30    1
    18    30    31    1
    19    31    32    1
    20    21    23    1
    21    23    24   ar
    22    24    25   ar
    23    25    26   ar
    24    26    27   ar
    25    27    28   ar
    26    28    29    1
    27     4     5   ar
    28     5     6   ar
    29    15    16   ar
    30    16     8   ar
    31    16    11   ar
    32     6     1   ar
    33    28    23   ar
    34    10    17    1
    35    18    22    1
    36    32    33    1
@<TRIPOS>MOLECULE
*****
 33 36 0 0 0
SMALL
GASTEIGER

@<TRIPOS>ATOM
      1 C         -26.4193   50.3542   -7.2974 C.ar    1  UNL1        0.0179
      2 C         -26.6145   51.3403   -6.3198 C.ar    1  UNL1        0.0028
      3 C         -26.8028   50.9787   -4.9830 C.ar    1  UNL1        0.0148
      4 C         -26.8250   49.6272   -4.6088 C.ar    1  UNL1        0.0516
      5 C         -26.6346   48.6407   -5.5927 C.ar    1  UNL1        0.0148
      6 C         -26.4464   49.0026   -6.9293 C.ar    1  UNL1        0.0028
      7 C         -29.5060   50.9251   -8.1616 C.3     1  UNL1        0.0327
      8 C         -28.6943   51.1026   -9.4057 C.ar    1  UNL1       -0.0005
      9 C         -29.2000   51.4325  -10.6611 C.ar    1  UNL1        0.0693
     10 N         -28.1976   51.5562  -11.5590 N.ar    1  UNL1       -0.3376
     11 C         -27.0693   51.2995  -10.8795 C.ar    1  UNL1        0.1435
     12 N         -25.8128   51.3618  -11.3813 N.ar    1  UNL1       -0.2068
     13 C         -24.7647   51.1124  -10.5445 C.ar    1  UNL1        0.2002
     14 N         -24.9851   50.8017   -9.2300 N.ar    1  UNL1       -0.2239
     15 C         -26.2461   50.7277   -8.7096 C.ar    1  UNL1        0.0856
     16 C         -27.3188   51.0006   -9.5688 C.ar    1  UNL1        0.0491
     17 H         -28.2839   51.8170  -12.5663 H       1  UNL1        0.1674
     18 N         -27.0244   49.2799   -3.2282 N.am    1  UNL1       -0.2679
     19 C         -27.7573   48.1257   -2.7956 C.2     1  UNL1        0.3115
     20 O         -27.2113   47.3358   -1.9787 O.2     1  UNL1       -0.2519
     21 N         -29.1068   47.8757   -3.2513 N.am    1  UNL1       -0.2396
     22 H         -26.5110   49.8259   -2.4999 H       1  UNL1        0.1564
     23 C         -29.7139   46.5955   -2.9979 C.ar    1  UNL1        0.0659
     24 C         -30.6613   46.4624   -1.9690 C.ar    1  UNL1        0.0158
     25 C         -31.2713   45.2293   -1.7252 C.ar    1  UNL1        0.0013
     26 C         -30.9439   44.1203   -2.5081 C.ar    1  UNL1        0.0009
     27 C         -30.0071   44.2427   -3.5375 C.ar    1  UNL1        0.0127
     28 C         -29.3915   45.4749   -3.7892 C.ar    1  UNL1        0.0714
     29 CL        -28.2116   45.5821   -5.0881 Cl      1  UNL1       -0.0809
     30 C         -29.9783   48.9777   -3.6885 C.3     1  UNL1        0.1314
     31 C         -30.7369   48.6056   -4.9626 C.3     1  UNL1        0.1590
     32 O         -29.8356   48.2687   -5.9800 O.3     1  UNL1       -0.3802
     33 H         -30.3877   48.0536   -6.7761 H       1  UNL1        0.2105
@<TRIPOS>BOND
     1     7     8    1
     2     8     9   ar
     3     9    10   ar
     4    10    11   ar
     5    11    12   ar
     6    12    13   ar
     7    13    14   ar
     8    14    15   ar
     9    15     1    1
    10     1     2   ar
    11     2     3   ar
    12     3     4   ar
    13     4    18    1
    14    18    19   am
    15    19    20    2
    16    19    21   am
    17    21    30    1
    18    30    31    1
    19    31    32    1
    20    21    23    1
    21    23    24   ar
    22    24    25   ar
    23    25    26   ar
    24    26    27   ar
    25    27    28   ar
    26    28    29    1
    27     4     5   ar
    28     5     6   ar
    29    15    16   ar
    30    16     8   ar
    31    16    11   ar
    32     6     1   ar
    33    28    23   ar
    34    10    17    1
    35    18    22    1
    36    32    33    1
@<TRIPOS>MOLECULE
*****
 33 36 0 0 0
SMALL
GASTEIGER

@<TRIPOS>ATOM
      1 C         -22.0759   52.2906   -9.1687 C.ar    1  UNL1        0.0179
      2 C         -22.4976   52.8572  -10.3801 C.ar    1  UNL1        0.0028
      3 C         -23.7562   52.5466  -10.9020 C.ar    1  UNL1        0.0148
      4 C         -24.5996   51.6462  -10.2351 C.ar    1  UNL1        0.0516
      5 C         -24.1714   51.0754   -9.0233 C.ar    1  UNL1        0.0148
      6 C         -22.9127   51.3861   -8.5016 C.ar    1  UNL1        0.0028
      7 C         -20.1769   51.2195  -11.5867 C.3     1  UNL1        0.0327
      8 C         -19.2461   51.6758  -10.5081 C.ar    1  UNL1       -0.0005
      9 C         -17.8551   51.6224  -10.5643 C.ar    1  UNL1        0.0693
     10 N         -17.3143   52.1508   -9.4440 N.ar    1  UNL1       -0.3376
     11 C         -18.3536   52.5278   -8.6835 C.ar    1  UNL1        0.1435
     12 N         -18.2703   53.1562   -7.4865 N.ar    1  UNL1       -0.2068
     13 C         -19.4267   53.5124   -6.8566 C.ar    1  UNL1        0.2002
     14 N         -20.6404   53.2333   -7.4244 N.ar    1  UNL1       -0.2239
     15 C         -20.7422   52.5939   -8.6274 C.ar    1  UNL1        0.0856
     16 C         -19.5517   52.2446   -9.2784 C.ar    1  UNL1        0.0491
     17 H         -16.2990   52.2600   -9.2268 H       1  UNL1        0.1674
     18 N         -25.8881   51.3393  -10.7938 N.am    1  UNL1       -0.2679
     19 C         -27.1059   51.3447  -10.0365 C.2     1  UNL1        0.3115
     20 O         -28.0820   52.0154  -10.4687 O.2     1  UNL1       -0.2519
     21 N         -27.2390   50.5767   -8.8184 N.am    1  UNL1       -0.2396
     22 H         -25.9649   51.2221  -11.8294 H       1  UNL1        0.1564
     23 C         -28.3740   50.7991   -7.9616 C.ar    1  UNL1        0.0659
     24 C         -29.6540   50.3965   -8.3782 C.ar    1  UNL1        0.0158
     25 C         -30.7608   50.5902   -7.5479 C.ar    1  UNL1        0.0013
     26 C         -30.5992   51.1835   -6.2942 C.ar    1  UNL1        0.0009
     27 C         -29.3300   51.5827   -5.8676 C.ar    1  UNL1        0.0127
     28 C         -28.2151   51.3918   -6.6930 C.ar    1  UNL1        0.0714
     29 CL        -26.6381   51.9174   -6.1207 Cl      1  UNL1       -0.0809
     30 C         -26.4235   49.3745   -8.5843 C.3     1  UNL1        0.1314
     31 C         -26.9619   48.1829   -9.3763 C.3     1  UNL1        0.1590
     32 O         -26.1883   47.0441   -9.1204 O.3     1  UNL1       -0.3802
     33 H         -26.5787   46.3170   -9.6716 H       1  UNL1        0.2105
@<TRIPOS>BOND
     1     7     8    1
     2     8     9   ar
     3     9    10   ar
     4    10    11   ar
     5    11    12   ar
     6    12    13   ar
     7    13    14   ar
     8    14    15   ar
     9    15     1    1
    10     1     2   ar
    11     2     3   ar
    12     3     4   ar
    13     4    18    1
    14    18    19   am
    15    19    20    2
    16    19    21   am
    17    21    30    1
    18    30    31    1
    19    31    32    1
    20    21    23    1
    21    23    24   ar
    22    24    25   ar
    23    25    26   ar
    24    26    27   ar
    25    27    28   ar
    26    28    29    1
    27     4     5   ar
    28     5     6   ar
    29    15    16   ar
    30    16     8   ar
    31    16    11   ar
    32     6     1   ar
    33    28    23   ar
    34    10    17    1
    35    18    22    1
    36    32    33    1
@<TRIPOS>MOLECULE
*****
 33 36 0 0 0
SMALL
GASTEIGER

@<TRIPOS>ATOM
      1 C         -24.8298   50.3136   -8.6745 C.ar    1  UNL1        0.0179
      2 C         -23.6879   50.9431   -8.1586 C.ar    1  UNL1        0.0028
      3 C         -22.8703   51.7111   -8.9921 C.ar    1  UNL1        0.0148
      4 C         -23.1672   51.8393  -10.3567 C.ar    1  UNL1        0.0516
      5 C         -24.3100   51.2021  -10.8720 C.ar    1  UNL1        0.0148
      6 C         -25.1274   50.4341  -10.0384 C.ar    1  UNL1        0.0028
      7 C         -27.2092   52.4167   -7.9563 C.3     1  UNL1        0.0327
      8 C         -27.5160   51.1735   -7.1828 C.ar    1  UNL1       -0.0005
      9 C         -28.6034   50.9996   -6.3295 C.ar    1  UNL1        0.0693
     10 N         -28.6113   49.7479   -5.8199 N.ar    1  UNL1       -0.3376
     11 C         -27.5349   49.1385   -6.3401 C.ar    1  UNL1        0.1435
     12 N         -27.1828   47.8465   -6.1372 N.ar    1  UNL1       -0.2068
     13 C         -26.0777   47.3650   -6.7759 C.ar    1  UNL1        0.2002
     14 N         -25.3429   48.1760   -7.5977 N.ar    1  UNL1       -0.2239
     15 C         -25.6800   49.4832   -7.8077 C.ar    1  UNL1        0.0856
     16 C         -26.8250   49.9689   -7.1625 C.ar    1  UNL1        0.0491
     17 H         -29.3196   49.3367   -5.1724 H       1  UNL1        0.1674
     18 N         -22.3089   52.6313  -11.1949 N.am    1  UNL1       -0.2679
     19 C         -20.8816   52.4962  -11.2261 C.2     1  UNL1        0.3115
     20 O         -20.3152   52.3356  -12.3410 O.2     1  UNL1       -0.2519
     21 N         -20.0909   52.5729  -10.0177 N.am    1  UNL1       -0.2396
     22 H         -22.7497   53.2563  -11.9071 H       1  UNL1        0.1564
     23 C         -18.7042   52.1884  -10.0533 C.ar    1  UNL1        0.0659
     24 C         -17.9744   52.3140  -11.2473 C.ar    1  UNL1        0.0158
     25 C         -16.6232   51.9615  -11.2899 C.ar    1  UNL1        0.0013
     26 C         -15.9883   51.4847  -10.1411 C.ar    1  UNL1        0.0009
     27 C         -16.7032   51.3611   -8.9470 C.ar    1  UNL1        0.0127
     28 C         -18.0576   51.7126   -8.8952 C.ar    1  UNL1        0.0714
     29 CL        -18.9214   51.5325   -7.3746 Cl      1  UNL1       -0.0809
     30 C         -20.5711   53.3132   -8.8403 C.3     1  UNL1        0.1314
     31 C         -19.8943   54.6802   -8.7375 C.3     1  UNL1        0.1590
     32 O         -19.4763   54.9140   -7.4216 O.3     1  UNL1       -0.3802
     33 H         -19.0621   55.8158   -7.4209 H       1  UNL1        0.2105
@<TRIPOS>BOND
     1     7     8    1
     2     8     9   ar
     3     9    10   ar
     4    10    11   ar
     5    11    12   ar
     6    12    13   ar
     7    13    14   ar
     8    14    15   ar
     9    15     1    1
    10     1     2   ar
    11     2     3   ar
    12     3     4   ar
    13     4    18    1
    14    18    19   am
    15    19    20    2
    16    19    21   am
    17    21    30    1
    18    30    31    1
    19    31    32    1
    20    21    23    1
    21    23    24   ar
    22    24    25   ar
    23    25    26   ar
    24    26    27   ar
    25    27    28   ar
    26    28    29    1
    27     4     5   ar
    28     5     6   ar
    29    15    16   ar
    30    16     8   ar
    31    16    11   ar
    32     6     1   ar
    33    28    23   ar
    34    10    17    1
    35    18    22    1
    36    32    33    1
@<TRIPOS>MOLECULE
*****
 33 36 0 0 0
SMALL
GASTEIGER

@<TRIPOS>ATOM
      1 C         -29.9597   47.5419   -3.1510 C.ar    1  UNL1        0.0179
      2 C         -31.0434   47.9844   -3.9230 C.ar    1  UNL1        0.0028
      3 C         -30.9124   48.1196   -5.3079 C.ar    1  UNL1        0.0148
      4 C         -29.6904   47.8400   -5.9367 C.ar    1  UNL1        0.0516
      5 C         -28.6040   47.4017   -5.1588 C.ar    1  UNL1        0.0148
      6 C         -28.7352   47.2668   -3.7740 C.ar    1  UNL1        0.0028
      7 C         -31.2374   44.5587   -2.8887 C.3     1  UNL1        0.0327
      8 C         -31.1642   45.0955   -1.4943 C.ar    1  UNL1       -0.0005
      9 C         -31.5819   44.4251   -0.3467 C.ar    1  UNL1        0.0693
     10 N         -31.3396   45.1716    0.7536 N.ar    1  UNL1       -0.3376
     11 C         -30.7809   46.3063    0.3054 C.ar    1  UNL1        0.1435
     12 N         -30.3285   47.3232    1.0772 N.ar    1  UNL1       -0.2068
     13 C         -29.7446   48.3941    0.4662 C.ar    1  UNL1        0.2002
     14 N         -29.6265   48.4358   -0.8967 N.ar    1  UNL1       -0.2239
     15 C         -30.0839   47.4221   -1.6902 C.ar    1  UNL1        0.0856
     16 C         -30.6682   46.3170   -1.0573 C.ar    1  UNL1        0.0491
     17 H         -31.5299   44.9093    1.7461 H       1  UNL1        0.1674
     18 N         -29.5789   47.9903   -7.3621 N.am    1  UNL1       -0.2679
     19 C         -28.4705   48.6280   -8.0109 C.2     1  UNL1        0.3115
     20 O         -27.8775   48.0114   -8.9370 O.2     1  UNL1       -0.2519
     21 N         -28.0495   49.9624   -7.6454 N.am    1  UNL1       -0.2396
     22 H         -30.2797   47.5072   -7.9684 H       1  UNL1        0.1564
     23 C         -26.7944   50.4682   -8.1363 C.ar    1  UNL1        0.0659
     24 C         -25.5969   50.1078   -7.4959 C.ar    1  UNL1        0.0158
     25 C         -24.3710   50.5774   -7.9740 C.ar    1  UNL1        0.0013
     26 C         -24.3295   51.4068   -9.0965 C.ar    1  UNL1        0.0009
     27 C         -25.5139   51.7670   -9.7444 C.ar    1  UNL1        0.0127
     28 C         -26.7469   51.3004   -9.2724 C.ar    1  UNL1        0.0714
     29 CL        -28.2132   51.7858  -10.1121 Cl      1  UNL1       -0.0809
     30 C         -28.9928   50.9206   -7.0480 C.3     1  UNL1        0.1314
     31 C         -28.3434   51.6828   -5.8927 C.3     1  UNL1        0.1590
     32 O         -27.7466   52.8583   -6.3650 O.3     1  UNL1       -0.3802
     33 H         -27.3347   53.2942   -5.5744 H       1  UNL1        0.2105
@<TRIPOS>BOND
     1     7     8    1
     2     8     9   ar
     3     9    10   ar
     4    10    11   ar
     5    11    12   ar
     6    12    13   ar
     7    13    14   ar
     8    14    15   ar
     9    15     1    1
    10     1     2   ar
    11     2     3   ar
    12     3     4   ar
    13     4    18    1
    14    18    19   am
    15    19    20    2
    16    19    21   am
    17    21    30    1
    18    30    31    1
    19    31    32    1
    20    21    23    1
    21    23    24   ar
    22    24    25   ar
    23    25    26   ar
    24    26    27   ar
    25    27    28   ar
    26    28    29    1
    27     4     5   ar
    28     5     6   ar
    29    15    16   ar
    30    16     8   ar
    31    16    11   ar
    32     6     1   ar
    33    28    23   ar
    34    10    17    1
    35    18    22    1
    36    32    33    1
@<TRIPOS>MOLECULE
*****
 33 36 0 0 0
SMALL
GASTEIGER

@<TRIPOS>ATOM
      1 C         -27.3447   50.3609   -7.2170 C.ar    1  UNL1        0.0179
      2 C         -27.3270   49.0037   -6.8650 C.ar    1  UNL1        0.0028
      3 C         -27.2724   48.6259   -5.5206 C.ar    1  UNL1        0.0148
      4 C         -27.2082   49.5977   -4.5114 C.ar    1  UNL1        0.0516
      5 C         -27.2204   50.9578   -4.8682 C.ar    1  UNL1        0.0148
      6 C         -27.2750   51.3354   -6.2126 C.ar    1  UNL1        0.0028
      7 C         -24.1607   50.5505   -7.8699 C.3     1  UNL1        0.0327
      8 C         -24.8601   50.9867   -9.1184 C.ar    1  UNL1       -0.0005
      9 C         -24.2354   51.3956  -10.2945 C.ar    1  UNL1        0.0693
     10 N         -25.1532   51.6837  -11.2439 N.ar    1  UNL1       -0.3376
     11 C         -26.3470   51.4662  -10.6711 C.ar    1  UNL1        0.1435
     12 N         -27.5500   51.5820  -11.2825 N.ar    1  UNL1       -0.2068
     13 C         -28.6739   51.2824  -10.5697 C.ar    1  UNL1        0.2002
     14 N         -28.5812   50.8796   -9.2650 N.ar    1  UNL1       -0.2239
     15 C         -27.3764   50.7645   -8.6312 C.ar    1  UNL1        0.0856
     16 C         -26.2238   51.0575   -9.3720 C.ar    1  UNL1        0.0491
     17 H         -24.9687   51.9917  -12.2243 H       1  UNL1        0.1674
     18 N         -27.1486   49.1844   -3.1358 N.am    1  UNL1       -0.2679
     19 C         -27.8714   48.0632   -2.6095 C.2     1  UNL1        0.3115
     20 O         -27.2377   47.1883   -1.9596 O.2     1  UNL1       -0.2519
     21 N         -29.3018   47.9401   -2.7833 N.am    1  UNL1       -0.2396
     22 H         -26.4528   49.6471   -2.5082 H       1  UNL1        0.1564
     23 C         -29.9492   46.6949   -2.4638 C.ar    1  UNL1        0.0659
     24 C         -30.0260   45.6785   -3.4308 C.ar    1  UNL1        0.0158
     25 C         -30.6356   44.4587   -3.1270 C.ar    1  UNL1        0.0013
     26 C         -31.1699   44.2415   -1.8553 C.ar    1  UNL1        0.0009
     27 C         -31.0942   45.2434   -0.8843 C.ar    1  UNL1        0.0127
     28 C         -30.4845   46.4687   -1.1800 C.ar    1  UNL1        0.0714
     29 CL        -30.4194   47.7049    0.0684 Cl      1  UNL1       -0.0809
     30 C         -30.1488   49.1269   -2.9808 C.3     1  UNL1        0.1314
     31 C         -30.9725   49.0065   -4.2631 C.3     1  UNL1        0.1590
     32 O         -30.4640   49.8648   -5.2457 O.3     1  UNL1       -0.3802
     33 H         -31.0474   49.7494   -6.0401 H       1  UNL1        0.2105
@<TRIPOS>BOND
     1     7     8    1
     2     8     9   ar
     3     9    10   ar
     4    10    11   ar
     5    11    12   ar
     6    12    13   ar
     7    13    14   ar
     8    14    15   ar
     9    15     1    1
    10     1     2   ar
    11     2     3   ar
    12     3     4   ar
    13     4    18    1
    14    18    19   am
    15    19    20    2
    16    19    21   am
    17    21    30    1
    18    30    31    1
    19    31    32    1
    20    21    23    1
    21    23    24   ar
    22    24    25   ar
    23    25    26   ar
    24    26    27   ar
    25    27    28   ar
    26    28    29    1
    27     4     5   ar
    28     5     6   ar
    29    15    16   ar
    30    16     8   ar
    31    16    11   ar
    32     6     1   ar
    33    28    23   ar
    34    10    17    1
    35    18    22    1
    36    32    33    1
