@<TRIPOS>MOLECULE
*****
 30 33 0 0 0
SMALL
GASTEIGER

@<TRIPOS>ATOM
      1 N         -21.8999  -12.5594  -14.7720 N.ar    1  UNL1       -0.3243
      2 C         -22.2648  -11.4722  -15.4937 C.ar    1  UNL1        0.0600
      3 C         -22.7787  -11.4460  -16.7957 C.ar    1  UNL1        0.0177
      4 C         -23.0841  -10.2011  -17.3661 C.ar    1  UNL1        0.0082
      5 C         -22.8746   -9.0114  -16.6414 C.ar    1  UNL1        0.0347
      6 BR        -23.2962   -7.3286  -17.4397 Br      1  UNL1       -0.0490
      7 C         -22.3539   -9.0539  -15.3367 C.ar    1  UNL1        0.0082
      8 C         -22.0540  -10.3032  -14.7809 C.ar    1  UNL1        0.0182
      9 C         -21.5256  -10.6828  -13.5506 C.ar    1  UNL1        0.0239
     10 C         -21.1041   -9.9605  -12.4160 C.ar    1  UNL1        0.0422
     11 BR        -21.1964   -8.0451  -12.3126 Br      1  UNL1       -0.0484
     12 C         -20.5964  -10.6990  -11.3198 C.ar    1  UNL1        0.0409
     13 BR        -19.9905   -9.8357   -9.7185 Br      1  UNL1       -0.0485
     14 C         -20.5209  -12.1047  -11.3772 C.ar    1  UNL1        0.0087
     15 C         -20.9458  -12.8004  -12.5154 C.ar    1  UNL1        0.0177
     16 C         -21.4468  -12.0674  -13.5929 C.ar    1  UNL1        0.0605
     17 C         -21.9322  -13.9683  -15.1876 C.3     1  UNL1        0.1429
     18 C         -23.3639  -14.4291  -15.4969 C.3     1  UNL1        0.2027
     19 F         -23.3085  -15.7020  -16.0380 F       1  UNL1       -0.2334
     20 C         -24.2514  -14.4332  -14.2441 C.3     1  UNL1        0.1259
     21 N         -25.2850  -13.4032  -14.3414 N.pl3   1  UNL1       -0.3157
     22 H         -26.1263  -13.6058  -14.9282 H       1  UNL1        0.1483
     23 C         -24.4971  -10.8169  -11.8251 C.ar    1  UNL1        0.2261
     24 C         -24.9236   -9.6474  -12.4599 C.ar    1  UNL1        0.0578
     25 C         -25.4782   -9.7256  -13.7385 C.ar    1  UNL1        0.0077
     26 C         -25.6024  -10.9652  -14.3691 C.ar    1  UNL1        0.0343
     27 C         -25.1671  -12.1209  -13.7070 C.ar    1  UNL1        0.1317
     28 N         -24.6268  -12.0150  -12.4607 N.ar    1  UNL1       -0.1969
     29 C         -24.0528   -9.5844   -9.7260 C.3     1  UNL1        0.2542
     30 O         -23.9431  -10.7434  -10.5440 O.3     1  UNL1       -0.4561
@<TRIPOS>BOND
     1    29    30    1
     2    30    23    1
     3    23    24   ar
     4    24    25   ar
     5    25    26   ar
     6    26    27   ar
     7    27    21    1
     8    21    20    1
     9    20    18    1
    10    18    19    1
    11    18    17    1
    12    17     1    1
    13     1     2   ar
    14     2     3   ar
    15     3     4   ar
    16     4     5   ar
    17     5     6    1
    18     5     7   ar
    19     7     8   ar
    20     8     9   ar
    21     9    10   ar
    22    10    11    1
    23    10    12   ar
    24    12    13    1
    25    12    14   ar
    26    14    15   ar
    27    15    16   ar
    28    27    28   ar
    29    28    23   ar
    30    16     1   ar
    31     8     2   ar
    32    16     9   ar
    33    21    22    1
@<TRIPOS>MOLECULE
*****
 30 33 0 0 0
SMALL
GASTEIGER

@<TRIPOS>ATOM
      1 N         -21.7289  -12.8202  -14.8930 N.ar    1  UNL1       -0.3243
      2 C         -21.3396  -12.3179  -13.6962 C.ar    1  UNL1        0.0600
      3 C         -20.8434  -13.0257  -12.5950 C.ar    1  UNL1        0.0177
      4 C         -20.5064  -12.3068  -11.4382 C.ar    1  UNL1        0.0082
      5 C         -20.6678  -10.9080  -11.3928 C.ar    1  UNL1        0.0347
      6 BR        -20.2040   -9.9515   -9.8064 Br      1  UNL1       -0.0490
      7 C         -21.1714  -10.2122  -12.5052 C.ar    1  UNL1        0.0082
      8 C         -21.5031  -10.9430  -13.6522 C.ar    1  UNL1        0.0182
      9 C         -22.0262  -10.5695  -14.8867 C.ar    1  UNL1        0.0239
     10 C         -22.4086   -9.3304  -15.4388 C.ar    1  UNL1        0.0422
     11 BR        -22.2540   -7.6748  -14.4781 Br      1  UNL1       -0.0484
     12 C         -22.9244   -9.3312  -16.7575 C.ar    1  UNL1        0.0409
     13 BR        -23.4800   -7.7125  -17.6221 Br      1  UNL1       -0.0485
     14 C         -23.0454  -10.5359  -17.4780 C.ar    1  UNL1        0.0087
     15 C         -22.6587  -11.7549  -16.9083 C.ar    1  UNL1        0.0177
     16 C         -22.1496  -11.7482  -15.6082 C.ar    1  UNL1        0.0605
     17 C         -21.7473  -14.2271  -15.3160 C.3     1  UNL1        0.1429
     18 C         -23.1778  -14.7101  -15.5958 C.3     1  UNL1        0.2027
     19 F         -23.1114  -15.9551  -16.1970 F       1  UNL1       -0.2334
     20 C         -24.0187  -14.7941  -14.3140 C.3     1  UNL1        0.1259
     21 N         -25.1601  -13.8827  -14.3859 N.pl3   1  UNL1       -0.3157
     22 H         -26.0246  -14.2156  -14.8705 H       1  UNL1        0.1483
     23 C         -24.5659  -11.0522  -12.0886 C.ar    1  UNL1        0.2261
     24 C         -25.0331   -9.9652  -12.8320 C.ar    1  UNL1        0.0578
     25 C         -25.5501  -10.1816  -14.1105 C.ar    1  UNL1        0.0077
     26 C         -25.5966  -11.4756  -14.6330 C.ar    1  UNL1        0.0343
     27 C         -25.1220  -12.5461  -13.8634 C.ar    1  UNL1        0.1317
     28 N         -24.6199  -12.3057  -12.6198 N.ar    1  UNL1       -0.1969
     29 C         -24.1870   -9.6024  -10.1195 C.3     1  UNL1        0.2542
     30 O         -24.0493  -10.8404  -10.8073 O.3     1  UNL1       -0.4561
@<TRIPOS>BOND
     1    29    30    1
     2    30    23    1
     3    23    24   ar
     4    24    25   ar
     5    25    26   ar
     6    26    27   ar
     7    27    21    1
     8    21    20    1
     9    20    18    1
    10    18    19    1
    11    18    17    1
    12    17     1    1
    13     1     2   ar
    14     2     3   ar
    15     3     4   ar
    16     4     5   ar
    17     5     6    1
    18     5     7   ar
    19     7     8   ar
    20     8     9   ar
    21     9    10   ar
    22    10    11    1
    23    10    12   ar
    24    12    13    1
    25    12    14   ar
    26    14    15   ar
    27    15    16   ar
    28    27    28   ar
    29    28    23   ar
    30    16     1   ar
    31     8     2   ar
    32    16     9   ar
    33    21    22    1
@<TRIPOS>MOLECULE
*****
 30 33 0 0 0
SMALL
GASTEIGER

@<TRIPOS>ATOM
      1 N         -24.3256   -9.6472  -11.1180 N.ar    1  UNL1       -0.3243
      2 C         -23.7270  -10.5315  -11.9521 C.ar    1  UNL1        0.0600
      3 C         -24.3131  -11.2382  -13.0090 C.ar    1  UNL1        0.0177
      4 C         -23.5092  -12.1199  -13.7472 C.ar    1  UNL1        0.0082
      5 C         -22.1478  -12.2861  -13.4259 C.ar    1  UNL1        0.0347
      6 BR        -21.0742  -13.4934  -14.4441 Br      1  UNL1       -0.0490
      7 C         -21.5750  -11.5727  -12.3591 C.ar    1  UNL1        0.0082
      8 C         -22.3894  -10.6967  -11.6318 C.ar    1  UNL1        0.0182
      9 C         -22.1429   -9.8738  -10.5367 C.ar    1  UNL1        0.0239
     10 C         -20.9940   -9.6144   -9.7626 C.ar    1  UNL1        0.0422
     11 BR        -19.2978  -10.4437  -10.1135 Br      1  UNL1       -0.0484
     12 C         -21.1197   -8.7009   -8.6881 C.ar    1  UNL1        0.0409
     13 BR        -19.6324   -8.2626   -7.5600 Br      1  UNL1       -0.0485
     14 C         -22.3559   -8.0826   -8.4151 C.ar    1  UNL1        0.0087
     15 C         -23.4836   -8.3561   -9.1984 C.ar    1  UNL1        0.0177
     16 C         -23.3538   -9.2567  -10.2574 C.ar    1  UNL1        0.0605
     17 C         -25.7356   -9.2343  -11.1049 C.3     1  UNL1        0.1429
     18 C         -26.0309   -8.2119  -12.2119 C.3     1  UNL1        0.2027
     19 F         -27.2489   -8.5283  -12.7885 F       1  UNL1       -0.2334
     20 C         -26.0664   -6.7743  -11.6740 C.3     1  UNL1        0.1259
     21 N         -25.0595   -5.9497  -12.3409 N.pl3   1  UNL1       -0.3157
     22 H         -25.3897   -5.1451  -12.9212 H       1  UNL1        0.1483
     23 C         -21.7590   -7.4441  -13.0586 C.ar    1  UNL1        0.2261
     24 C         -20.9307   -6.7823  -12.1484 C.ar    1  UNL1        0.0578
     25 C         -21.4811   -5.8297  -11.2891 C.ar    1  UNL1        0.0077
     26 C         -22.8475   -5.5479  -11.3454 C.ar    1  UNL1        0.0343
     27 C         -23.6532   -6.2287  -12.2678 C.ar    1  UNL1        0.1317
     28 N         -23.0891   -7.1514  -13.0965 N.ar    1  UNL1       -0.1969
     29 C         -21.8449   -8.7909  -15.1326 C.3     1  UNL1        0.2542
     30 O         -21.2125   -8.4001  -13.9193 O.3     1  UNL1       -0.4561
@<TRIPOS>BOND
     1    29    30    1
     2    30    23    1
     3    23    24   ar
     4    24    25   ar
     5    25    26   ar
     6    26    27   ar
     7    27    21    1
     8    21    20    1
     9    20    18    1
    10    18    19    1
    11    18    17    1
    12    17     1    1
    13     1     2   ar
    14     2     3   ar
    15     3     4   ar
    16     4     5   ar
    17     5     6    1
    18     5     7   ar
    19     7     8   ar
    20     8     9   ar
    21     9    10   ar
    22    10    11    1
    23    10    12   ar
    24    12    13    1
    25    12    14   ar
    26    14    15   ar
    27    15    16   ar
    28    27    28   ar
    29    28    23   ar
    30    16     1   ar
    31     8     2   ar
    32    16     9   ar
    33    21    22    1
@<TRIPOS>MOLECULE
*****
 30 33 0 0 0
SMALL
GASTEIGER

@<TRIPOS>ATOM
      1 N         -22.7478   -9.4443  -11.4898 N.ar    1  UNL1       -0.3243
      2 C         -23.9314   -8.8961  -11.8566 C.ar    1  UNL1        0.0600
      3 C         -24.5208   -7.7277  -11.3591 C.ar    1  UNL1        0.0177
      4 C         -25.7671   -7.3395  -11.8734 C.ar    1  UNL1        0.0082
      5 C         -26.4043   -8.1122  -12.8642 C.ar    1  UNL1        0.0347
      6 BR        -28.1013   -7.5645  -13.5475 Br      1  UNL1       -0.0490
      7 C         -25.8018   -9.2851  -13.3503 C.ar    1  UNL1        0.0082
      8 C         -24.5583   -9.6596  -12.8277 C.ar    1  UNL1        0.0182
      9 C         -23.7217  -10.7438  -13.0761 C.ar    1  UNL1        0.0239
     10 C         -23.8102  -11.8544  -13.9394 C.ar    1  UNL1        0.0422
     11 BR        -25.2976  -12.1330  -15.1219 Br      1  UNL1       -0.0484
     12 C         -22.7467  -12.7889  -13.9170 C.ar    1  UNL1        0.0409
     13 BR        -22.7468  -14.3413  -15.0425 Br      1  UNL1       -0.0485
     14 C         -21.6472  -12.6015  -13.0563 C.ar    1  UNL1        0.0087
     15 C         -21.5814  -11.4901  -12.2075 C.ar    1  UNL1        0.0177
     16 C         -22.6322  -10.5711  -12.2345 C.ar    1  UNL1        0.0605
     17 C         -21.8097   -8.9606  -10.4677 C.3     1  UNL1        0.1429
     18 C         -20.6449   -8.1837  -11.0981 C.3     1  UNL1        0.2027
     19 F         -19.7177   -9.0936  -11.5761 F       1  UNL1       -0.2334
     20 C         -21.1128   -7.2682  -12.2384 C.3     1  UNL1        0.1259
     21 N         -20.5890   -7.7347  -13.5216 N.pl3   1  UNL1       -0.3157
     22 H         -19.5595   -7.6607  -13.6878 H       1  UNL1        0.1483
     23 C         -21.9081   -9.9334  -16.1801 C.ar    1  UNL1        0.2261
     24 C         -23.0516   -9.2446  -16.5930 C.ar    1  UNL1        0.0578
     25 C         -23.3828   -8.0364  -15.9771 C.ar    1  UNL1        0.0077
     26 C         -22.5728   -7.5285  -14.9595 C.ar    1  UNL1        0.0343
     27 C         -21.4317   -8.2411  -14.5677 C.ar    1  UNL1        0.1317
     28 N         -21.1338   -9.4192  -15.1840 N.ar    1  UNL1       -0.1969
     29 C         -22.4603  -11.8342  -17.6650 C.3     1  UNL1        0.2542
     30 O         -21.5716  -11.1424  -16.7955 O.3     1  UNL1       -0.4561
@<TRIPOS>BOND
     1    29    30    1
     2    30    23    1
     3    23    24   ar
     4    24    25   ar
     5    25    26   ar
     6    26    27   ar
     7    27    21    1
     8    21    20    1
     9    20    18    1
    10    18    19    1
    11    18    17    1
    12    17     1    1
    13     1     2   ar
    14     2     3   ar
    15     3     4   ar
    16     4     5   ar
    17     5     6    1
    18     5     7   ar
    19     7     8   ar
    20     8     9   ar
    21     9    10   ar
    22    10    11    1
    23    10    12   ar
    24    12    13    1
    25    12    14   ar
    26    14    15   ar
    27    15    16   ar
    28    27    28   ar
    29    28    23   ar
    30    16     1   ar
    31     8     2   ar
    32    16     9   ar
    33    21    22    1
@<TRIPOS>MOLECULE
*****
 30 33 0 0 0
SMALL
GASTEIGER

@<TRIPOS>ATOM
      1 N         -23.8030  -11.2431  -13.1796 N.ar    1  UNL1       -0.3243
      2 C         -22.6527  -11.0580  -12.4876 C.ar    1  UNL1        0.0600
      3 C         -21.6969  -12.0230  -12.1483 C.ar    1  UNL1        0.0177
      4 C         -20.5734  -11.6174  -11.4123 C.ar    1  UNL1        0.0082
      5 C         -20.4188  -10.2714  -11.0264 C.ar    1  UNL1        0.0347
      6 BR        -18.8819   -9.7436  -10.0232 Br      1  UNL1       -0.0490
      7 C         -21.3893   -9.3152  -11.3709 C.ar    1  UNL1        0.0082
      8 C         -22.5047   -9.7347  -12.1055 C.ar    1  UNL1        0.0182
      9 C         -23.6251   -9.0603  -12.5817 C.ar    1  UNL1        0.0239
     10 C         -24.0486   -7.7180  -12.5075 C.ar    1  UNL1        0.0422
     11 BR        -23.0230   -6.3540  -11.6268 Br      1  UNL1       -0.0484
     12 C         -25.2836   -7.3854  -13.1150 C.ar    1  UNL1        0.0409
     13 BR        -25.9711   -5.5957  -13.0840 Br      1  UNL1       -0.0485
     14 C         -26.0501   -8.3725  -13.7655 C.ar    1  UNL1        0.0087
     15 C         -25.6085   -9.6997  -13.8265 C.ar    1  UNL1        0.0177
     16 C         -24.3895  -10.0219  -13.2269 C.ar    1  UNL1        0.0605
     17 C         -24.3365  -12.5011  -13.7195 C.3     1  UNL1        0.1429
     18 C         -23.5623  -12.9488  -14.9677 C.3     1  UNL1        0.2027
     19 F         -23.6082  -14.3304  -15.0411 F       1  UNL1       -0.2334
     20 C         -24.1391  -12.3390  -16.2532 C.3     1  UNL1        0.1259
     21 N         -23.1226  -11.5533  -16.9519 N.pl3   1  UNL1       -0.3157
     22 H         -22.6769  -11.9707  -17.8005 H       1  UNL1        0.1483
     23 C         -23.0919   -7.9268  -16.2524 C.ar    1  UNL1        0.2261
     24 C         -21.8614   -7.7598  -15.6118 C.ar    1  UNL1        0.0578
     25 C         -21.0370   -8.8687  -15.4128 C.ar    1  UNL1        0.0077
     26 C         -21.4463  -10.1287  -15.8538 C.ar    1  UNL1        0.0343
     27 C         -22.6851  -10.2649  -16.4943 C.ar    1  UNL1        0.1317
     28 N         -23.4708   -9.1662  -16.6726 N.ar    1  UNL1       -0.1969
     29 C         -24.1669   -6.2723  -17.7457 C.3     1  UNL1        0.2542
     30 O         -23.9195   -6.8189  -16.4555 O.3     1  UNL1       -0.4561
@<TRIPOS>BOND
     1    29    30    1
     2    30    23    1
     3    23    24   ar
     4    24    25   ar
     5    25    26   ar
     6    26    27   ar
     7    27    21    1
     8    21    20    1
     9    20    18    1
    10    18    19    1
    11    18    17    1
    12    17     1    1
    13     1     2   ar
    14     2     3   ar
    15     3     4   ar
    16     4     5   ar
    17     5     6    1
    18     5     7   ar
    19     7     8   ar
    20     8     9   ar
    21     9    10   ar
    22    10    11    1
    23    10    12   ar
    24    12    13    1
    25    12    14   ar
    26    14    15   ar
    27    15    16   ar
    28    27    28   ar
    29    28    23   ar
    30    16     1   ar
    31     8     2   ar
    32    16     9   ar
    33    21    22    1
@<TRIPOS>MOLECULE
*****
 30 33 0 0 0
SMALL
GASTEIGER

@<TRIPOS>ATOM
      1 N         -24.5704  -10.1650  -12.1519 N.ar    1  UNL1       -0.3243
      2 C         -23.3498   -9.9908  -11.5897 C.ar    1  UNL1        0.0600
      3 C         -22.9661   -9.0051  -10.6726 C.ar    1  UNL1        0.0177
      4 C         -21.6380   -8.9975  -10.2201 C.ar    1  UNL1        0.0082
      5 C         -20.7190   -9.9597  -10.6828 C.ar    1  UNL1        0.0347
      6 BR        -18.9162   -9.9279  -10.0537 Br      1  UNL1       -0.0490
      7 C         -21.1185  -10.9404  -11.6068 C.ar    1  UNL1        0.0082
      8 C         -22.4466  -10.9354  -12.0492 C.ar    1  UNL1        0.0182
      9 C         -23.1412  -11.7385  -12.9490 C.ar    1  UNL1        0.0239
     10 C         -22.7730  -12.8465  -13.7384 C.ar    1  UNL1        0.0422
     11 BR        -21.0011  -13.5870  -13.7245 Br      1  UNL1       -0.0484
     12 C         -23.7673  -13.4209  -14.5668 C.ar    1  UNL1        0.0409
     13 BR        -23.3944  -14.9309  -15.6882 Br      1  UNL1       -0.0485
     14 C         -25.0727  -12.8915  -14.5905 C.ar    1  UNL1        0.0087
     15 C         -25.4150  -11.7899  -13.7971 C.ar    1  UNL1        0.0177
     16 C         -24.4311  -11.2282  -12.9812 C.ar    1  UNL1        0.0605
     17 C         -25.7770   -9.3503  -11.9547 C.3     1  UNL1        0.1429
     18 C         -26.0767   -8.4843  -13.1868 C.3     1  UNL1        0.2027
     19 F         -27.4334   -8.2108  -13.2121 F       1  UNL1       -0.2334
     20 C         -25.2803   -7.1717  -13.1763 C.3     1  UNL1        0.1259
     21 N         -24.5053   -7.0294  -14.4082 N.pl3   1  UNL1       -0.3157
     22 H         -24.7156   -6.2152  -15.0293 H       1  UNL1        0.1483
     23 C         -22.9122   -9.9030  -16.0954 C.ar    1  UNL1        0.2261
     24 C         -21.5992   -9.8326  -15.6225 C.ar    1  UNL1        0.0578
     25 C         -21.2454   -8.8164  -14.7332 C.ar    1  UNL1        0.0077
     26 C         -22.2013   -7.8840  -14.3252 C.ar    1  UNL1        0.0343
     27 C         -23.5104   -7.9809  -14.8154 C.ar    1  UNL1        0.1317
     28 N         -23.8274   -8.9811  -15.6845 N.ar    1  UNL1       -0.1969
     29 C         -22.3272  -11.8405  -17.5190 C.3     1  UNL1        0.2542
     30 O         -23.2713  -10.9200  -16.9843 O.3     1  UNL1       -0.4561
@<TRIPOS>BOND
     1    29    30    1
     2    30    23    1
     3    23    24   ar
     4    24    25   ar
     5    25    26   ar
     6    26    27   ar
     7    27    21    1
     8    21    20    1
     9    20    18    1
    10    18    19    1
    11    18    17    1
    12    17     1    1
    13     1     2   ar
    14     2     3   ar
    15     3     4   ar
    16     4     5   ar
    17     5     6    1
    18     5     7   ar
    19     7     8   ar
    20     8     9   ar
    21     9    10   ar
    22    10    11    1
    23    10    12   ar
    24    12    13    1
    25    12    14   ar
    26    14    15   ar
    27    15    16   ar
    28    27    28   ar
    29    28    23   ar
    30    16     1   ar
    31     8     2   ar
    32    16     9   ar
    33    21    22    1
@<TRIPOS>MOLECULE
*****
 30 33 0 0 0
SMALL
GASTEIGER

@<TRIPOS>ATOM
      1 N         -24.5932  -10.0092  -12.3458 N.ar    1  UNL1       -0.3243
      2 C         -24.6388  -11.0888  -13.1634 C.ar    1  UNL1        0.0600
      3 C         -25.7001  -11.4953  -13.9809 C.ar    1  UNL1        0.0177
      4 C         -25.5421  -12.6599  -14.7472 C.ar    1  UNL1        0.0082
      5 C         -24.3434  -13.3975  -14.6890 C.ar    1  UNL1        0.0347
      6 BR        -24.1525  -14.9805  -15.7400 Br      1  UNL1       -0.0490
      7 C         -23.2885  -12.9789  -13.8600 C.ar    1  UNL1        0.0082
      8 C         -23.4607  -11.8150  -13.1014 C.ar    1  UNL1        0.0182
      9 C         -22.6388  -11.1542  -12.1932 C.ar    1  UNL1        0.0239
     10 C         -21.3398  -11.4039  -11.7068 C.ar    1  UNL1        0.0422
     11 BR        -20.2863  -12.9023  -12.2840 Br      1  UNL1       -0.0484
     12 C         -20.8107  -10.4990  -10.7550 C.ar    1  UNL1        0.0409
     13 BR        -19.0560  -10.7268  -10.0160 Br      1  UNL1       -0.0485
     14 C         -21.5685   -9.3940  -10.3193 C.ar    1  UNL1        0.0087
     15 C         -22.8572   -9.1665  -10.8171 C.ar    1  UNL1        0.0177
     16 C         -23.3736  -10.0612  -11.7564 C.ar    1  UNL1        0.0605
     17 C         -25.6513   -9.0197  -12.1011 C.3     1  UNL1        0.1429
     18 C         -26.0221   -8.2656  -13.3864 C.3     1  UNL1        0.2027
     19 F         -27.3672   -7.9430  -13.3339 F       1  UNL1       -0.2334
     20 C         -25.1867   -6.9903  -13.5677 C.3     1  UNL1        0.1259
     21 N         -24.4254   -7.0461  -14.8150 N.pl3   1  UNL1       -0.3157
     22 H         -24.6475   -6.3445  -15.5576 H       1  UNL1        0.1483
     23 C         -22.7628  -10.0327  -16.2143 C.ar    1  UNL1        0.2261
     24 C         -21.5114   -9.9921  -15.5941 C.ar    1  UNL1        0.0578
     25 C         -21.2226   -8.9580  -14.7019 C.ar    1  UNL1        0.0077
     26 C         -22.1818   -7.9784  -14.4374 C.ar    1  UNL1        0.0343
     27 C         -23.4284   -8.0462  -15.0735 C.ar    1  UNL1        0.1317
     28 N         -23.6823   -9.0649  -15.9419 N.ar    1  UNL1       -0.1969
     29 C         -22.1347  -12.1093  -17.4043 C.3     1  UNL1        0.2542
     30 O         -23.0569  -11.0674  -17.1067 O.3     1  UNL1       -0.4561
@<TRIPOS>BOND
     1    29    30    1
     2    30    23    1
     3    23    24   ar
     4    24    25   ar
     5    25    26   ar
     6    26    27   ar
     7    27    21    1
     8    21    20    1
     9    20    18    1
    10    18    19    1
    11    18    17    1
    12    17     1    1
    13     1     2   ar
    14     2     3   ar
    15     3     4   ar
    16     4     5   ar
    17     5     6    1
    18     5     7   ar
    19     7     8   ar
    20     8     9   ar
    21     9    10   ar
    22    10    11    1
    23    10    12   ar
    24    12    13    1
    25    12    14   ar
    26    14    15   ar
    27    15    16   ar
    28    27    28   ar
    29    28    23   ar
    30    16     1   ar
    31     8     2   ar
    32    16     9   ar
    33    21    22    1
@<TRIPOS>MOLECULE
*****
 30 33 0 0 0
SMALL
GASTEIGER

@<TRIPOS>ATOM
      1 N         -24.5854   -9.6855  -11.6423 N.ar    1  UNL1       -0.3243
      2 C         -23.3552   -9.6734  -11.0744 C.ar    1  UNL1        0.0600
      3 C         -22.9139   -8.8748  -10.0126 C.ar    1  UNL1        0.0177
      4 C         -21.5860   -9.0145   -9.5816 C.ar    1  UNL1        0.0082
      5 C         -20.7238   -9.9360  -10.2076 C.ar    1  UNL1        0.0347
      6 BR        -18.9200  -10.1069   -9.6044 Br      1  UNL1       -0.0490
      7 C         -21.1805  -10.7275  -11.2753 C.ar    1  UNL1        0.0082
      8 C         -22.5078  -10.5772  -11.6942 C.ar    1  UNL1        0.0182
      9 C         -23.2492  -11.1817  -12.7051 C.ar    1  UNL1        0.0239
     10 C         -22.9461  -12.1629  -13.6705 C.ar    1  UNL1        0.0422
     11 BR        -21.2184  -12.9912  -13.8007 Br      1  UNL1       -0.0484
     12 C         -23.9737  -12.5377  -14.5696 C.ar    1  UNL1        0.0409
     13 BR        -23.6895  -13.8602  -15.9286 Br      1  UNL1       -0.0485
     14 C         -25.2476  -11.9411  -14.4897 C.ar    1  UNL1        0.0087
     15 C         -25.5250  -10.9683  -13.5217 C.ar    1  UNL1        0.0177
     16 C         -24.5086  -10.6035  -12.6368 C.ar    1  UNL1        0.0605
     17 C         -25.7440   -8.8498  -11.2988 C.3     1  UNL1        0.1429
     18 C         -26.4716   -8.3551  -12.5572 C.3     1  UNL1        0.2027
     19 F         -27.8220   -8.2510  -12.2716 F       1  UNL1       -0.2334
     20 C         -25.9344   -6.9996  -13.0382 C.3     1  UNL1        0.1259
     21 N         -25.0960   -7.1691  -14.2244 N.pl3   1  UNL1       -0.3157
     22 H         -25.5482   -7.0769  -15.1625 H       1  UNL1        0.1483
     23 C         -21.5944   -7.2735  -13.0541 C.ar    1  UNL1        0.2261
     24 C         -20.9981   -8.1312  -13.9821 C.ar    1  UNL1        0.0578
     25 C         -21.7737   -8.6780  -15.0059 C.ar    1  UNL1        0.0077
     26 C         -23.1315   -8.3645  -15.0943 C.ar    1  UNL1        0.0343
     27 C         -23.7012   -7.5003  -14.1499 C.ar    1  UNL1        0.1317
     28 N         -22.9214   -6.9833  -13.1594 N.ar    1  UNL1       -0.1969
     29 C         -21.2406   -5.5903  -11.2752 C.3     1  UNL1        0.2542
     30 O         -20.8212   -6.7221  -12.0286 O.3     1  UNL1       -0.4561
@<TRIPOS>BOND
     1    29    30    1
     2    30    23    1
     3    23    24   ar
     4    24    25   ar
     5    25    26   ar
     6    26    27   ar
     7    27    21    1
     8    21    20    1
     9    20    18    1
    10    18    19    1
    11    18    17    1
    12    17     1    1
    13     1     2   ar
    14     2     3   ar
    15     3     4   ar
    16     4     5   ar
    17     5     6    1
    18     5     7   ar
    19     7     8   ar
    20     8     9   ar
    21     9    10   ar
    22    10    11    1
    23    10    12   ar
    24    12    13    1
    25    12    14   ar
    26    14    15   ar
    27    15    16   ar
    28    27    28   ar
    29    28    23   ar
    30    16     1   ar
    31     8     2   ar
    32    16     9   ar
    33    21    22    1
@<TRIPOS>MOLECULE
*****
 30 33 0 0 0
SMALL
GASTEIGER

@<TRIPOS>ATOM
      1 N         -21.4476  -10.8376  -11.0729 N.ar    1  UNL1       -0.3243
      2 C         -22.6048  -10.2385  -10.7012 C.ar    1  UNL1        0.0600
      3 C         -22.8100   -9.3806   -9.6140 C.ar    1  UNL1        0.0177
      4 C         -24.1008   -8.8739   -9.4001 C.ar    1  UNL1        0.0082
      5 C         -25.1591   -9.2255  -10.2608 C.ar    1  UNL1        0.0347
      6 BR        -26.9078   -8.5246   -9.9481 Br      1  UNL1       -0.0490
      7 C         -24.9380  -10.0914  -11.3454 C.ar    1  UNL1        0.0082
      8 C         -23.6450  -10.5888  -11.5463 C.ar    1  UNL1        0.0182
      9 C         -23.1075  -11.4561  -12.4928 C.ar    1  UNL1        0.0239
     10 C         -23.6561  -12.1459  -13.5927 C.ar    1  UNL1        0.0422
     11 BR        -25.5058  -12.0028  -14.0890 Br      1  UNL1       -0.0484
     12 C         -22.7885  -12.9715  -14.3481 C.ar    1  UNL1        0.0409
     13 BR        -23.4110  -13.9624  -15.8670 Br      1  UNL1       -0.0485
     14 C         -21.4286  -13.0892  -13.9992 C.ar    1  UNL1        0.0087
     15 C         -20.9063  -12.3938  -12.9020 C.ar    1  UNL1        0.0177
     16 C         -21.7658  -11.5802  -12.1615 C.ar    1  UNL1        0.0605
     17 C         -20.1372  -10.7519  -10.4141 C.3     1  UNL1        0.1429
     18 C         -19.7195   -9.2923  -10.1840 C.3     1  UNL1        0.2027
     19 F         -18.5691   -9.2807   -9.4142 F       1  UNL1       -0.2334
     20 C         -19.4709   -8.5490  -11.5042 C.3     1  UNL1        0.1259
     21 N         -20.5435   -7.5899  -11.7654 N.pl3   1  UNL1       -0.3157
     22 H         -20.5852   -6.7275  -11.1759 H       1  UNL1        0.1483
     23 C         -22.2529   -8.8594  -14.7834 C.ar    1  UNL1        0.2261
     24 C         -23.5073   -8.2509  -14.6905 C.ar    1  UNL1        0.0578
     25 C         -23.7823   -7.4104  -13.6103 C.ar    1  UNL1        0.0077
     26 C         -22.8066   -7.1853  -12.6372 C.ar    1  UNL1        0.0343
     27 C         -21.5574   -7.8084  -12.7580 C.ar    1  UNL1        0.1317
     28 N         -21.3172   -8.6261  -13.8209 N.ar    1  UNL1       -0.1969
     29 C         -22.9670  -10.1089  -16.7962 C.3     1  UNL1        0.2542
     30 O         -21.9726   -9.7000  -15.8642 O.3     1  UNL1       -0.4561
@<TRIPOS>BOND
     1    29    30    1
     2    30    23    1
     3    23    24   ar
     4    24    25   ar
     5    25    26   ar
     6    26    27   ar
     7    27    21    1
     8    21    20    1
     9    20    18    1
    10    18    19    1
    11    18    17    1
    12    17     1    1
    13     1     2   ar
    14     2     3   ar
    15     3     4   ar
    16     4     5   ar
    17     5     6    1
    18     5     7   ar
    19     7     8   ar
    20     8     9   ar
    21     9    10   ar
    22    10    11    1
    23    10    12   ar
    24    12    13    1
    25    12    14   ar
    26    14    15   ar
    27    15    16   ar
    28    27    28   ar
    29    28    23   ar
    30    16     1   ar
    31     8     2   ar
    32    16     9   ar
    33    21    22    1
