@<TRIPOS>MOLECULE
*****
 54 60 0 0 0
SMALL
GASTEIGER

@<TRIPOS>ATOM
      1 C          60.6495   84.5410    9.1670 C.ar    1  UNL1        0.0481
      2 C          59.2528   84.6695    9.1788 C.ar    1  UNL1        0.0176
      3 C          58.4489   83.7091    8.5589 C.ar    1  UNL1        0.0382
      4 C          59.0202   82.6004    7.9235 C.ar    1  UNL1        0.1388
      5 C          60.4249   82.4786    7.8989 C.ar    1  UNL1        0.0382
      6 C          61.2284   83.4375    8.5208 C.ar    1  UNL1        0.0176
      7 N          62.5920   87.6510   11.2130 N.pl3   1  UNL1       -0.3041
      8 C          62.0043   87.9256    9.8967 C.3     1  UNL1        0.1122
      9 C          62.0124   86.6548    9.0463 C.3     1  UNL1        0.1122
     10 N          61.4735   85.5273    9.8167 N.pl3   1  UNL1       -0.3041
     11 C          62.0597   85.2545   11.1347 C.3     1  UNL1        0.1122
     12 C          62.0506   86.5257   11.9841 C.3     1  UNL1        0.1122
     13 C          65.0814   90.5251   13.1309 C.ar    1  UNL1        0.0726
     14 C          65.1975   90.2871   11.7537 C.ar    1  UNL1        0.0191
     15 C          64.3813   89.3487   11.1223 C.ar    1  UNL1        0.0160
     16 C          63.4294   88.6292   11.8574 C.ar    1  UNL1        0.0481
     17 C          63.2952   88.8747   13.2317 C.ar    1  UNL1        0.0188
     18 C          64.0952   89.8336   13.8769 C.ar    1  UNL1        0.0522
     19 N          67.6628   92.2593   14.9766 N.ar    1  UNL1       -0.2024
     20 N          67.2073   93.2503   14.2216 N.ar    1  UNL1       -0.1442
     21 C          66.2114   92.7296   13.4707 C.ar    1  UNL1        0.2073
     22 N          66.0079   91.4259   13.7572 N.ar    1  UNL1       -0.2397
     23 C          66.9396   91.1622   14.6903 C.ar    1  UNL1        0.3522
     24 O          67.1224   90.0303   15.2151 O.2     1  UNL1       -0.2444
     25 C          68.7190   92.3956   15.9842 C.3     1  UNL1        0.1099
     26 C          69.2092   93.8479   16.0078 C.3     1  UNL1        0.0265
     27 C          70.0463   91.1463   14.1882 C.3     1  UNL1        0.0021
     28 C          69.8584   91.3999   15.6841 C.3     1  UNL1        0.0245
     29 C          63.8387   90.1146   15.3091 C.2     1  UNL1        0.1749
     30 C          63.1651   89.1172   16.2020 C.3     1  UNL1        0.0773
     31 O          64.2300   91.2050   15.8057 O.2     1  UNL1       -0.2913
     32 O          58.1528   81.6665    7.3285 O.3     1  UNL1       -0.4727
     33 C          57.5908   80.5086    7.9525 C.3     1  UNL1        0.2374
     34 C          58.5073   79.9736    9.0626 C.3     1  UNL1        0.1909
     35 C          57.8430   78.9868    9.9828 C.3     1  UNL1        0.1783
     36 O          58.2468   79.3151   11.2722 O.3     1  UNL1       -0.3271
     37 C          58.7846   80.6202   11.2088 C.3     1  UNL1        0.2232
     38 O          58.9301   81.0325    9.8624 O.3     1  UNL1       -0.3258
     39 C          60.1458   80.6376   11.9098 C.ar    1  UNL1        0.0404
     40 C          61.2061   81.3975   11.3665 C.ar    1  UNL1        0.0021
     41 C          62.4507   81.4487   11.9964 C.ar    1  UNL1        0.0113
     42 C          62.6616   80.7598   13.1895 C.ar    1  UNL1        0.0585
     43 CL         64.2267   80.8294   13.9789 Cl      1  UNL1       -0.0822
     44 C          61.6220   80.0269   13.7622 C.ar    1  UNL1        0.0226
     45 C          60.3669   79.9659   13.1437 C.ar    1  UNL1        0.0591
     46 CL         59.1087   79.0562   13.9795 Cl      1  UNL1       -0.0824
     47 C          57.8416   81.6208   11.9135 C.3     1  UNL1        0.1338
     48 N          58.5106   82.9306   12.0956 N.3     1  UNL1       -0.2659
     49 C          59.1938   83.0161   13.4057 C.3     1  UNL1        0.0898
     50 C          59.5210   84.4707   13.7582 C.3     1  UNL1        0.0897
     51 N          58.2891   85.2804   13.9136 N.3     1  UNL1       -0.2691
     52 C          58.5689   86.6999   13.6451 C.3     1  UNL1        0.0897
     53 C          57.1482   84.7911   13.1008 C.3     1  UNL1        0.0897
     54 C          57.6115   84.0824   11.8179 C.3     1  UNL1        0.0898
@<TRIPOS>BOND
     1    27    28    1
     2    28    25    1
     3    25    26    1
     4    25    19    1
     5    19    20   ar
     6    20    21   ar
     7    21    22   ar
     8    22    13    1
     9    13    14   ar
    10    14    15   ar
    11    15    16   ar
    12    16     7    1
    13     7     8    1
    14     8     9    1
    15     9    10    1
    16    10     1    1
    17     1     2   ar
    18     2     3   ar
    19     3     4   ar
    20     4    32    1
    21    32    33    1
    22    33    34    1
    23    34    35    1
    24    35    36    1
    25    36    37    1
    26    37    47    1
    27    47    48    1
    28    48    49    1
    29    49    50    1
    30    50    51    1
    31    51    52    1
    32    51    53    1
    33    53    54    1
    34    37    39    1
    35    39    40   ar
    36    40    41   ar
    37    41    42   ar
    38    42    43    1
    39    42    44   ar
    40    44    45   ar
    41    45    46    1
    42    37    38    1
    43     4     5   ar
    44     5     6   ar
    45    10    11    1
    46    11    12    1
    47    16    17   ar
    48    17    18   ar
    49    18    29    1
    50    29    30    1
    51    29    31    2
    52    22    23   ar
    53    23    24    2
    54    23    19   ar
    55    18    13   ar
    56    12     7    1
    57     6     1   ar
    58    38    34    1
    59    54    48    1
    60    45    39   ar
@<TRIPOS>MOLECULE
*****
 54 60 0 0 0
SMALL
GASTEIGER

@<TRIPOS>ATOM
      1 C          60.6472   87.0635   10.7421 C.ar    1  UNL1        0.0481
      2 C          61.9021   87.0247   11.3678 C.ar    1  UNL1        0.0176
      3 C          62.0838   86.2907   12.5430 C.ar    1  UNL1        0.0382
      4 C          61.0227   85.5765   13.1116 C.ar    1  UNL1        0.1388
      5 C          59.7576   85.6273   12.4908 C.ar    1  UNL1        0.0382
      6 C          59.5765   86.3591   11.3144 C.ar    1  UNL1        0.0176
      7 N          60.4318   88.8735    6.9593 N.pl3   1  UNL1       -0.3041
      8 C          61.6568   89.0294    7.7522 C.3     1  UNL1        0.1122
      9 C          61.3242   88.9704    9.2435 C.3     1  UNL1        0.1122
     10 N          60.4673   87.8121    9.5251 N.pl3   1  UNL1       -0.3041
     11 C          59.2433   87.6549    8.7300 C.3     1  UNL1        0.1122
     12 C          59.5772   87.7136    7.2391 C.3     1  UNL1        0.1122
     13 C          59.8750   91.0981    3.3709 C.ar    1  UNL1        0.0726
     14 C          58.8007   90.8722    4.2437 C.ar    1  UNL1        0.0191
     15 C          58.9808   90.1467    5.4212 C.ar    1  UNL1        0.0160
     16 C          60.2424   89.6330    5.7507 C.ar    1  UNL1        0.0481
     17 C          61.3254   89.8702    4.8917 C.ar    1  UNL1        0.0188
     18 C          61.1636   90.6190    3.7131 C.ar    1  UNL1        0.0522
     19 N          59.0255   92.1960    0.0316 N.ar    1  UNL1       -0.2024
     20 N          59.3015   93.3625    0.5996 N.ar    1  UNL1       -0.1442
     21 C          59.6485   93.0906    1.8773 C.ar    1  UNL1        0.2073
     22 N          59.6239   91.7632    2.1232 N.ar    1  UNL1       -0.2397
     23 C          59.2177   91.2368    0.9544 C.ar    1  UNL1        0.3522
     24 O          59.0255   90.0065    0.7553 O.2     1  UNL1       -0.2444
     25 C          58.6522   92.0206   -1.3752 C.3     1  UNL1        0.1099
     26 C          58.3872   93.3943   -2.0018 C.3     1  UNL1        0.0265
     27 C          56.1425   91.8307   -1.8377 C.3     1  UNL1        0.0021
     28 C          57.4288   91.0865   -1.4782 C.3     1  UNL1        0.0245
     29 C          62.3651   90.9159    2.8983 C.2     1  UNL1        0.1749
     30 C          62.2788   91.1584    1.4219 C.3     1  UNL1        0.0773
     31 O          63.4886   91.0069    3.4623 O.2     1  UNL1       -0.2913
     32 O          61.2773   84.8505   14.2893 O.3     1  UNL1       -0.4727
     33 C          62.3789   83.9690   14.5246 C.3     1  UNL1        0.2374
     34 C          62.1505   82.6025   13.8621 C.3     1  UNL1        0.1909
     35 C          63.2193   82.2124   12.8785 C.3     1  UNL1        0.1783
     36 O          62.5650   81.6641   11.7809 O.3     1  UNL1       -0.3271
     37 C          61.2074   82.0407   11.8882 C.3     1  UNL1        0.2232
     38 O          60.9535   82.6287   13.1507 O.3     1  UNL1       -0.3258
     39 C          60.3260   80.8025   11.7026 C.ar    1  UNL1        0.0404
     40 C          60.9169   79.5634   11.3673 C.ar    1  UNL1        0.0021
     41 C          60.1397   78.4141   11.2135 C.ar    1  UNL1        0.0113
     42 C          58.7606   78.4691   11.4075 C.ar    1  UNL1        0.0585
     43 CL         57.7884   77.0215   11.2157 Cl      1  UNL1       -0.0822
     44 C          58.1569   79.6737   11.7686 C.ar    1  UNL1        0.0226
     45 C          58.9222   80.8358   11.9281 C.ar    1  UNL1        0.0591
     46 CL         58.0669   82.2910   12.4381 Cl      1  UNL1       -0.0824
     47 C          60.8539   83.0790   10.8001 C.3     1  UNL1        0.1338
     48 N          61.7145   82.8999    9.6070 N.3     1  UNL1       -0.2659
     49 C          62.5087   84.1155    9.3205 C.3     1  UNL1        0.0898
     50 C          63.0668   84.0809    7.8941 C.3     1  UNL1        0.0897
     51 N          61.9793   84.0862    6.8870 N.3     1  UNL1       -0.2691
     52 C          62.4344   83.4614    5.6348 C.3     1  UNL1        0.0897
     53 C          60.7174   83.4726    7.3697 C.3     1  UNL1        0.0897
     54 C          60.9681   82.3861    8.4276 C.3     1  UNL1        0.0898
@<TRIPOS>BOND
     1    27    28    1
     2    28    25    1
     3    25    26    1
     4    25    19    1
     5    19    20   ar
     6    20    21   ar
     7    21    22   ar
     8    22    13    1
     9    13    14   ar
    10    14    15   ar
    11    15    16   ar
    12    16     7    1
    13     7     8    1
    14     8     9    1
    15     9    10    1
    16    10     1    1
    17     1     2   ar
    18     2     3   ar
    19     3     4   ar
    20     4    32    1
    21    32    33    1
    22    33    34    1
    23    34    35    1
    24    35    36    1
    25    36    37    1
    26    37    47    1
    27    47    48    1
    28    48    49    1
    29    49    50    1
    30    50    51    1
    31    51    52    1
    32    51    53    1
    33    53    54    1
    34    37    39    1
    35    39    40   ar
    36    40    41   ar
    37    41    42   ar
    38    42    43    1
    39    42    44   ar
    40    44    45   ar
    41    45    46    1
    42    37    38    1
    43     4     5   ar
    44     5     6   ar
    45    10    11    1
    46    11    12    1
    47    16    17   ar
    48    17    18   ar
    49    18    29    1
    50    29    30    1
    51    29    31    2
    52    22    23   ar
    53    23    24    2
    54    23    19   ar
    55    18    13   ar
    56    12     7    1
    57     6     1   ar
    58    38    34    1
    59    54    48    1
    60    45    39   ar
@<TRIPOS>MOLECULE
*****
 54 60 0 0 0
SMALL
GASTEIGER

@<TRIPOS>ATOM
      1 C          58.3882   83.6709   10.6687 C.ar    1  UNL1        0.0481
      2 C          58.4032   82.3276   10.2649 C.ar    1  UNL1        0.0176
      3 C          58.2232   81.3057   11.2009 C.ar    1  UNL1        0.0382
      4 C          58.0172   81.6026   12.5532 C.ar    1  UNL1        0.1388
      5 C          58.0166   82.9524   12.9616 C.ar    1  UNL1        0.0382
      6 C          58.1941   83.9741   12.0254 C.ar    1  UNL1        0.0176
      7 N          59.3986   86.5460    7.7799 N.pl3   1  UNL1       -0.3041
      8 C          59.8972   86.7107    9.1502 C.3     1  UNL1        0.1122
      9 C          58.9213   86.0745   10.1406 C.3     1  UNL1        0.1122
     10 N          58.5630   84.7210    9.6989 N.pl3   1  UNL1       -0.3041
     11 C          58.0668   84.5561    8.3271 C.3     1  UNL1        0.1122
     12 C          59.0436   85.1922    7.3378 C.3     1  UNL1        0.1122
     13 C          59.8699   89.6835    4.9393 C.ar    1  UNL1        0.0726
     14 C          60.9100   88.7726    5.1746 C.ar    1  UNL1        0.0191
     15 C          60.7573   87.7421    6.1021 C.ar    1  UNL1        0.0160
     16 C          59.5577   87.6010    6.8129 C.ar    1  UNL1        0.0481
     17 C          58.5067   88.4972    6.5698 C.ar    1  UNL1        0.0188
     18 C          58.6382   89.5266    5.6217 C.ar    1  UNL1        0.0522
     19 N          60.9694   92.1147    2.4983 N.ar    1  UNL1       -0.2024
     20 N          59.8022   92.6409    2.8450 N.ar    1  UNL1       -0.1442
     21 C          59.2757   91.8168    3.7781 C.ar    1  UNL1        0.2073
     22 N          60.1051   90.7868    4.0507 N.ar    1  UNL1       -0.2397
     23 C          61.1452   90.9965    3.2246 C.ar    1  UNL1        0.3522
     24 O          62.1459   90.2350    3.1309 O.2     1  UNL1       -0.2444
     25 C          61.9048   92.7160    1.5430 C.3     1  UNL1        0.1099
     26 C          61.8673   91.9218    0.2323 C.3     1  UNL1        0.0265
     27 C          64.4146   92.4067    1.1508 C.3     1  UNL1        0.0021
     28 C          63.3195   92.7631    2.1565 C.3     1  UNL1        0.0245
     29 C          57.4594   90.3796    5.3420 C.2     1  UNL1        0.1749
     30 C          56.1340   89.7951    4.9574 C.3     1  UNL1        0.0773
     31 O          57.5566   91.6301    5.4667 O.2     1  UNL1       -0.2913
     32 O          57.8327   80.5265   13.4401 O.3     1  UNL1       -0.4727
     33 C          58.7728   79.4865   13.7240 C.3     1  UNL1        0.2374
     34 C          60.0578   79.6569   12.9006 C.3     1  UNL1        0.1909
     35 C          61.2514   78.9432   13.4734 C.3     1  UNL1        0.1783
     36 O          62.3269   79.8169   13.3582 O.3     1  UNL1       -0.3271
     37 C          61.7842   81.0978   13.1111 C.3     1  UNL1        0.2232
     38 O          60.3963   81.0067   12.8473 O.3     1  UNL1       -0.3258
     39 C          62.5027   81.7257   11.9135 C.ar    1  UNL1        0.0404
     40 C          61.7524   82.3576   10.8964 C.ar    1  UNL1        0.0021
     41 C          62.3827   82.9571    9.8046 C.ar    1  UNL1        0.0113
     42 C          63.7733   82.9565    9.7105 C.ar    1  UNL1        0.0585
     43 CL         64.5609   83.7135    8.3380 Cl      1  UNL1       -0.0822
     44 C          64.5378   82.3658   10.7167 C.ar    1  UNL1        0.0226
     45 C          63.9213   81.7609   11.8193 C.ar    1  UNL1        0.0591
     46 CL         64.9819   81.0920   13.0591 Cl      1  UNL1       -0.0824
     47 C          61.9751   82.0058   14.3464 C.3     1  UNL1        0.1338
     48 N          62.0005   83.4329   13.9478 N.3     1  UNL1       -0.2659
     49 C          63.2801   84.0790   14.3161 C.3     1  UNL1        0.0898
     50 C          63.1519   85.6053   14.2827 C.3     1  UNL1        0.0897
     51 N          62.1744   86.0887   15.2867 N.3     1  UNL1       -0.2691
     52 C          61.6093   87.3829   14.8733 C.3     1  UNL1        0.0897
     53 C          61.1061   85.1072   15.5985 C.3     1  UNL1        0.0897
     54 C          60.8017   84.1832   14.4084 C.3     1  UNL1        0.0898
@<TRIPOS>BOND
     1    27    28    1
     2    28    25    1
     3    25    26    1
     4    25    19    1
     5    19    20   ar
     6    20    21   ar
     7    21    22   ar
     8    22    13    1
     9    13    14   ar
    10    14    15   ar
    11    15    16   ar
    12    16     7    1
    13     7     8    1
    14     8     9    1
    15     9    10    1
    16    10     1    1
    17     1     2   ar
    18     2     3   ar
    19     3     4   ar
    20     4    32    1
    21    32    33    1
    22    33    34    1
    23    34    35    1
    24    35    36    1
    25    36    37    1
    26    37    47    1
    27    47    48    1
    28    48    49    1
    29    49    50    1
    30    50    51    1
    31    51    52    1
    32    51    53    1
    33    53    54    1
    34    37    39    1
    35    39    40   ar
    36    40    41   ar
    37    41    42   ar
    38    42    43    1
    39    42    44   ar
    40    44    45   ar
    41    45    46    1
    42    37    38    1
    43     4     5   ar
    44     5     6   ar
    45    10    11    1
    46    11    12    1
    47    16    17   ar
    48    17    18   ar
    49    18    29    1
    50    29    30    1
    51    29    31    2
    52    22    23   ar
    53    23    24    2
    54    23    19   ar
    55    18    13   ar
    56    12     7    1
    57     6     1   ar
    58    38    34    1
    59    54    48    1
    60    45    39   ar
@<TRIPOS>MOLECULE
*****
 54 60 0 0 0
SMALL
GASTEIGER

@<TRIPOS>ATOM
      1 C          60.8356   83.9419    9.6064 C.ar    1  UNL1        0.0481
      2 C          62.0577   83.2711    9.7618 C.ar    1  UNL1        0.0176
      3 C          62.1807   82.2305   10.6865 C.ar    1  UNL1        0.0382
      4 C          61.0883   81.8343   11.4668 C.ar    1  UNL1        0.1388
      5 C          59.8637   82.5183   11.3213 C.ar    1  UNL1        0.0382
      6 C          59.7401   83.5568   10.3949 C.ar    1  UNL1        0.0176
      7 N          60.1851   87.3041    7.1765 N.pl3   1  UNL1       -0.3041
      8 C          59.0918   86.3441    7.3676 C.3     1  UNL1        0.1122
      9 C          59.6617   84.9475    7.6187 C.3     1  UNL1        0.1122
     10 N          60.7104   85.0061    8.6444 N.pl3   1  UNL1       -0.3041
     11 C          61.8026   85.9686    8.4544 C.3     1  UNL1        0.1122
     12 C          61.2316   87.3645    8.2038 C.3     1  UNL1        0.1122
     13 C          59.8430   90.4424    4.3183 C.ar    1  UNL1        0.0726
     14 C          60.9997   89.6514    4.3736 C.ar    1  UNL1        0.0191
     15 C          61.1133   88.6208    5.3066 C.ar    1  UNL1        0.0160
     16 C          60.0688   88.3593    6.2037 C.ar    1  UNL1        0.0481
     17 C          58.9016   89.1345    6.1424 C.ar    1  UNL1        0.0188
     18 C          58.7641   90.1615    5.1926 C.ar    1  UNL1        0.0522
     19 N          59.6195   92.7979    1.5834 N.ar    1  UNL1       -0.2024
     20 N          59.7046   93.6353    2.6087 N.ar    1  UNL1       -0.1442
     21 C          59.8027   92.8694    3.7180 C.ar    1  UNL1        0.2073
     22 N          59.8089   91.5547    3.4106 N.ar    1  UNL1       -0.2397
     23 C          59.6790   91.5464    2.0722 C.ar    1  UNL1        0.3522
     24 O          59.6052   90.5019    1.3697 O.2     1  UNL1       -0.2444
     25 C          59.5485   93.2055    0.1770 C.3     1  UNL1        0.1099
     26 C          58.2545   92.6631   -0.4407 C.3     1  UNL1        0.0265
     27 C          62.0602   93.5055   -0.2093 C.3     1  UNL1        0.0021
     28 C          60.8038   92.7140   -0.5730 C.3     1  UNL1        0.0245
     29 C          57.4702   90.8796    5.1158 C.2     1  UNL1        0.1749
     30 C          56.1978   90.1787    4.7470 C.3     1  UNL1        0.0773
     31 O          57.4245   92.1055    5.4052 O.2     1  UNL1       -0.2913
     32 O          61.2784   80.7733   12.3705 O.3     1  UNL1       -0.4727
     33 C          61.9887   80.8284   13.6109 C.3     1  UNL1        0.2374
     34 C          62.7018   82.1773   13.7853 C.3     1  UNL1        0.1909
     35 C          63.1363   82.4625   15.1966 C.3     1  UNL1        0.1783
     36 O          62.8321   83.7969   15.4416 O.3     1  UNL1       -0.3271
     37 C          61.9308   84.1997   14.4307 C.3     1  UNL1        0.2232
     38 O          61.8358   83.2071   13.4259 O.3     1  UNL1       -0.3258
     39 C          62.4172   85.5165   13.8191 C.ar    1  UNL1        0.0404
     40 C          62.2265   85.7636   12.4409 C.ar    1  UNL1        0.0021
     41 C          62.6404   86.9642   11.8615 C.ar    1  UNL1        0.0113
     42 C          63.2364   87.9517   12.6440 C.ar    1  UNL1        0.0585
     43 CL         63.7524   89.4600   11.9117 Cl      1  UNL1       -0.0822
     44 C          63.4087   87.7443   14.0126 C.ar    1  UNL1        0.0226
     45 C          62.9980   86.5458   14.6100 C.ar    1  UNL1        0.0591
     46 CL         63.2134   86.4091   16.3547 Cl      1  UNL1       -0.0824
     47 C          60.5208   84.4107   15.0260 C.3     1  UNL1        0.1338
     48 N          59.6901   85.2404   14.1217 N.3     1  UNL1       -0.2659
     49 C          59.4035   86.5679   14.7101 C.3     1  UNL1        0.0898
     50 C          58.2377   87.2477   13.9847 C.3     1  UNL1        0.0897
     51 N          56.9803   86.4784   14.1412 N.3     1  UNL1       -0.2691
     52 C          56.0682   86.7494   13.0187 C.3     1  UNL1        0.0897
     53 C          57.1924   85.0215   14.3259 C.3     1  UNL1        0.0897
     54 C          58.4762   84.5302   13.6379 C.3     1  UNL1        0.0898
@<TRIPOS>BOND
     1    27    28    1
     2    28    25    1
     3    25    26    1
     4    25    19    1
     5    19    20   ar
     6    20    21   ar
     7    21    22   ar
     8    22    13    1
     9    13    14   ar
    10    14    15   ar
    11    15    16   ar
    12    16     7    1
    13     7     8    1
    14     8     9    1
    15     9    10    1
    16    10     1    1
    17     1     2   ar
    18     2     3   ar
    19     3     4   ar
    20     4    32    1
    21    32    33    1
    22    33    34    1
    23    34    35    1
    24    35    36    1
    25    36    37    1
    26    37    47    1
    27    47    48    1
    28    48    49    1
    29    49    50    1
    30    50    51    1
    31    51    52    1
    32    51    53    1
    33    53    54    1
    34    37    39    1
    35    39    40   ar
    36    40    41   ar
    37    41    42   ar
    38    42    43    1
    39    42    44   ar
    40    44    45   ar
    41    45    46    1
    42    37    38    1
    43     4     5   ar
    44     5     6   ar
    45    10    11    1
    46    11    12    1
    47    16    17   ar
    48    17    18   ar
    49    18    29    1
    50    29    30    1
    51    29    31    2
    52    22    23   ar
    53    23    24    2
    54    23    19   ar
    55    18    13   ar
    56    12     7    1
    57     6     1   ar
    58    38    34    1
    59    54    48    1
    60    45    39   ar
@<TRIPOS>MOLECULE
*****
 54 60 0 0 0
SMALL
GASTEIGER

@<TRIPOS>ATOM
      1 C          61.3286   85.9462   11.7726 C.ar    1  UNL1        0.0481
      2 C          62.5893   85.4503   12.1365 C.ar    1  UNL1        0.0176
      3 C          62.7497   84.7272   13.3215 C.ar    1  UNL1        0.0382
      4 C          61.6576   84.4783   14.1609 C.ar    1  UNL1        0.1388
      5 C          60.3930   84.9893   13.8026 C.ar    1  UNL1        0.0382
      6 C          60.2322   85.7100   12.6166 C.ar    1  UNL1        0.0176
      7 N          60.3562   87.8859    8.1776 N.pl3   1  UNL1       -0.3041
      8 C          60.6720   86.4530    8.1483 C.3     1  UNL1        0.1122
      9 C          61.6418   86.1092    9.2795 C.3     1  UNL1        0.1122
     10 N          61.1659   86.6813   10.5450 N.pl3   1  UNL1       -0.3041
     11 C          60.8475   88.1141   10.5733 C.3     1  UNL1        0.1122
     12 C          59.8775   88.4565    9.4422 C.3     1  UNL1        0.1122
     13 C          59.9211   90.0983    4.5649 C.ar    1  UNL1        0.0726
     14 C          61.1195   89.4280    4.8506 C.ar    1  UNL1        0.0191
     15 C          61.2637   88.7000    6.0315 C.ar    1  UNL1        0.0160
     16 C          60.2091   88.6265    6.9515 C.ar    1  UNL1        0.0481
     17 C          59.0014   89.2793    6.6643 C.ar    1  UNL1        0.0188
     18 C          58.8340   89.9976    5.4678 C.ar    1  UNL1        0.0522
     19 N          60.3887   92.1044    1.5926 N.ar    1  UNL1       -0.2024
     20 N          59.0679   91.9816    1.5881 N.ar    1  UNL1       -0.1442
     21 C          58.7510   91.2429    2.6747 C.ar    1  UNL1        0.2073
     22 N          59.8507   90.9167    3.3870 N.ar    1  UNL1       -0.2397
     23 C          60.8552   91.4583    2.6758 C.ar    1  UNL1        0.3522
     24 O          62.0759   91.3584    2.9762 O.2     1  UNL1       -0.2444
     25 C          61.1581   92.8776    0.6131 C.3     1  UNL1        0.1099
     26 C          61.9087   91.9138   -0.3131 C.3     1  UNL1        0.0265
     27 C          63.5564   93.7359    0.8574 C.3     1  UNL1        0.0021
     28 C          62.1112   93.8455    1.3442 C.3     1  UNL1        0.0245
     29 C          57.5037   90.5833    5.1796 C.2     1  UNL1        0.1749
     30 C          56.2720   89.7356    5.0779 C.3     1  UNL1        0.0773
     31 O          57.3913   91.8324    5.0539 O.2     1  UNL1       -0.2913
     32 O          61.8872   83.7352   15.3330 O.3     1  UNL1       -0.4727
     33 C          62.8990   82.7429   15.5273 C.3     1  UNL1        0.2374
     34 C          62.5745   81.4571   14.7528 C.3     1  UNL1        0.1909
     35 C          63.6930   80.9747   13.8706 C.3     1  UNL1        0.1783
     36 O          63.1086   80.5794   12.6724 O.3     1  UNL1       -0.3271
     37 C          61.8091   81.1337   12.6527 C.3     1  UNL1        0.2232
     38 O          61.4851   81.6850   13.9156 O.3     1  UNL1       -0.3258
     39 C          60.8017   80.0401   12.2867 C.ar    1  UNL1        0.0404
     40 C          59.6278   79.8802   13.0569 C.ar    1  UNL1        0.0021
     41 C          58.6821   78.9059   12.7329 C.ar    1  UNL1        0.0113
     42 C          58.8753   78.0821   11.6253 C.ar    1  UNL1        0.0585
     43 CL         57.6828   76.8609   11.2205 Cl      1  UNL1       -0.0822
     44 C          60.0113   78.2400   10.8312 C.ar    1  UNL1        0.0226
     45 C          60.9693   79.2134   11.1418 C.ar    1  UNL1        0.0591
     46 CL         62.3394   79.3641   10.0420 Cl      1  UNL1       -0.0824
     47 C          61.7275   82.2657   11.6043 C.3     1  UNL1        0.1338
     48 N          60.6039   82.0306   10.6671 N.3     1  UNL1       -0.2659
     49 C          60.9006   82.5598    9.3171 C.3     1  UNL1        0.0898
     50 C          59.6200   82.6866    8.4856 C.3     1  UNL1        0.0897
     51 N          58.6807   83.6648    9.0839 N.3     1  UNL1       -0.2691
     52 C          57.2969   83.3577    8.6885 C.3     1  UNL1        0.0897
     53 C          58.8073   83.7879   10.5572 C.3     1  UNL1        0.0897
     54 C          59.2949   82.4838   11.2086 C.3     1  UNL1        0.0898
@<TRIPOS>BOND
     1    27    28    1
     2    28    25    1
     3    25    26    1
     4    25    19    1
     5    19    20   ar
     6    20    21   ar
     7    21    22   ar
     8    22    13    1
     9    13    14   ar
    10    14    15   ar
    11    15    16   ar
    12    16     7    1
    13     7     8    1
    14     8     9    1
    15     9    10    1
    16    10     1    1
    17     1     2   ar
    18     2     3   ar
    19     3     4   ar
    20     4    32    1
    21    32    33    1
    22    33    34    1
    23    34    35    1
    24    35    36    1
    25    36    37    1
    26    37    47    1
    27    47    48    1
    28    48    49    1
    29    49    50    1
    30    50    51    1
    31    51    52    1
    32    51    53    1
    33    53    54    1
    34    37    39    1
    35    39    40   ar
    36    40    41   ar
    37    41    42   ar
    38    42    43    1
    39    42    44   ar
    40    44    45   ar
    41    45    46    1
    42    37    38    1
    43     4     5   ar
    44     5     6   ar
    45    10    11    1
    46    11    12    1
    47    16    17   ar
    48    17    18   ar
    49    18    29    1
    50    29    30    1
    51    29    31    2
    52    22    23   ar
    53    23    24    2
    54    23    19   ar
    55    18    13   ar
    56    12     7    1
    57     6     1   ar
    58    38    34    1
    59    54    48    1
    60    45    39   ar
