@<TRIPOS>MOLECULE
*****
 35 38 0 0 0
SMALL
GASTEIGER

@<TRIPOS>ATOM
      1 N          -9.5163  -10.7198   30.1798 N.am    1  UNL1       -0.2685
      2 C         -10.0189  -12.0690   30.1806 C.2     1  UNL1        0.2673
      3 O         -10.0647  -12.7133   29.0971 O.2     1  UNL1       -0.2682
      4 C         -10.5179  -12.6860   31.4269 C.ar    1  UNL1        0.1370
      5 C         -11.6352  -13.5354   31.4183 C.ar    1  UNL1        0.0239
      6 C         -12.0918  -14.0891   32.6214 C.ar    1  UNL1        0.0053
      7 C         -13.2044  -14.9448   32.6402 C.ar    1  UNL1        0.0002
      8 C         -13.6496  -15.4900   33.8478 C.ar    1  UNL1        0.0000
      9 C         -12.9902  -15.1864   35.0419 C.ar    1  UNL1        0.0001
     10 C         -11.8812  -14.3355   35.0369 C.ar    1  UNL1        0.0038
     11 C         -11.4243  -13.7814   33.8296 C.ar    1  UNL1        0.0460
     12 C         -10.3153  -12.9232   33.7912 C.ar    1  UNL1        0.2223
     13 F          -9.6460  -12.5981   34.9259 F       1  UNL1       -0.1832
     14 N          -9.8998  -12.4044   32.6064 N.ar    1  UNL1       -0.2134
     15 C          -8.7323   -9.3646   32.1206 C.3     1  UNL1        0.0265
     16 C          -8.3589  -10.3849   31.0326 C.3     1  UNL1        0.1007
     17 C          -7.1691   -9.9786   30.1744 C.ar    1  UNL1        0.0234
     18 C          -6.7820   -8.6303   30.0205 C.ar    1  UNL1        0.0019
     19 C          -5.7121   -8.2887   29.1885 C.ar    1  UNL1        0.0295
     20 C          -5.0233   -9.2798   28.4879 C.ar    1  UNL1        0.1424
     21 F          -3.9878   -8.9442   27.6797 F       1  UNL1       -0.2041
     22 C          -5.4077  -10.6158   28.6126 C.ar    1  UNL1        0.0590
     23 C          -6.4769  -10.9666   29.4428 C.ar    1  UNL1        0.1399
     24 F          -6.8397  -12.2721   29.5264 F       1  UNL1       -0.2044
     25 C          -9.9999   -9.7948   29.1430 C.3     1  UNL1        0.1207
     26 C         -10.7002   -8.6208   29.7766 C.ar    1  UNL1       -0.0021
     27 C         -11.7719   -8.8263   30.6587 C.ar    1  UNL1       -0.0026
     28 C         -12.3857   -7.7399   31.2845 C.ar    1  UNL1       -0.0001
     29 C         -11.9312   -6.4412   31.0440 C.ar    1  UNL1        0.0064
     30 C         -10.8518   -6.2155   30.1714 C.ar    1  UNL1        0.0752
     31 C         -10.2411   -7.3146   29.5419 C.ar    1  UNL1        0.0038
     32 C         -10.3580   -4.8433   29.9215 C.2     1  UNL1        0.3380
     33 O          -9.1211   -4.6164   29.8294 O.2     1  UNL1       -0.2451
     34 O         -11.2562   -3.7879   29.7844 O.3     1  UNL1       -0.4771
     35 H         -10.9288   -2.8449   29.6123 H       1  UNL1        0.2954
@<TRIPOS>BOND
     1    15    16    1
     2    16    17    1
     3    17    18   ar
     4    18    19   ar
     5    19    20   ar
     6    20    21    1
     7    20    22   ar
     8    22    23   ar
     9    23    24    1
    10    16     1    1
    11     1    25    1
    12    25    26    1
    13    26    27   ar
    14    27    28   ar
    15    28    29   ar
    16    29    30   ar
    17    30    32    1
    18    32    33    2
    19    32    34    1
    20    30    31   ar
    21     1     2   am
    22     2     3    2
    23     2     4    1
    24     4     5   ar
    25     5     6   ar
    26     6     7   ar
    27     7     8   ar
    28     8     9   ar
    29     9    10   ar
    30    10    11   ar
    31    11    12   ar
    32    12    13    1
    33    12    14   ar
    34    23    17   ar
    35    31    26   ar
    36    14     4   ar
    37    11     6   ar
    38    34    35    1
@<TRIPOS>MOLECULE
*****
 35 38 0 0 0
SMALL
GASTEIGER

@<TRIPOS>ATOM
      1 N         -10.4807  -11.3349   32.5842 N.am    1  UNL1       -0.2685
      2 C          -9.2797  -10.7992   33.1703 C.2     1  UNL1        0.2673
      3 O          -9.2817  -10.4597   34.3851 O.2     1  UNL1       -0.2682
      4 C          -8.0641  -10.6062   32.3528 C.ar    1  UNL1        0.1370
      5 C          -8.1002   -9.8581   31.1658 C.ar    1  UNL1        0.0239
      6 C          -6.9325   -9.7103   30.4061 C.ar    1  UNL1        0.0053
      7 C          -6.9402   -8.9640   29.2173 C.ar    1  UNL1        0.0002
      8 C          -5.7679   -8.8249   28.4688 C.ar    1  UNL1        0.0000
      9 C          -4.5830   -9.4277   28.8995 C.ar    1  UNL1        0.0001
     10 C          -4.5619  -10.1737   30.0815 C.ar    1  UNL1        0.0038
     11 C          -5.7337  -10.3206   30.8423 C.ar    1  UNL1        0.0460
     12 C          -5.7458  -11.0638   32.0321 C.ar    1  UNL1        0.2223
     13 F          -4.6198  -11.6690   32.4872 F       1  UNL1       -0.1832
     14 N          -6.8965  -11.1861   32.7437 N.ar    1  UNL1       -0.2134
     15 C         -10.5196  -12.6143   30.4443 C.3     1  UNL1        0.0265
     16 C         -10.4450  -12.6806   31.9787 C.3     1  UNL1        0.1007
     17 C         -11.4955  -13.5771   32.6190 C.ar    1  UNL1        0.0234
     18 C         -12.6484  -13.9965   31.9216 C.ar    1  UNL1        0.0019
     19 C         -13.6152  -14.7825   32.5547 C.ar    1  UNL1        0.0295
     20 C         -13.4565  -15.1491   33.8918 C.ar    1  UNL1        0.1424
     21 F         -14.3979  -15.9094   34.5033 F       1  UNL1       -0.2041
     22 C         -12.3324  -14.7243   34.6017 C.ar    1  UNL1        0.0590
     23 C         -11.3600  -13.9377   33.9762 C.ar    1  UNL1        0.1399
     24 F         -10.2887  -13.5230   34.6997 F       1  UNL1       -0.2044
     25 C         -11.7525  -10.6412   32.8407 C.3     1  UNL1        0.1207
     26 C         -11.8426   -9.3908   32.0049 C.ar    1  UNL1       -0.0021
     27 C         -12.6924   -8.3419   32.3877 C.ar    1  UNL1       -0.0026
     28 C         -12.7358   -7.1636   31.6404 C.ar    1  UNL1       -0.0001
     29 C         -11.9265   -7.0171   30.5113 C.ar    1  UNL1        0.0064
     30 C         -11.0607   -8.0528   30.1175 C.ar    1  UNL1        0.0752
     31 C         -11.0254   -9.2380   30.8731 C.ar    1  UNL1        0.0038
     32 C         -10.1924   -7.8991   28.9293 C.2     1  UNL1        0.3380
     33 O          -9.3970   -6.9246   28.8411 O.2     1  UNL1       -0.2451
     34 O         -10.2447   -8.8314   27.8961 O.3     1  UNL1       -0.4771
     35 H          -9.6540   -8.7361   27.0787 H       1  UNL1        0.2954
@<TRIPOS>BOND
     1    15    16    1
     2    16    17    1
     3    17    18   ar
     4    18    19   ar
     5    19    20   ar
     6    20    21    1
     7    20    22   ar
     8    22    23   ar
     9    23    24    1
    10    16     1    1
    11     1    25    1
    12    25    26    1
    13    26    27   ar
    14    27    28   ar
    15    28    29   ar
    16    29    30   ar
    17    30    32    1
    18    32    33    2
    19    32    34    1
    20    30    31   ar
    21     1     2   am
    22     2     3    2
    23     2     4    1
    24     4     5   ar
    25     5     6   ar
    26     6     7   ar
    27     7     8   ar
    28     8     9   ar
    29     9    10   ar
    30    10    11   ar
    31    11    12   ar
    32    12    13    1
    33    12    14   ar
    34    23    17   ar
    35    31    26   ar
    36    14     4   ar
    37    11     6   ar
    38    34    35    1
@<TRIPOS>MOLECULE
*****
 35 38 0 0 0
SMALL
GASTEIGER

@<TRIPOS>ATOM
      1 N          -9.8395   -8.6037   31.2649 N.am    1  UNL1       -0.2685
      2 C         -11.0401   -9.1323   31.8583 C.2     1  UNL1        0.2673
      3 O         -12.0989   -8.4474   31.8284 O.2     1  UNL1       -0.2682
      4 C         -11.0304  -10.4455   32.5354 C.ar    1  UNL1        0.1370
      5 C         -12.0529  -11.3816   32.3161 C.ar    1  UNL1        0.0239
      6 C         -12.0213  -12.6102   32.9884 C.ar    1  UNL1        0.0053
      7 C         -13.0292  -13.5656   32.7841 C.ar    1  UNL1        0.0002
      8 C         -12.9854  -14.7872   33.4619 C.ar    1  UNL1        0.0000
      9 C         -11.9391  -15.0638   34.3459 C.ar    1  UNL1        0.0001
     10 C         -10.9293  -14.1209   34.5584 C.ar    1  UNL1        0.0038
     11 C         -10.9623  -12.8896   33.8831 C.ar    1  UNL1        0.0460
     12 C          -9.9649  -11.9219   34.0755 C.ar    1  UNL1        0.2223
     13 F          -8.9318  -12.1456   34.9263 F       1  UNL1       -0.1832
     14 N         -10.0274  -10.7412   33.4065 N.ar    1  UNL1       -0.2134
     15 C         -10.1329  -10.3759   29.5354 C.3     1  UNL1        0.0265
     16 C          -9.1755   -9.3657   30.1891 C.3     1  UNL1        0.1007
     17 C          -7.8746   -9.9725   30.6956 C.ar    1  UNL1        0.0234
     18 C          -7.7535  -10.5068   31.9961 C.ar    1  UNL1        0.0019
     19 C          -6.5312  -11.0152   32.4445 C.ar    1  UNL1        0.0295
     20 C          -5.4110  -10.9856   31.6128 C.ar    1  UNL1        0.1424
     21 F          -4.2264  -11.4772   32.0524 F       1  UNL1       -0.2041
     22 C          -5.5090  -10.4408   30.3316 C.ar    1  UNL1        0.0590
     23 C          -6.7280   -9.9300   29.8747 C.ar    1  UNL1        0.1399
     24 F          -6.7857   -9.3877   28.6315 F       1  UNL1       -0.2044
     25 C          -9.4669   -7.2122   31.5635 C.3     1  UNL1        0.1207
     26 C          -7.9990   -6.9971   31.3001 C.ar    1  UNL1       -0.0021
     27 C          -7.5652   -6.5163   30.0553 C.ar    1  UNL1       -0.0026
     28 C          -6.2099   -6.2687   29.8306 C.ar    1  UNL1       -0.0001
     29 C          -5.2771   -6.4893   30.8468 C.ar    1  UNL1        0.0064
     30 C          -5.6934   -6.9610   32.1043 C.ar    1  UNL1        0.0752
     31 C          -7.0598   -7.2116   32.3218 C.ar    1  UNL1        0.0038
     32 C          -4.7118   -7.1854   33.1885 C.2     1  UNL1        0.3380
     33 O          -3.5838   -6.6228   33.1555 O.2     1  UNL1       -0.2451
     34 O          -5.0254   -8.0206   34.2578 O.3     1  UNL1       -0.4771
     35 H          -4.3610   -8.1804   35.0056 H       1  UNL1        0.2954
@<TRIPOS>BOND
     1    15    16    1
     2    16    17    1
     3    17    18   ar
     4    18    19   ar
     5    19    20   ar
     6    20    21    1
     7    20    22   ar
     8    22    23   ar
     9    23    24    1
    10    16     1    1
    11     1    25    1
    12    25    26    1
    13    26    27   ar
    14    27    28   ar
    15    28    29   ar
    16    29    30   ar
    17    30    32    1
    18    32    33    2
    19    32    34    1
    20    30    31   ar
    21     1     2   am
    22     2     3    2
    23     2     4    1
    24     4     5   ar
    25     5     6   ar
    26     6     7   ar
    27     7     8   ar
    28     8     9   ar
    29     9    10   ar
    30    10    11   ar
    31    11    12   ar
    32    12    13    1
    33    12    14   ar
    34    23    17   ar
    35    31    26   ar
    36    14     4   ar
    37    11     6   ar
    38    34    35    1
@<TRIPOS>MOLECULE
*****
 35 38 0 0 0
SMALL
GASTEIGER

@<TRIPOS>ATOM
      1 N         -10.0811   -7.6250   30.4521 N.am    1  UNL1       -0.2685
      2 C          -9.5225   -8.4639   29.4239 C.2     1  UNL1        0.2673
      3 O         -10.2150   -8.7406   28.4065 O.2     1  UNL1       -0.2682
      4 C          -8.1674   -9.0340   29.5706 C.ar    1  UNL1        0.1370
      5 C          -7.8193   -9.7948   30.6975 C.ar    1  UNL1        0.0239
      6 C          -6.5198  -10.3054   30.8123 C.ar    1  UNL1        0.0053
      7 C          -6.1467  -11.0728   31.9270 C.ar    1  UNL1        0.0002
      8 C          -4.8466  -11.5756   32.0289 C.ar    1  UNL1        0.0000
      9 C          -3.9118  -11.3173   31.0228 C.ar    1  UNL1        0.0001
     10 C          -4.2704  -10.5544   29.9078 C.ar    1  UNL1        0.0038
     11 C          -5.5741  -10.0436   29.7940 C.ar    1  UNL1        0.0460
     12 C          -5.9648   -9.2735   28.6884 C.ar    1  UNL1        0.2223
     13 F          -5.0902   -8.9948   27.6891 F       1  UNL1       -0.1832
     14 N          -7.2336   -8.7945   28.6098 N.ar    1  UNL1       -0.2134
     15 C          -9.3672   -5.3785   29.6388 C.3     1  UNL1        0.0265
     16 C          -9.3875   -6.3726   30.8117 C.3     1  UNL1        0.1007
     17 C          -8.0164   -6.6768   31.3990 C.ar    1  UNL1        0.0234
     18 C          -7.8608   -7.2756   32.6674 C.ar    1  UNL1        0.0019
     19 C          -6.5864   -7.4994   33.1960 C.ar    1  UNL1        0.0295
     20 C          -5.4519   -7.1180   32.4785 C.ar    1  UNL1        0.1424
     21 F          -4.2174   -7.3343   32.9958 F       1  UNL1       -0.2041
     22 C          -5.5894   -6.5050   31.2322 C.ar    1  UNL1        0.0590
     23 C          -6.8605   -6.2773   30.6956 C.ar    1  UNL1        0.1399
     24 F          -6.9615   -5.6599   29.4907 F       1  UNL1       -0.2044
     25 C         -11.4473   -7.9079   30.9189 C.3     1  UNL1        0.1207
     26 C         -11.5082   -9.2704   31.5593 C.ar    1  UNL1       -0.0021
     27 C         -12.5102  -10.1818   31.1930 C.ar    1  UNL1       -0.0026
     28 C         -12.5341  -11.4618   31.7495 C.ar    1  UNL1       -0.0001
     29 C         -11.5551  -11.8473   32.6683 C.ar    1  UNL1        0.0064
     30 C         -10.5367  -10.9518   33.0403 C.ar    1  UNL1        0.0752
     31 C         -10.5215   -9.6630   32.4783 C.ar    1  UNL1        0.0038
     32 C          -9.4901  -11.3580   34.0041 C.2     1  UNL1        0.3380
     33 O          -9.4686  -12.5306   34.4672 O.2     1  UNL1       -0.2451
     34 O          -8.5167  -10.4479   34.4085 O.3     1  UNL1       -0.4771
     35 H          -7.7952  -10.7159   35.0671 H       1  UNL1        0.2954
@<TRIPOS>BOND
     1    15    16    1
     2    16    17    1
     3    17    18   ar
     4    18    19   ar
     5    19    20   ar
     6    20    21    1
     7    20    22   ar
     8    22    23   ar
     9    23    24    1
    10    16     1    1
    11     1    25    1
    12    25    26    1
    13    26    27   ar
    14    27    28   ar
    15    28    29   ar
    16    29    30   ar
    17    30    32    1
    18    32    33    2
    19    32    34    1
    20    30    31   ar
    21     1     2   am
    22     2     3    2
    23     2     4    1
    24     4     5   ar
    25     5     6   ar
    26     6     7   ar
    27     7     8   ar
    28     8     9   ar
    29     9    10   ar
    30    10    11   ar
    31    11    12   ar
    32    12    13    1
    33    12    14   ar
    34    23    17   ar
    35    31    26   ar
    36    14     4   ar
    37    11     6   ar
    38    34    35    1
@<TRIPOS>MOLECULE
*****
 35 38 0 0 0
SMALL
GASTEIGER

@<TRIPOS>ATOM
      1 N         -10.0804  -11.2966   31.4226 N.am    1  UNL1       -0.2685
      2 C         -10.6126  -10.6306   30.2624 C.2     1  UNL1        0.2673
      3 O         -10.8391  -11.2969   29.2155 O.2     1  UNL1       -0.2682
      4 C         -10.8544   -9.1731   30.2754 C.ar    1  UNL1        0.1370
      5 C          -9.8648   -8.2704   29.8564 C.ar    1  UNL1        0.0239
      6 C         -10.1219   -6.8940   29.8987 C.ar    1  UNL1        0.0053
      7 C          -9.1510   -5.9700   29.4815 C.ar    1  UNL1        0.0002
      8 C          -9.4208   -4.5993   29.5294 C.ar    1  UNL1        0.0000
      9 C         -10.6574   -4.1418   29.9926 C.ar    1  UNL1        0.0001
     10 C         -11.6327   -5.0515   30.4110 C.ar    1  UNL1        0.0038
     11 C         -11.3733   -6.4314   30.3676 C.ar    1  UNL1        0.0460
     12 C         -12.3305   -7.3698   30.7816 C.ar    1  UNL1        0.2223
     13 F         -13.5435   -6.9715   31.2413 F       1  UNL1       -0.1832
     14 N         -12.0470   -8.6972   30.7268 N.ar    1  UNL1       -0.2134
     15 C          -9.9644  -10.7213   33.8461 C.3     1  UNL1        0.0265
     16 C         -10.8346  -11.2419   32.6903 C.3     1  UNL1        0.1007
     17 C         -11.5059  -12.5802   32.9649 C.ar    1  UNL1        0.0234
     18 C         -11.0416  -13.4599   33.9659 C.ar    1  UNL1        0.0019
     19 C         -11.6539  -14.7011   34.1610 C.ar    1  UNL1        0.0295
     20 C         -12.7246  -15.0901   33.3550 C.ar    1  UNL1        0.1424
     21 F         -13.3142  -16.2960   33.5455 F       1  UNL1       -0.2041
     22 C         -13.1818  -14.2405   32.3464 C.ar    1  UNL1        0.0590
     23 C         -12.5752  -12.9968   32.1442 C.ar    1  UNL1        0.1399
     24 F         -13.0293  -12.2023   31.1414 F       1  UNL1       -0.2044
     25 C          -8.9496  -12.2200   31.2406 C.3     1  UNL1        0.1207
     26 C          -7.6668  -11.4475   31.0736 C.ar    1  UNL1       -0.0021
     27 C          -6.8997  -11.0961   32.1948 C.ar    1  UNL1       -0.0026
     28 C          -5.6859  -10.4257   32.0343 C.ar    1  UNL1       -0.0001
     29 C          -5.2219  -10.1081   30.7556 C.ar    1  UNL1        0.0064
     30 C          -5.9712  -10.4609   29.6191 C.ar    1  UNL1        0.0752
     31 C          -7.1946  -11.1327   29.7891 C.ar    1  UNL1        0.0038
     32 C          -5.4796  -10.1377   28.2614 C.2     1  UNL1        0.3380
     33 O          -4.4950  -10.7570   27.7744 O.2     1  UNL1       -0.2451
     34 O          -6.1013   -9.1459   27.5072 O.3     1  UNL1       -0.4771
     35 H          -5.7733   -8.9174   26.5764 H       1  UNL1        0.2954
@<TRIPOS>BOND
     1    15    16    1
     2    16    17    1
     3    17    18   ar
     4    18    19   ar
     5    19    20   ar
     6    20    21    1
     7    20    22   ar
     8    22    23   ar
     9    23    24    1
    10    16     1    1
    11     1    25    1
    12    25    26    1
    13    26    27   ar
    14    27    28   ar
    15    28    29   ar
    16    29    30   ar
    17    30    32    1
    18    32    33    2
    19    32    34    1
    20    30    31   ar
    21     1     2   am
    22     2     3    2
    23     2     4    1
    24     4     5   ar
    25     5     6   ar
    26     6     7   ar
    27     7     8   ar
    28     8     9   ar
    29     9    10   ar
    30    10    11   ar
    31    11    12   ar
    32    12    13    1
    33    12    14   ar
    34    23    17   ar
    35    31    26   ar
    36    14     4   ar
    37    11     6   ar
    38    34    35    1
@<TRIPOS>MOLECULE
*****
 35 38 0 0 0
SMALL
GASTEIGER

@<TRIPOS>ATOM
      1 N          -9.2632  -10.1590   31.3750 N.am    1  UNL1       -0.2685
      2 C          -9.4058  -10.4637   32.7749 C.2     1  UNL1        0.2673
      3 O          -8.8693   -9.7082   33.6308 O.2     1  UNL1       -0.2682
      4 C         -10.1362  -11.6714   33.2121 C.ar    1  UNL1        0.1370
      5 C         -11.2755  -12.1179   32.5247 C.ar    1  UNL1        0.0239
      6 C         -11.9539  -13.2569   32.9776 C.ar    1  UNL1        0.0053
      7 C         -13.0935  -13.7270   32.3062 C.ar    1  UNL1        0.0002
      8 C         -13.7610  -14.8645   32.7692 C.ar    1  UNL1        0.0000
      9 C         -13.2980  -15.5391   33.9021 C.ar    1  UNL1        0.0001
     10 C         -12.1645  -15.0811   34.5799 C.ar    1  UNL1        0.0038
     11 C         -11.4852  -13.9391   34.1242 C.ar    1  UNL1        0.0460
     12 C         -10.3456  -13.4535   34.7828 C.ar    1  UNL1        0.2223
     13 F          -9.8620  -14.0743   35.8882 F       1  UNL1       -0.1832
     14 N          -9.7125  -12.3461   34.3156 N.ar    1  UNL1       -0.2134
     15 C         -10.4245  -10.7609   29.2521 C.3     1  UNL1        0.0265
     16 C         -10.4755   -9.9520   30.5587 C.3     1  UNL1        0.1007
     17 C         -10.7358   -8.4647   30.3653 C.ar    1  UNL1        0.0234
     18 C         -10.0675   -7.7094   29.3782 C.ar    1  UNL1        0.0019
     19 C         -10.2971   -6.3359   29.2578 C.ar    1  UNL1        0.0295
     20 C         -11.1814   -5.6933   30.1253 C.ar    1  UNL1        0.1424
     21 F         -11.3994   -4.3604   30.0072 F       1  UNL1       -0.2041
     22 C         -11.8338   -6.4223   31.1208 C.ar    1  UNL1        0.0590
     23 C         -11.6101   -7.7968   31.2484 C.ar    1  UNL1        0.1399
     24 F         -12.2437   -8.4738   32.2400 F       1  UNL1       -0.2044
     25 C          -7.9272   -9.8073   30.8692 C.3     1  UNL1        0.1207
     26 C          -7.4376   -8.5419   31.5245 C.ar    1  UNL1       -0.0021
     27 C          -8.2832   -7.4276   31.6346 C.ar    1  UNL1       -0.0026
     28 C          -7.8452   -6.2743   32.2878 C.ar    1  UNL1       -0.0001
     29 C          -6.5651   -6.2250   32.8446 C.ar    1  UNL1        0.0064
     30 C          -5.7067   -7.3350   32.7538 C.ar    1  UNL1        0.0752
     31 C          -6.1536   -8.4917   32.0910 C.ar    1  UNL1        0.0038
     32 C          -4.3538   -7.2932   33.3517 C.2     1  UNL1        0.3380
     33 O          -3.5150   -6.4306   32.9744 O.2     1  UNL1       -0.2451
     34 O          -3.9941   -8.2069   34.3391 O.3     1  UNL1       -0.4771
     35 H          -3.0709   -8.1865   34.7557 H       1  UNL1        0.2954
@<TRIPOS>BOND
     1    15    16    1
     2    16    17    1
     3    17    18   ar
     4    18    19   ar
     5    19    20   ar
     6    20    21    1
     7    20    22   ar
     8    22    23   ar
     9    23    24    1
    10    16     1    1
    11     1    25    1
    12    25    26    1
    13    26    27   ar
    14    27    28   ar
    15    28    29   ar
    16    29    30   ar
    17    30    32    1
    18    32    33    2
    19    32    34    1
    20    30    31   ar
    21     1     2   am
    22     2     3    2
    23     2     4    1
    24     4     5   ar
    25     5     6   ar
    26     6     7   ar
    27     7     8   ar
    28     8     9   ar
    29     9    10   ar
    30    10    11   ar
    31    11    12   ar
    32    12    13    1
    33    12    14   ar
    34    23    17   ar
    35    31    26   ar
    36    14     4   ar
    37    11     6   ar
    38    34    35    1
@<TRIPOS>MOLECULE
*****
 35 38 0 0 0
SMALL
GASTEIGER

@<TRIPOS>ATOM
      1 N          -9.7558  -11.2538   31.5438 N.am    1  UNL1       -0.2685
      2 C         -10.3650  -10.6644   30.3800 C.2     1  UNL1        0.2673
      3 O         -10.5875  -11.3822   29.3669 O.2     1  UNL1       -0.2682
      4 C         -10.6909   -9.2236   30.3488 C.ar    1  UNL1        0.1370
      5 C          -9.7352   -8.2726   29.9588 C.ar    1  UNL1        0.0239
      6 C         -10.0732   -6.9131   29.9578 C.ar    1  UNL1        0.0053
      7 C          -9.1376   -5.9418   29.5684 C.ar    1  UNL1        0.0002
      8 C          -9.4881   -4.5887   29.5725 C.ar    1  UNL1        0.0000
      9 C         -10.7708   -4.1958   29.9640 C.ar    1  UNL1        0.0001
     10 C         -11.7118   -5.1530   30.3542 C.ar    1  UNL1        0.0038
     11 C         -11.3713   -6.5159   30.3543 C.ar    1  UNL1        0.0460
     12 C         -12.2923   -7.5007   30.7415 C.ar    1  UNL1        0.2223
     13 F         -13.5479   -7.1656   31.1322 F       1  UNL1       -0.1832
     14 N         -11.9302   -8.8100   30.7303 N.ar    1  UNL1       -0.2134
     15 C          -9.5282  -10.7950   33.9842 C.3     1  UNL1        0.0265
     16 C         -10.4687  -11.1936   32.8349 C.3     1  UNL1        0.1007
     17 C         -11.2392  -12.4844   33.0748 C.ar    1  UNL1        0.0234
     18 C         -12.3953  -12.8152   32.3362 C.ar    1  UNL1        0.0019
     19 C         -13.1045  -13.9872   32.6135 C.ar    1  UNL1        0.0295
     20 C         -12.6832  -14.8372   33.6369 C.ar    1  UNL1        0.1424
     21 F         -13.3754  -15.9718   33.9047 F       1  UNL1       -0.2041
     22 C         -11.5541  -14.5134   34.3908 C.ar    1  UNL1        0.0590
     23 C         -10.8384  -13.3428   34.1202 C.ar    1  UNL1        0.1399
     24 F          -9.7570  -13.0453   34.8850 F       1  UNL1       -0.2044
     25 C          -8.5799  -12.1174   31.3550 C.3     1  UNL1        0.1207
     26 C          -7.3952  -11.2969   30.9151 C.ar    1  UNL1       -0.0021
     27 C          -6.7411  -11.5867   29.7080 C.ar    1  UNL1       -0.0026
     28 C          -5.6764  -10.7933   29.2771 C.ar    1  UNL1       -0.0001
     29 C          -5.2607   -9.6997   30.0403 C.ar    1  UNL1        0.0064
     30 C          -5.9102   -9.3869   31.2477 C.ar    1  UNL1        0.0752
     31 C          -6.9793  -10.1930   31.6769 C.ar    1  UNL1        0.0038
     32 C          -5.4823   -8.2229   32.0548 C.2     1  UNL1        0.3380
     33 O          -5.1563   -7.1417   31.4938 O.2     1  UNL1       -0.2451
     34 O          -5.4366   -8.3104   33.4439 O.3     1  UNL1       -0.4771
     35 H          -5.1459   -7.5193   34.0059 H       1  UNL1        0.2954
@<TRIPOS>BOND
     1    15    16    1
     2    16    17    1
     3    17    18   ar
     4    18    19   ar
     5    19    20   ar
     6    20    21    1
     7    20    22   ar
     8    22    23   ar
     9    23    24    1
    10    16     1    1
    11     1    25    1
    12    25    26    1
    13    26    27   ar
    14    27    28   ar
    15    28    29   ar
    16    29    30   ar
    17    30    32    1
    18    32    33    2
    19    32    34    1
    20    30    31   ar
    21     1     2   am
    22     2     3    2
    23     2     4    1
    24     4     5   ar
    25     5     6   ar
    26     6     7   ar
    27     7     8   ar
    28     8     9   ar
    29     9    10   ar
    30    10    11   ar
    31    11    12   ar
    32    12    13    1
    33    12    14   ar
    34    23    17   ar
    35    31    26   ar
    36    14     4   ar
    37    11     6   ar
    38    34    35    1
@<TRIPOS>MOLECULE
*****
 35 38 0 0 0
SMALL
GASTEIGER

@<TRIPOS>ATOM
      1 N          -9.1576  -10.9262   31.0273 N.am    1  UNL1       -0.2685
      2 C          -9.7816  -12.1274   30.5366 C.2     1  UNL1        0.2673
      3 O          -9.3949  -12.6238   29.4434 O.2     1  UNL1       -0.2682
      4 C         -10.8937  -12.7556   31.2792 C.ar    1  UNL1        0.1370
      5 C         -11.0517  -14.1500   31.3051 C.ar    1  UNL1        0.0239
      6 C         -12.1281  -14.7108   32.0047 C.ar    1  UNL1        0.0053
      7 C         -12.3069  -16.1024   32.0498 C.ar    1  UNL1        0.0002
      8 C         -13.3855  -16.6486   32.7512 C.ar    1  UNL1        0.0000
      9 C         -14.2911  -15.8131   33.4106 C.ar    1  UNL1        0.0001
     10 C         -14.1244  -14.4257   33.3732 C.ar    1  UNL1        0.0038
     11 C         -13.0443  -13.8649   32.6716 C.ar    1  UNL1        0.0460
     12 C         -12.8501  -12.4768   32.6140 C.ar    1  UNL1        0.2223
     13 F         -13.7056  -11.6270   33.2365 F       1  UNL1       -0.1832
     14 N         -11.7951  -11.9674   31.9263 N.ar    1  UNL1       -0.2134
     15 C          -9.5421  -10.8092   33.4882 C.3     1  UNL1        0.0265
     16 C          -8.5120  -10.9439   32.3546 C.3     1  UNL1        0.1007
     17 C          -7.3842   -9.9229   32.4082 C.ar    1  UNL1        0.0234
     18 C          -7.5379   -8.6689   33.0370 C.ar    1  UNL1        0.0019
     19 C          -6.4963   -7.7371   33.0282 C.ar    1  UNL1        0.0295
     20 C          -5.2951   -8.0329   32.3824 C.ar    1  UNL1        0.1424
     21 F          -4.2880   -7.1253   32.3737 F       1  UNL1       -0.2041
     22 C          -5.1350   -9.2602   31.7373 C.ar    1  UNL1        0.0590
     23 C          -6.1719  -10.1985   31.7411 C.ar    1  UNL1        0.1399
     24 F          -5.9930  -11.3745   31.0868 F       1  UNL1       -0.2044
     25 C          -8.9557   -9.8108   30.0895 C.3     1  UNL1        0.1207
     26 C         -10.0199   -8.7628   30.2883 C.ar    1  UNL1       -0.0021
     27 C         -11.2842   -9.1207   30.7805 C.ar    1  UNL1       -0.0026
     28 C         -12.2514   -8.1413   31.0128 C.ar    1  UNL1       -0.0001
     29 C         -11.9640   -6.7969   30.7656 C.ar    1  UNL1        0.0064
     30 C         -10.6994   -6.4171   30.2821 C.ar    1  UNL1        0.0752
     31 C          -9.7317   -7.4097   30.0470 C.ar    1  UNL1        0.0038
     32 C         -10.3849   -4.9935   30.0293 C.2     1  UNL1        0.3380
     33 O         -11.2777   -4.1111   30.1487 O.2     1  UNL1       -0.2451
     34 O          -9.0976   -4.6141   29.6577 O.3     1  UNL1       -0.4771
     35 H          -8.8714   -3.6423   29.4831 H       1  UNL1        0.2954
@<TRIPOS>BOND
     1    15    16    1
     2    16    17    1
     3    17    18   ar
     4    18    19   ar
     5    19    20   ar
     6    20    21    1
     7    20    22   ar
     8    22    23   ar
     9    23    24    1
    10    16     1    1
    11     1    25    1
    12    25    26    1
    13    26    27   ar
    14    27    28   ar
    15    28    29   ar
    16    29    30   ar
    17    30    32    1
    18    32    33    2
    19    32    34    1
    20    30    31   ar
    21     1     2   am
    22     2     3    2
    23     2     4    1
    24     4     5   ar
    25     5     6   ar
    26     6     7   ar
    27     7     8   ar
    28     8     9   ar
    29     9    10   ar
    30    10    11   ar
    31    11    12   ar
    32    12    13    1
    33    12    14   ar
    34    23    17   ar
    35    31    26   ar
    36    14     4   ar
    37    11     6   ar
    38    34    35    1
@<TRIPOS>MOLECULE
*****
 35 38 0 0 0
SMALL
GASTEIGER

@<TRIPOS>ATOM
      1 N         -10.0023   -8.0901   30.6497 N.am    1  UNL1       -0.2685
      2 C          -9.4630   -8.9088   29.5952 C.2     1  UNL1        0.2673
      3 O         -10.2162   -9.2827   28.6549 O.2     1  UNL1       -0.2682
      4 C          -8.0523   -9.3465   29.6283 C.ar    1  UNL1        0.1370
      5 C          -7.5514  -10.0974   30.7031 C.ar    1  UNL1        0.0239
      6 C          -6.2039  -10.4805   30.7101 C.ar    1  UNL1        0.0053
      7 C          -5.6785  -11.2351   31.7708 C.ar    1  UNL1        0.0002
      8 C          -4.3321  -11.6102   31.7653 C.ar    1  UNL1        0.0000
      9 C          -3.5023  -11.2363   30.7048 C.ar    1  UNL1        0.0001
     10 C          -4.0130  -10.4848   29.6426 C.ar    1  UNL1        0.0038
     11 C          -5.3645  -10.1018   29.6369 C.ar    1  UNL1        0.0460
     12 C          -5.9071   -9.3465   28.5865 C.ar    1  UNL1        0.2223
     13 F          -5.1385   -8.9584   27.5377 F       1  UNL1       -0.1832
     14 N          -7.2184   -8.9926   28.6124 N.ar    1  UNL1       -0.2134
     15 C          -9.5132   -5.8424   29.6874 C.3     1  UNL1        0.0265
     16 C          -9.4005   -6.7677   30.9102 C.3     1  UNL1        0.1007
     17 C          -7.9851   -6.9268   31.4473 C.ar    1  UNL1        0.0234
     18 C          -7.7241   -7.4801   32.7190 C.ar    1  UNL1        0.0019
     19 C          -6.4148   -7.5698   33.1999 C.ar    1  UNL1        0.0295
     20 C          -5.3505   -7.0979   32.4305 C.ar    1  UNL1        0.1424
     21 F          -4.0821   -7.1841   32.9015 F       1  UNL1       -0.2041
     22 C          -5.5940   -6.5282   31.1797 C.ar    1  UNL1        0.0590
     23 C          -6.9008   -6.4345   30.6908 C.ar    1  UNL1        0.1399
     24 F          -7.1067   -5.8562   29.4799 F       1  UNL1       -0.2044
     25 C         -11.2872   -8.4813   31.2500 C.3     1  UNL1        0.1207
     26 C         -11.1490   -9.8004   31.9649 C.ar    1  UNL1       -0.0021
     27 C         -10.1109  -10.0016   32.8872 C.ar    1  UNL1       -0.0026
     28 C         -10.0152  -11.2059   33.5865 C.ar    1  UNL1       -0.0001
     29 C         -10.9578  -12.2158   33.3797 C.ar    1  UNL1        0.0064
     30 C         -12.0115  -12.0293   32.4674 C.ar    1  UNL1        0.0752
     31 C         -12.0990  -10.8149   31.7640 C.ar    1  UNL1        0.0038
     32 C         -13.0199  -13.0905   32.2525 C.2     1  UNL1        0.3380
     33 O         -14.2507  -12.8266   32.3263 O.2     1  UNL1       -0.2451
     34 O         -12.6185  -14.3927   31.9651 O.3     1  UNL1       -0.4771
     35 H         -13.3006  -15.1265   31.8154 H       1  UNL1        0.2954
@<TRIPOS>BOND
     1    15    16    1
     2    16    17    1
     3    17    18   ar
     4    18    19   ar
     5    19    20   ar
     6    20    21    1
     7    20    22   ar
     8    22    23   ar
     9    23    24    1
    10    16     1    1
    11     1    25    1
    12    25    26    1
    13    26    27   ar
    14    27    28   ar
    15    28    29   ar
    16    29    30   ar
    17    30    32    1
    18    32    33    2
    19    32    34    1
    20    30    31   ar
    21     1     2   am
    22     2     3    2
    23     2     4    1
    24     4     5   ar
    25     5     6   ar
    26     6     7   ar
    27     7     8   ar
    28     8     9   ar
    29     9    10   ar
    30    10    11   ar
    31    11    12   ar
    32    12    13    1
    33    12    14   ar
    34    23    17   ar
    35    31    26   ar
    36    14     4   ar
    37    11     6   ar
    38    34    35    1
