@<TRIPOS>MOLECULE
*****
 45 50 0 0 0
SMALL
GASTEIGER

@<TRIPOS>ATOM
      1 C          60.1141   86.6476    8.0863 C.ar    1  UNL1        0.0702
      2 C          59.3696   85.5176    8.4585 C.ar    1  UNL1        0.0191
      3 C          59.6873   84.8214    9.6257 C.ar    1  UNL1        0.0356
      4 C          60.7473   85.2662   10.4350 C.ar    1  UNL1        0.1318
      5 N          61.4441   86.3750   10.0579 N.ar    1  UNL1       -0.2279
      6 C          61.1527   87.0682    8.9259 C.ar    1  UNL1        0.1149
      7 N          61.1079   84.5727   11.6500 N.pl3   1  UNL1       -0.2932
      8 C          60.4265   83.3178   12.0029 C.3     1  UNL1        0.0923
      9 C          60.3029   83.1953   13.5248 C.3     1  UNL1        0.0252
     10 C          61.6728   83.2907   14.2503 C.3     1  UNL1        0.0472
     11 C          62.7742   83.9336   13.3734 C.3     1  UNL1        0.0252
     12 C          62.2208   85.0541   12.4866 C.3     1  UNL1        0.0923
     13 C          62.1242   81.9118   14.7590 C.3     1  UNL1        0.2054
     14 O          62.7082   81.1679   13.6915 O.3     1  UNL1       -0.4750
     15 C          61.9855   80.4408   12.7335 C.ar    1  UNL1        0.1440
     16 C          60.8953   79.6177   13.0812 C.ar    1  UNL1        0.0438
     17 C          60.1943   78.9000   12.0942 C.ar    1  UNL1        0.0785
     18 C          60.5848   79.0312   10.7509 C.ar    1  UNL1        0.0071
     19 C          61.6641   79.8450   10.4031 C.ar    1  UNL1        0.0090
     20 C          62.3649   80.5450   11.3878 C.ar    1  UNL1        0.0640
     21 I          63.9915   81.7700   10.8159 I       1  UNL1       -0.0394
     22 C          59.0440   78.0326   12.4479 C.2     1  UNL1        0.3381
     23 O          58.6411   77.9846   13.6406 O.2     1  UNL1       -0.2451
     24 O          58.3755   77.2719   11.4892 O.3     1  UNL1       -0.4771
     25 H          58.5752   77.3435   10.4999 H       1  UNL1        0.2954
     26 C          59.8939   88.8350    6.8252 C.2     1  UNL1        0.2839
     27 O          59.7825   89.5323    7.8692 O.2     1  UNL1       -0.2665
     28 N          59.8014   87.4047    6.9045 N.am    1  UNL1       -0.2766
     29 H          59.3801   86.8986    6.0937 H       1  UNL1        0.1553
     30 C          57.5464   90.1229    5.0112 C.3     1  UNL1        0.0345
     31 C          59.0209   90.0844    4.7440 C.ar    1  UNL1        0.0202
     32 C          60.0348   89.5192    5.5278 C.ar    1  UNL1        0.1946
     33 O          61.2037   89.6669    4.9291 O.2     1  UNL1       -0.4492
     34 C          61.0036   90.3182    3.8095 C.ar    1  UNL1        0.1452
     35 C          61.9559   90.6959    2.8693 C.ar    1  UNL1        0.0375
     36 C          61.5183   91.3955    1.7311 C.ar    1  UNL1        0.0031
     37 C          60.1431   91.7059    1.5504 C.ar    1  UNL1        0.0002
     38 C          59.2063   91.3019    2.5319 C.ar    1  UNL1        0.0028
     39 C          59.6764   90.6091    3.6479 C.ar    1  UNL1        0.0337
     40 C          59.6925   92.4465    0.3447 C.ar    1  UNL1        0.0000
     41 C          58.3331   92.4581   -0.0216 C.ar    1  UNL1        0.0000
     42 C          57.9116   93.1562   -1.1575 C.ar    1  UNL1        0.0000
     43 C          58.8391   93.8479   -1.9395 C.ar    1  UNL1        0.0000
     44 C          60.1905   93.8435   -1.5871 C.ar    1  UNL1        0.0000
     45 C          60.6176   93.1479   -0.4517 C.ar    1  UNL1        0.0000
@<TRIPOS>BOND
     1    30    31    1
     2    31    32   ar
     3    32    26    1
     4    26    27    2
     5    26    28   am
     6    28     1    1
     7     1     2   ar
     8     2     3   ar
     9     3     4   ar
    10     4     7    1
    11     7     8    1
    12     8     9    1
    13     9    10    1
    14    10    13    1
    15    13    14    1
    16    14    15    1
    17    15    16   ar
    18    16    17   ar
    19    17    22    1
    20    22    23    2
    21    22    24    1
    22    17    18   ar
    23    18    19   ar
    24    19    20   ar
    25    20    21    1
    26    10    11    1
    27    11    12    1
    28     4     5   ar
    29     5     6   ar
    30    32    33   ar
    31    33    34   ar
    32    34    35   ar
    33    35    36   ar
    34    36    37   ar
    35    37    40    1
    36    40    41   ar
    37    41    42   ar
    38    42    43   ar
    39    43    44   ar
    40    44    45   ar
    41    37    38   ar
    42    38    39   ar
    43    39    31   ar
    44     6     1   ar
    45    39    34   ar
    46    12     7    1
    47    45    40   ar
    48    20    15   ar
    49    28    29    1
    50    24    25    1
@<TRIPOS>MOLECULE
*****
 45 50 0 0 0
SMALL
GASTEIGER

@<TRIPOS>ATOM
      1 C          60.1019   86.7282    8.1891 C.ar    1  UNL1        0.0702
      2 C          59.1610   85.8589    8.7624 C.ar    1  UNL1        0.0191
      3 C          59.4417   85.2195    9.9709 C.ar    1  UNL1        0.0356
      4 C          60.6654   85.4620   10.6190 C.ar    1  UNL1        0.1318
      5 N          61.5547   86.3223   10.0478 N.ar    1  UNL1       -0.2279
      6 C          61.3028   86.9556    8.8720 C.ar    1  UNL1        0.1149
      7 N          60.9938   84.8193   11.8705 N.pl3   1  UNL1       -0.2932
      8 C          60.2384   83.6328   12.3010 C.3     1  UNL1        0.0923
      9 C          60.1226   83.6075   13.8282 C.3     1  UNL1        0.0252
     10 C          61.5030   83.6581   14.5382 C.3     1  UNL1        0.0472
     11 C          62.6338   84.1775   13.6180 C.3     1  UNL1        0.0252
     12 C          62.1432   85.2772   12.6702 C.3     1  UNL1        0.0923
     13 C          61.8719   82.2853   15.1243 C.3     1  UNL1        0.2054
     14 O          61.2915   81.2488   14.3353 O.3     1  UNL1       -0.4750
     15 C          61.6830   80.9236   13.0277 C.ar    1  UNL1        0.1440
     16 C          62.8298   81.4812   12.4269 C.ar    1  UNL1        0.0438
     17 C          63.1917   81.1346   11.1119 C.ar    1  UNL1        0.0785
     18 C          62.4028   80.2069   10.4109 C.ar    1  UNL1        0.0071
     19 C          61.2664   79.6531   11.0026 C.ar    1  UNL1        0.0090
     20 C          60.9041   80.0104   12.3033 C.ar    1  UNL1        0.0640
     21 I          59.1765   79.1439   13.1628 I       1  UNL1       -0.0394
     22 C          64.3975   81.7130   10.4701 C.2     1  UNL1        0.3381
     23 O          64.6898   81.3934    9.2870 O.2     1  UNL1       -0.2451
     24 O          65.2191   82.6225   11.1354 O.3     1  UNL1       -0.4771
     25 H          64.9871   83.0041   12.0432 H       1  UNL1        0.2954
     26 C          59.7736   88.8533    6.8475 C.2     1  UNL1        0.2839
     27 O          59.4656   89.5495    7.8521 O.2     1  UNL1       -0.2665
     28 N          59.8386   87.4236    6.9583 N.am    1  UNL1       -0.2766
     29 H          59.5726   86.8581    6.1214 H       1  UNL1        0.1553
     30 C          57.5267   90.1832    4.9389 C.3     1  UNL1        0.0345
     31 C          59.0093   90.1115    4.7293 C.ar    1  UNL1        0.0202
     32 C          59.9795   89.5281    5.5539 C.ar    1  UNL1        0.1946
     33 O          61.1736   89.6476    5.0005 O.2     1  UNL1       -0.4492
     34 C          61.0313   90.2976    3.8713 C.ar    1  UNL1        0.1452
     35 C          62.0273   90.6501    2.9673 C.ar    1  UNL1        0.0375
     36 C          61.6494   91.3535    1.8102 C.ar    1  UNL1        0.0031
     37 C          60.2893   91.6929    1.5752 C.ar    1  UNL1        0.0002
     38 C          59.3067   91.3140    2.5212 C.ar    1  UNL1        0.0028
     39 C          59.7179   90.6165    3.6573 C.ar    1  UNL1        0.0337
     40 C          59.9020   92.4373    0.3500 C.ar    1  UNL1        0.0000
     41 C          58.5531   92.5104   -0.0466 C.ar    1  UNL1        0.0000
     42 C          58.1912   93.2119   -1.2008 C.ar    1  UNL1        0.0000
     43 C          59.1684   93.8460   -1.9711 C.ar    1  UNL1        0.0000
     44 C          60.5101   93.7803   -1.5886 C.ar    1  UNL1        0.0000
     45 C          60.8776   93.0810   -0.4349 C.ar    1  UNL1        0.0000
@<TRIPOS>BOND
     1    30    31    1
     2    31    32   ar
     3    32    26    1
     4    26    27    2
     5    26    28   am
     6    28     1    1
     7     1     2   ar
     8     2     3   ar
     9     3     4   ar
    10     4     7    1
    11     7     8    1
    12     8     9    1
    13     9    10    1
    14    10    13    1
    15    13    14    1
    16    14    15    1
    17    15    16   ar
    18    16    17   ar
    19    17    22    1
    20    22    23    2
    21    22    24    1
    22    17    18   ar
    23    18    19   ar
    24    19    20   ar
    25    20    21    1
    26    10    11    1
    27    11    12    1
    28     4     5   ar
    29     5     6   ar
    30    32    33   ar
    31    33    34   ar
    32    34    35   ar
    33    35    36   ar
    34    36    37   ar
    35    37    40    1
    36    40    41   ar
    37    41    42   ar
    38    42    43   ar
    39    43    44   ar
    40    44    45   ar
    41    37    38   ar
    42    38    39   ar
    43    39    31   ar
    44     6     1   ar
    45    39    34   ar
    46    12     7    1
    47    45    40   ar
    48    20    15   ar
    49    28    29    1
    50    24    25    1
