@<TRIPOS>MOLECULE
*****
 48 53 0 0 0
SMALL
GASTEIGER

@<TRIPOS>ATOM
      1 O          64.2601   89.6427   15.5802 O.2     1  UNL1       -0.2701
      2 C          64.2916   89.1153   14.4346 C.2     1  UNL1        0.2483
      3 N          64.5658   89.9283   13.2818 N.am    1  UNL1       -0.2945
      4 H          64.8352   89.4504   12.3924 H       1  UNL1        0.1501
      5 C          64.0789   87.6563   14.3029 C.ar    1  UNL1        0.0808
      6 C          64.3160   86.8184   15.4054 C.ar    1  UNL1        0.0080
      7 C          64.1253   85.4381   15.3034 C.ar    1  UNL1        0.0148
      8 C          63.6776   84.8692   14.1016 C.ar    1  UNL1        0.0502
      9 C          63.4287   85.7052   13.0016 C.ar    1  UNL1        0.0443
     10 C          63.6205   87.0869   13.0989 C.ar    1  UNL1        0.1457
     11 F          63.3148   87.8640   12.0290 F       1  UNL1       -0.2040
     12 N          63.4926   83.4449   13.9927 N.pl3   1  UNL1       -0.3040
     13 C          62.9232   82.6746   15.1077 C.3     1  UNL1        0.1122
     14 C          61.7076   81.8783   14.6194 C.3     1  UNL1        0.1122
     15 N          61.9645   81.2550   13.3106 N.pl3   1  UNL1       -0.3040
     16 C          63.3124   81.3167   12.7275 C.3     1  UNL1        0.1122
     17 C          63.8095   82.7667   12.7251 C.3     1  UNL1        0.1122
     18 C          60.8752   80.6562   12.5827 C.ar    1  UNL1        0.0488
     19 C          59.9834   79.7837   13.2271 C.ar    1  UNL1        0.0154
     20 C          58.9201   79.2132   12.5227 C.ar    1  UNL1        0.0135
     21 C          58.7292   79.5101   11.1692 C.ar    1  UNL1        0.0683
     22 CL         57.3791   78.7730   10.3172 Cl      1  UNL1       -0.0814
     23 C          59.6110   80.3879   10.5173 C.ar    1  UNL1        0.0694
     24 CL         59.4008   80.7970    8.8200 Cl      1  UNL1       -0.0813
     25 C          60.6762   80.9576   11.2246 C.ar    1  UNL1        0.0268
     26 C          64.5496   91.3950   13.3432 C.3     1  UNL1        0.1535
     27 C          65.7360   91.9770   12.6100 C.2     1  UNL1        0.2443
     28 O          66.8837   91.9141   13.1300 O.2     1  UNL1       -0.2730
     29 N          65.5691   92.4745   11.2717 N.am    1  UNL1       -0.2825
     30 H          64.6501   92.3090   10.8016 H       1  UNL1        0.1549
     31 C          66.6441   92.9844   10.4674 C.ar    1  UNL1        0.0535
     32 C          66.6216   94.2923    9.9561 C.ar    1  UNL1        0.0353
     33 C          67.6808   94.7383    9.1614 C.ar    1  UNL1        0.1002
     34 N          68.7178   93.9067    8.8766 N.ar    1  UNL1       -0.2422
     35 C          68.7570   92.6311    9.3446 C.ar    1  UNL1        0.1002
     36 C          67.7177   92.1449   10.1411 C.ar    1  UNL1        0.0353
     37 C          63.2324   91.9333   12.7527 C.3     1  UNL1        0.0569
     38 C          62.7021   91.0313   11.6740 C.ar    1  UNL1       -0.0016
     39 C          63.0060   91.0985   10.3182 C.ar    1  UNL1        0.0681
     40 N          62.2395   90.2318    9.6187 N.ar    1  UNL1       -0.3519
     41 C          61.4434   89.6254   10.5188 C.ar    1  UNL1        0.0617
     42 C          60.4467   88.6753   10.2760 C.ar    1  UNL1        0.0456
     43 I          60.0269   87.9604    8.3330 I       1  UNL1       -0.0410
     44 C          59.7074   88.2047   11.3779 C.ar    1  UNL1        0.0072
     45 C          59.9688   88.6898   12.6779 C.ar    1  UNL1        0.0005
     46 C          60.9728   89.6501   12.8917 C.ar    1  UNL1        0.0012
     47 C          61.6964   90.0920   11.7846 C.ar    1  UNL1        0.0135
     48 H          62.2513   90.0922    8.5842 H       1  UNL1        0.1660
@<TRIPOS>BOND
     1     1     2    2
     2     2     3   am
     3     3    26    1
     4    26    37    1
     5    37    38    1
     6    38    39   ar
     7    39    40   ar
     8    40    41   ar
     9    41    42   ar
    10    42    43    1
    11    42    44   ar
    12    44    45   ar
    13    45    46   ar
    14    46    47   ar
    15    26    27    1
    16    27    28    2
    17    27    29   am
    18    29    31    1
    19    31    32   ar
    20    32    33   ar
    21    33    34   ar
    22    34    35   ar
    23    35    36   ar
    24     2     5    1
    25     5     6   ar
    26     6     7   ar
    27     7     8   ar
    28     8    12    1
    29    12    13    1
    30    13    14    1
    31    14    15    1
    32    15    18    1
    33    18    19   ar
    34    19    20   ar
    35    20    21   ar
    36    21    22    1
    37    21    23   ar
    38    23    24    1
    39    23    25   ar
    40    15    16    1
    41    16    17    1
    42     8     9   ar
    43     9    10   ar
    44    10    11    1
    45    47    38   ar
    46    36    31   ar
    47    10     5   ar
    48    47    41   ar
    49    17    12    1
    50    25    18   ar
    51     3     4    1
    52    40    48    1
    53    29    30    1
@<TRIPOS>MOLECULE
*****
 48 53 0 0 0
SMALL
GASTEIGER

@<TRIPOS>ATOM
      1 O          63.6098   83.2562    9.9485 O.2     1  UNL1       -0.2701
      2 C          62.5437   83.8740   10.2199 C.2     1  UNL1        0.2483
      3 N          61.2741   83.2388    9.9965 N.am    1  UNL1       -0.2945
      4 H          60.4283   83.6506   10.4516 H       1  UNL1        0.1501
      5 C          62.6221   85.2344   10.7983 C.ar    1  UNL1        0.0808
      6 C          62.7916   85.3901   12.1842 C.ar    1  UNL1        0.0080
      7 C          62.8647   86.6642   12.7528 C.ar    1  UNL1        0.0148
      8 C          62.7866   87.8087   11.9450 C.ar    1  UNL1        0.0502
      9 C          62.6289   87.6562   10.5584 C.ar    1  UNL1        0.0443
     10 C          62.5529   86.3827    9.9857 C.ar    1  UNL1        0.1457
     11 F          62.4565   86.2802    8.6358 F       1  UNL1       -0.2040
     12 N          62.8499   89.1223   12.5324 N.pl3   1  UNL1       -0.3040
     13 C          62.3767   89.3546   13.9046 C.3     1  UNL1        0.1122
     14 C          63.4903   90.0054   14.7331 C.3     1  UNL1        0.1122
     15 N          64.1790   91.0607   13.9719 N.pl3   1  UNL1       -0.3040
     16 C          63.6609   91.4653   12.6571 C.3     1  UNL1        0.1122
     17 C          63.4620   90.2269   11.7758 C.3     1  UNL1        0.1122
     18 C          65.3946   91.6331   14.4910 C.ar    1  UNL1        0.0488
     19 C          65.4037   92.2689   15.7430 C.ar    1  UNL1        0.0154
     20 C          66.5864   92.8128   16.2507 C.ar    1  UNL1        0.0135
     21 C          67.7755   92.7243   15.5194 C.ar    1  UNL1        0.0683
     22 CL         69.2435   93.4203   16.1922 Cl      1  UNL1       -0.0814
     23 C          67.7788   92.0833   14.2696 C.ar    1  UNL1        0.0694
     24 CL         69.2537   91.9399   13.3227 Cl      1  UNL1       -0.0813
     25 C          66.5926   91.5399   13.7623 C.ar    1  UNL1        0.0268
     26 C          61.1505   82.0009    9.2172 C.3     1  UNL1        0.1535
     27 C          60.7171   80.8520   10.0980 C.2     1  UNL1        0.2443
     28 O          61.2715   79.7256    9.9731 O.2     1  UNL1       -0.2730
     29 N          59.7754   81.0865   11.1585 N.am    1  UNL1       -0.2825
     30 H          59.5076   82.0763   11.3620 H       1  UNL1        0.1549
     31 C          59.3516   80.0790   12.0901 C.ar    1  UNL1        0.0535
     32 C          58.8252   78.8518   11.6548 C.ar    1  UNL1        0.0353
     33 C          58.4070   77.9096   12.5980 C.ar    1  UNL1        0.1002
     34 N          58.4986   78.1859   13.9260 N.ar    1  UNL1       -0.2422
     35 C          58.9887   79.3719   14.3745 C.ar    1  UNL1        0.1002
     36 C          59.4161   80.3421   13.4651 C.ar    1  UNL1        0.0353
     37 C          60.1517   82.2024    8.0616 C.3     1  UNL1        0.0569
     38 C          60.0080   83.6548    7.7036 C.ar    1  UNL1       -0.0016
     39 C          60.5645   84.2919    6.5992 C.ar    1  UNL1        0.0681
     40 N          60.3556   85.6259    6.6684 N.ar    1  UNL1       -0.3519
     41 C          59.6826   85.8405    7.8142 C.ar    1  UNL1        0.0617
     42 C          59.2722   87.0658    8.3482 C.ar    1  UNL1        0.0456
     43 I          59.6305   88.8978    7.3590 I       1  UNL1       -0.0410
     44 C          58.6105   87.0505    9.5908 C.ar    1  UNL1        0.0072
     45 C          58.3823   85.8327   10.2678 C.ar    1  UNL1        0.0005
     46 C          58.8118   84.6160    9.7102 C.ar    1  UNL1        0.0012
     47 C          59.4559   84.6585    8.4741 C.ar    1  UNL1        0.0135
     48 H          60.6824   86.3391    5.9797 H       1  UNL1        0.1660
@<TRIPOS>BOND
     1     1     2    2
     2     2     3   am
     3     3    26    1
     4    26    37    1
     5    37    38    1
     6    38    39   ar
     7    39    40   ar
     8    40    41   ar
     9    41    42   ar
    10    42    43    1
    11    42    44   ar
    12    44    45   ar
    13    45    46   ar
    14    46    47   ar
    15    26    27    1
    16    27    28    2
    17    27    29   am
    18    29    31    1
    19    31    32   ar
    20    32    33   ar
    21    33    34   ar
    22    34    35   ar
    23    35    36   ar
    24     2     5    1
    25     5     6   ar
    26     6     7   ar
    27     7     8   ar
    28     8    12    1
    29    12    13    1
    30    13    14    1
    31    14    15    1
    32    15    18    1
    33    18    19   ar
    34    19    20   ar
    35    20    21   ar
    36    21    22    1
    37    21    23   ar
    38    23    24    1
    39    23    25   ar
    40    15    16    1
    41    16    17    1
    42     8     9   ar
    43     9    10   ar
    44    10    11    1
    45    47    38   ar
    46    36    31   ar
    47    10     5   ar
    48    47    41   ar
    49    17    12    1
    50    25    18   ar
    51     3     4    1
    52    40    48    1
    53    29    30    1
@<TRIPOS>MOLECULE
*****
 48 53 0 0 0
SMALL
GASTEIGER

@<TRIPOS>ATOM
      1 O          61.7774   85.3364    8.5302 O.2     1  UNL1       -0.2701
      2 C          61.0120   86.0724    9.2115 C.2     1  UNL1        0.2483
      3 N          59.6458   85.6799    9.4224 N.am    1  UNL1       -0.2945
      4 H          59.1061   86.1554   10.1805 H       1  UNL1        0.1501
      5 C          61.5477   87.3147    9.8124 C.ar    1  UNL1        0.0808
      6 C          62.3726   87.2368   10.9470 C.ar    1  UNL1        0.0080
      7 C          62.8867   88.3961   11.5332 C.ar    1  UNL1        0.0148
      8 C          62.6002   89.6562   10.9869 C.ar    1  UNL1        0.0502
      9 C          61.7858   89.7365    9.8462 C.ar    1  UNL1        0.0443
     10 C          61.2672   88.5787    9.2579 C.ar    1  UNL1        0.1457
     11 F          60.5305   88.6979    8.1242 F       1  UNL1       -0.2040
     12 N          63.1203   90.8522   11.5982 N.pl3   1  UNL1       -0.3040
     13 C          62.5411   91.3703   12.8459 C.3     1  UNL1        0.1122
     14 C          63.6426   91.5333   13.8996 C.3     1  UNL1        0.1122
     15 N          64.8593   92.1235   13.3174 N.pl3   1  UNL1       -0.3040
     16 C          64.8393   92.6119   11.9312 C.3     1  UNL1        0.1122
     17 C          64.2907   91.5201   11.0055 C.3     1  UNL1        0.1122
     18 C          66.0758   92.1483   14.0883 C.ar    1  UNL1        0.0488
     19 C          66.0321   92.3198   15.4813 C.ar    1  UNL1        0.0154
     20 C          67.2123   92.3314   16.2292 C.ar    1  UNL1        0.0135
     21 C          68.4498   92.1661   15.5986 C.ar    1  UNL1        0.0683
     22 CL         69.9127   92.1857   16.5740 Cl      1  UNL1       -0.0814
     23 C          68.5040   91.9857   14.2066 C.ar    1  UNL1        0.0694
     24 CL         70.0375   91.7630   13.3753 Cl      1  UNL1       -0.0813
     25 C          67.3205   91.9755   13.4591 C.ar    1  UNL1        0.0268
     26 C          59.0231   84.5912    8.6595 C.3     1  UNL1        0.1535
     27 C          59.9351   83.3879    8.5975 C.2     1  UNL1        0.2443
     28 O          60.1712   82.8398    7.4859 O.2     1  UNL1       -0.2730
     29 N          60.6304   82.9623    9.7815 N.am    1  UNL1       -0.2825
     30 H          60.5729   83.5747   10.6267 H       1  UNL1        0.1549
     31 C          61.5681   81.8749    9.8119 C.ar    1  UNL1        0.0535
     32 C          61.1832   80.5646    9.4842 C.ar    1  UNL1        0.0353
     33 C          62.1257   79.5349    9.5475 C.ar    1  UNL1        0.1002
     34 N          63.4014   79.7999    9.9354 N.ar    1  UNL1       -0.2422
     35 C          63.7965   81.0557   10.2738 C.ar    1  UNL1        0.1002
     36 C          62.8855   82.1135   10.2260 C.ar    1  UNL1        0.0353
     37 C          57.6699   84.2115    9.2907 C.3     1  UNL1        0.0569
     38 C          57.8518   83.3526   10.5104 C.ar    1  UNL1       -0.0016
     39 C          58.1734   83.7933   11.7901 C.ar    1  UNL1        0.0681
     40 N          58.4032   82.7416   12.6081 N.ar    1  UNL1       -0.3519
     41 C          58.2424   81.6385   11.8538 C.ar    1  UNL1        0.0617
     42 C          58.4132   80.3057   12.2405 C.ar    1  UNL1        0.0456
     43 I          58.9484   79.7689   14.2124 I       1  UNL1       -0.0410
     44 C          58.2267   79.3104   11.2624 C.ar    1  UNL1        0.0072
     45 C          57.8864   79.6605    9.9375 C.ar    1  UNL1        0.0005
     46 C          57.7274   81.0093    9.5753 C.ar    1  UNL1        0.0012
     47 C          57.9084   81.9743   10.5655 C.ar    1  UNL1        0.0135
     48 H          58.6789   82.7896   13.6138 H       1  UNL1        0.1660
@<TRIPOS>BOND
     1     1     2    2
     2     2     3   am
     3     3    26    1
     4    26    37    1
     5    37    38    1
     6    38    39   ar
     7    39    40   ar
     8    40    41   ar
     9    41    42   ar
    10    42    43    1
    11    42    44   ar
    12    44    45   ar
    13    45    46   ar
    14    46    47   ar
    15    26    27    1
    16    27    28    2
    17    27    29   am
    18    29    31    1
    19    31    32   ar
    20    32    33   ar
    21    33    34   ar
    22    34    35   ar
    23    35    36   ar
    24     2     5    1
    25     5     6   ar
    26     6     7   ar
    27     7     8   ar
    28     8    12    1
    29    12    13    1
    30    13    14    1
    31    14    15    1
    32    15    18    1
    33    18    19   ar
    34    19    20   ar
    35    20    21   ar
    36    21    22    1
    37    21    23   ar
    38    23    24    1
    39    23    25   ar
    40    15    16    1
    41    16    17    1
    42     8     9   ar
    43     9    10   ar
    44    10    11    1
    45    47    38   ar
    46    36    31   ar
    47    10     5   ar
    48    47    41   ar
    49    17    12    1
    50    25    18   ar
    51     3     4    1
    52    40    48    1
    53    29    30    1
@<TRIPOS>MOLECULE
*****
 48 53 0 0 0
SMALL
GASTEIGER

@<TRIPOS>ATOM
      1 O          60.5582   85.0201    6.3769 O.2     1  UNL1       -0.2701
      2 C          60.6337   85.0137    7.6363 C.2     1  UNL1        0.2483
      3 N          60.3931   83.7955    8.3596 N.am    1  UNL1       -0.2945
      4 H          60.7009   83.7436    9.3569 H       1  UNL1        0.1501
      5 C          61.0043   86.2589    8.3459 C.ar    1  UNL1        0.0808
      6 C          60.1231   87.3529    8.3336 C.ar    1  UNL1        0.0080
      7 C          60.4533   88.5393    8.9933 C.ar    1  UNL1        0.0148
      8 C          61.6642   88.6502    9.6932 C.ar    1  UNL1        0.0502
      9 C          62.5417   87.5547    9.7171 C.ar    1  UNL1        0.0443
     10 C          62.2160   86.3662    9.0561 C.ar    1  UNL1        0.1457
     11 F          63.0672   85.3134    9.1513 F       1  UNL1       -0.2040
     12 N          62.0102   89.8774   10.3633 N.pl3   1  UNL1       -0.3040
     13 C          61.2935   90.2983   11.5758 C.3     1  UNL1        0.1122
     14 C          62.2953   90.5478   12.7090 C.3     1  UNL1        0.1122
     15 N          63.4798   91.2777   12.2275 N.pl3   1  UNL1       -0.3040
     16 C          63.5045   91.7982   10.8531 C.3     1  UNL1        0.1122
     17 C          63.1411   90.6801    9.8695 C.3     1  UNL1        0.1122
     18 C          64.6301   91.4093   13.0844 C.ar    1  UNL1        0.0488
     19 C          64.4834   91.3877   14.4807 C.ar    1  UNL1        0.0154
     20 C          65.6016   91.5032   15.3106 C.ar    1  UNL1        0.0135
     21 C          66.8801   91.6356   14.7588 C.ar    1  UNL1        0.0683
     22 CL         68.2626   91.7776   15.8360 Cl      1  UNL1       -0.0814
     23 C          67.0386   91.6502   13.3632 C.ar    1  UNL1        0.0694
     24 CL         68.6287   91.8033   12.6280 Cl      1  UNL1       -0.0813
     25 C          65.9169   91.5354   12.5336 C.ar    1  UNL1        0.0268
     26 C          59.8021   82.6145    7.7186 C.3     1  UNL1        0.1535
     27 C          60.3519   81.3430    8.3226 C.2     1  UNL1        0.2443
     28 O          60.2648   80.2592    7.6828 O.2     1  UNL1       -0.2730
     29 N          61.0870   81.4034    9.5564 N.am    1  UNL1       -0.2825
     30 H          61.3201   82.3479    9.9388 H       1  UNL1        0.1549
     31 C          61.7054   80.2649   10.1763 C.ar    1  UNL1        0.0535
     32 C          62.3425   79.2710    9.4156 C.ar    1  UNL1        0.0353
     33 C          62.9128   78.1709   10.0612 C.ar    1  UNL1        0.1002
     34 N          62.8395   78.0597   11.4142 N.ar    1  UNL1       -0.2422
     35 C          62.2147   78.9985   12.1730 C.ar    1  UNL1        0.1002
     36 C          61.6299   80.1131   11.5674 C.ar    1  UNL1        0.0353
     37 C          58.2676   82.6553    7.8497 C.3     1  UNL1        0.0569
     38 C          57.8355   83.5074    9.0098 C.ar    1  UNL1       -0.0016
     39 C          57.3808   84.8205    8.9457 C.ar    1  UNL1        0.0681
     40 N          57.2210   85.3264   10.1892 N.ar    1  UNL1       -0.3519
     41 C          57.5832   84.3488   11.0405 C.ar    1  UNL1        0.0617
     42 C          57.6292   84.4043   12.4369 C.ar    1  UNL1        0.0456
     43 I          57.0624   86.1331   13.5106 I       1  UNL1       -0.0410
     44 C          58.0812   83.2616   13.1238 C.ar    1  UNL1        0.0072
     45 C          58.4789   82.1077   12.4140 C.ar    1  UNL1        0.0005
     46 C          58.4284   82.0822   11.0095 C.ar    1  UNL1        0.0012
     47 C          57.9678   83.2238   10.3545 C.ar    1  UNL1        0.0135
     48 H          56.9076   86.2932   10.4275 H       1  UNL1        0.1660
@<TRIPOS>BOND
     1     1     2    2
     2     2     3   am
     3     3    26    1
     4    26    37    1
     5    37    38    1
     6    38    39   ar
     7    39    40   ar
     8    40    41   ar
     9    41    42   ar
    10    42    43    1
    11    42    44   ar
    12    44    45   ar
    13    45    46   ar
    14    46    47   ar
    15    26    27    1
    16    27    28    2
    17    27    29   am
    18    29    31    1
    19    31    32   ar
    20    32    33   ar
    21    33    34   ar
    22    34    35   ar
    23    35    36   ar
    24     2     5    1
    25     5     6   ar
    26     6     7   ar
    27     7     8   ar
    28     8    12    1
    29    12    13    1
    30    13    14    1
    31    14    15    1
    32    15    18    1
    33    18    19   ar
    34    19    20   ar
    35    20    21   ar
    36    21    22    1
    37    21    23   ar
    38    23    24    1
    39    23    25   ar
    40    15    16    1
    41    16    17    1
    42     8     9   ar
    43     9    10   ar
    44    10    11    1
    45    47    38   ar
    46    36    31   ar
    47    10     5   ar
    48    47    41   ar
    49    17    12    1
    50    25    18   ar
    51     3     4    1
    52    40    48    1
    53    29    30    1
@<TRIPOS>MOLECULE
*****
 48 53 0 0 0
SMALL
GASTEIGER

@<TRIPOS>ATOM
      1 O          59.4724   86.3660    7.1744 O.2     1  UNL1       -0.2701
      2 C          60.0523   86.2341    8.2871 C.2     1  UNL1        0.2483
      3 N          60.1147   84.9409    8.9106 N.am    1  UNL1       -0.2945
      4 H          60.8002   84.7986    9.6864 H       1  UNL1        0.1501
      5 C          60.6904   87.4129    8.9154 C.ar    1  UNL1        0.0808
      6 C          61.7858   87.2321    9.7764 C.ar    1  UNL1        0.0080
      7 C          62.4017   88.3295   10.3833 C.ar    1  UNL1        0.0148
      8 C          61.9454   89.6315   10.1286 C.ar    1  UNL1        0.0502
      9 C          60.8585   89.8162    9.2596 C.ar    1  UNL1        0.0443
     10 C          60.2377   88.7203    8.6519 C.ar    1  UNL1        0.1457
     11 F          59.2264   88.9476    7.7757 F       1  UNL1       -0.2040
     12 N          62.5726   90.7620   10.7637 N.pl3   1  UNL1       -0.3040
     13 C          62.3125   91.0683   12.1777 C.3     1  UNL1        0.1122
     14 C          63.6388   91.1524   12.9417 C.3     1  UNL1        0.1122
     15 N          64.6554   91.8894   12.1731 N.pl3   1  UNL1       -0.3040
     16 C          64.2760   92.5609   10.9218 C.3     1  UNL1        0.1122
     17 C          63.5398   91.5747   10.0078 C.3     1  UNL1        0.1122
     18 C          66.0255   91.8824   12.6177 C.ar    1  UNL1        0.0488
     19 C          67.0758   91.8597   11.6859 C.ar    1  UNL1        0.0154
     20 C          68.4044   91.8653   12.1184 C.ar    1  UNL1        0.0135
     21 C          68.7023   91.8997   13.4846 C.ar    1  UNL1        0.0683
     22 CL         70.3866   91.9065   13.9896 Cl      1  UNL1       -0.0814
     23 C          67.6591   91.9307   14.4247 C.ar    1  UNL1        0.0694
     24 CL         67.9892   91.9859   16.1511 Cl      1  UNL1       -0.0813
     25 C          66.3287   91.9240   13.9893 C.ar    1  UNL1        0.0268
     26 C          59.3036   83.8112    8.4406 C.3     1  UNL1        0.1535
     27 C          60.0340   82.5038    8.6430 C.2     1  UNL1        0.2443
     28 O          60.1391   81.6920    7.6830 O.2     1  UNL1       -0.2730
     29 N          60.7168   82.2567    9.8836 N.am    1  UNL1       -0.2825
     30 H          60.7850   83.0446   10.5673 H       1  UNL1        0.1549
     31 C          61.4931   81.0780   10.1492 C.ar    1  UNL1        0.0535
     32 C          61.8501   80.1879    9.1233 C.ar    1  UNL1        0.0353
     33 C          62.5893   79.0431    9.4324 C.ar    1  UNL1        0.1002
     34 N          62.9481   78.7889   10.7188 N.ar    1  UNL1       -0.2422
     35 C          62.6017   79.6248   11.7332 C.ar    1  UNL1        0.1002
     36 C          61.8616   80.7792   11.4679 C.ar    1  UNL1        0.0353
     37 C          57.9492   83.7926    9.1746 C.3     1  UNL1        0.0569
     38 C          58.0322   83.0294   10.4665 C.ar    1  UNL1       -0.0016
     39 C          58.3133   83.5590   11.7217 C.ar    1  UNL1        0.0681
     40 N          58.4542   82.5688   12.6315 N.ar    1  UNL1       -0.3519
     41 C          58.2775   81.4157   11.9602 C.ar    1  UNL1        0.0617
     42 C          58.3666   80.1129   12.4600 C.ar    1  UNL1        0.0456
     43 I          58.7817   79.7166   14.4931 I       1  UNL1       -0.0410
     44 C          58.1799   79.0498   11.5560 C.ar    1  UNL1        0.0072
     45 C          57.9197   79.3047   10.1918 C.ar    1  UNL1        0.0005
     46 C          57.8419   80.6250    9.7157 C.ar    1  UNL1        0.0012
     47 C          58.0211   81.6591   10.6339 C.ar    1  UNL1        0.0135
     48 H          58.6839   82.6870   13.6430 H       1  UNL1        0.1660
@<TRIPOS>BOND
     1     1     2    2
     2     2     3   am
     3     3    26    1
     4    26    37    1
     5    37    38    1
     6    38    39   ar
     7    39    40   ar
     8    40    41   ar
     9    41    42   ar
    10    42    43    1
    11    42    44   ar
    12    44    45   ar
    13    45    46   ar
    14    46    47   ar
    15    26    27    1
    16    27    28    2
    17    27    29   am
    18    29    31    1
    19    31    32   ar
    20    32    33   ar
    21    33    34   ar
    22    34    35   ar
    23    35    36   ar
    24     2     5    1
    25     5     6   ar
    26     6     7   ar
    27     7     8   ar
    28     8    12    1
    29    12    13    1
    30    13    14    1
    31    14    15    1
    32    15    18    1
    33    18    19   ar
    34    19    20   ar
    35    20    21   ar
    36    21    22    1
    37    21    23   ar
    38    23    24    1
    39    23    25   ar
    40    15    16    1
    41    16    17    1
    42     8     9   ar
    43     9    10   ar
    44    10    11    1
    45    47    38   ar
    46    36    31   ar
    47    10     5   ar
    48    47    41   ar
    49    17    12    1
    50    25    18   ar
    51     3     4    1
    52    40    48    1
    53    29    30    1
@<TRIPOS>MOLECULE
*****
 48 53 0 0 0
SMALL
GASTEIGER

@<TRIPOS>ATOM
      1 O          64.2650   89.5472   15.5631 O.2     1  UNL1       -0.2701
      2 C          64.0964   89.0531   14.4146 C.2     1  UNL1        0.2483
      3 N          64.1209   89.9074   13.2594 N.am    1  UNL1       -0.2945
      4 H          64.2326   89.4647   12.3193 H       1  UNL1        0.1501
      5 C          63.9101   87.5911   14.2754 C.ar    1  UNL1        0.0808
      6 C          64.1182   86.7564   15.3861 C.ar    1  UNL1        0.0080
      7 C          63.9517   85.3735   15.2774 C.ar    1  UNL1        0.0148
      8 C          63.5574   84.7985   14.0599 C.ar    1  UNL1        0.0502
      9 C          63.3373   85.6311   12.9513 C.ar    1  UNL1        0.0443
     10 C          63.5051   87.0155   13.0553 C.ar    1  UNL1        0.1457
     11 F          63.2281   87.7884   11.9746 F       1  UNL1       -0.2040
     12 N          63.3974   83.3717   13.9445 N.pl3   1  UNL1       -0.3040
     13 C          62.8572   82.5842   15.0620 C.3     1  UNL1        0.1122
     14 C          61.6502   81.7684   14.5848 C.3     1  UNL1        0.1122
     15 N          61.9013   81.1579   13.2688 N.pl3   1  UNL1       -0.3040
     16 C          63.2400   81.2481   12.6685 C.3     1  UNL1        0.1122
     17 C          63.7100   82.7072   12.6686 C.3     1  UNL1        0.1122
     18 C          60.8138   80.5432   12.5516 C.ar    1  UNL1        0.0488
     19 C          59.9906   79.5965   13.1822 C.ar    1  UNL1        0.0154
     20 C          58.9285   79.0102   12.4889 C.ar    1  UNL1        0.0135
     21 C          58.6705   79.3649   11.1607 C.ar    1  UNL1        0.0683
     22 CL         57.3242   78.6056   10.3221 Cl      1  UNL1       -0.0814
     23 C          59.4830   80.3169   10.5233 C.ar    1  UNL1        0.0694
     24 CL         59.1868   80.7999    8.8585 Cl      1  UNL1       -0.0813
     25 C          60.5472   80.9023   11.2193 C.ar    1  UNL1        0.0268
     26 C          64.0691   91.3701   13.3728 C.3     1  UNL1        0.1535
     27 C          65.4603   91.9512   13.4756 C.2     1  UNL1        0.2443
     28 O          65.8959   92.6952   12.5547 O.2     1  UNL1       -0.2730
     29 N          66.2214   91.7619   14.6804 N.am    1  UNL1       -0.2825
     30 H          65.7385   91.3246   15.4979 H       1  UNL1        0.1549
     31 C          67.5223   92.3284   14.9027 C.ar    1  UNL1        0.0535
     32 C          67.7378   93.3085   15.8853 C.ar    1  UNL1        0.0353
     33 C          69.0169   93.8455   16.0519 C.ar    1  UNL1        0.1002
     34 N          70.0405   93.4298   15.2597 N.ar    1  UNL1       -0.2422
     35 C          69.8562   92.4949   14.2903 C.ar    1  UNL1        0.1002
     36 C          68.5930   91.9338   14.0892 C.ar    1  UNL1        0.0353
     37 C          63.3223   91.9669   12.1647 C.3     1  UNL1        0.0569
     38 C          62.7562   90.8919   11.2801 C.ar    1  UNL1       -0.0016
     39 C          63.1058   90.6423    9.9570 C.ar    1  UNL1        0.0681
     40 N          62.2955   89.7004    9.4239 N.ar    1  UNL1       -0.3519
     41 C          61.4270   89.3607   10.3945 C.ar    1  UNL1        0.0617
     42 C          60.3668   88.4527   10.3141 C.ar    1  UNL1        0.0456
     43 I          59.9521   87.3648    8.5513 I       1  UNL1       -0.0410
     44 C          59.5595   88.2849   11.4552 C.ar    1  UNL1        0.0072
     45 C          59.8181   89.0207   12.6322 C.ar    1  UNL1        0.0005
     46 C          60.8873   89.9318   12.6826 C.ar    1  UNL1        0.0012
     47 C          61.6770   90.0716   11.5418 C.ar    1  UNL1        0.0135
     48 H          62.3280   89.3394    8.4449 H       1  UNL1        0.1660
@<TRIPOS>BOND
     1     1     2    2
     2     2     3   am
     3     3    26    1
     4    26    37    1
     5    37    38    1
     6    38    39   ar
     7    39    40   ar
     8    40    41   ar
     9    41    42   ar
    10    42    43    1
    11    42    44   ar
    12    44    45   ar
    13    45    46   ar
    14    46    47   ar
    15    26    27    1
    16    27    28    2
    17    27    29   am
    18    29    31    1
    19    31    32   ar
    20    32    33   ar
    21    33    34   ar
    22    34    35   ar
    23    35    36   ar
    24     2     5    1
    25     5     6   ar
    26     6     7   ar
    27     7     8   ar
    28     8    12    1
    29    12    13    1
    30    13    14    1
    31    14    15    1
    32    15    18    1
    33    18    19   ar
    34    19    20   ar
    35    20    21   ar
    36    21    22    1
    37    21    23   ar
    38    23    24    1
    39    23    25   ar
    40    15    16    1
    41    16    17    1
    42     8     9   ar
    43     9    10   ar
    44    10    11    1
    45    47    38   ar
    46    36    31   ar
    47    10     5   ar
    48    47    41   ar
    49    17    12    1
    50    25    18   ar
    51     3     4    1
    52    40    48    1
    53    29    30    1
@<TRIPOS>MOLECULE
*****
 48 53 0 0 0
SMALL
GASTEIGER

@<TRIPOS>ATOM
      1 O          64.3270   88.5618   15.9866 O.2     1  UNL1       -0.2701
      2 C          64.5014   88.3674   14.7523 C.2     1  UNL1        0.2483
      3 N          65.0744   89.4053   13.9403 N.am    1  UNL1       -0.2945
      4 H          65.4407   89.1487   12.9958 H       1  UNL1        0.1501
      5 C          64.1430   87.0553   14.1680 C.ar    1  UNL1        0.0808
      6 C          63.2190   86.9956   13.1115 C.ar    1  UNL1        0.0080
      7 C          62.8630   85.7683   12.5468 C.ar    1  UNL1        0.0148
      8 C          63.4364   84.5768   13.0160 C.ar    1  UNL1        0.0502
      9 C          64.3688   84.6344   14.0639 C.ar    1  UNL1        0.0443
     10 C          64.7260   85.8605   14.6334 C.ar    1  UNL1        0.1457
     11 F          65.6723   85.8760   15.6062 F       1  UNL1       -0.2040
     12 N          63.0604   83.3104   12.4420 N.pl3   1  UNL1       -0.3040
     13 C          62.0884   82.4390   13.1178 C.3     1  UNL1        0.1122
     14 C          60.9425   82.0992   12.1577 C.3     1  UNL1        0.1122
     15 N          61.4462   81.7842   10.8107 N.pl3   1  UNL1       -0.3040
     16 C          62.8941   81.6737   10.5829 C.3     1  UNL1        0.1122
     17 C          63.6007   82.9194   11.1296 C.3     1  UNL1        0.1122
     18 C          60.5181   81.6607    9.7160 C.ar    1  UNL1        0.0488
     19 C          60.6835   80.6519    8.7534 C.ar    1  UNL1        0.0154
     20 C          59.7755   80.5257    7.6989 C.ar    1  UNL1        0.0135
     21 C          58.6884   81.3996    7.5945 C.ar    1  UNL1        0.0683
     22 CL         57.5669   81.2083    6.2537 Cl      1  UNL1       -0.0814
     23 C          58.5093   82.4071    8.5568 C.ar    1  UNL1        0.0694
     24 CL         57.1502   83.5196    8.4696 Cl      1  UNL1       -0.0813
     25 C          59.4208   82.5325    9.6118 C.ar    1  UNL1        0.0268
     26 C          65.2230   90.7817   14.4286 C.3     1  UNL1        0.1535
     27 C          66.2137   91.5482   13.5833 C.2     1  UNL1        0.2443
     28 O          67.4136   91.6451   13.9608 O.2     1  UNL1       -0.2730
     29 N          65.8136   92.0434   12.2944 N.am    1  UNL1       -0.2825
     30 H          64.8775   91.7536   11.9304 H       1  UNL1        0.1549
     31 C          66.6967   92.7237   11.3888 C.ar    1  UNL1        0.0535
     32 C          66.4711   94.0559   11.0057 C.ar    1  UNL1        0.0353
     33 C          67.3462   94.6703   10.1062 C.ar    1  UNL1        0.1002
     34 N          68.3999   93.9779    9.5978 N.ar    1  UNL1       -0.2422
     35 C          68.6321   92.6827    9.9387 C.ar    1  UNL1        0.1002
     36 C          67.7806   92.0304   10.8334 C.ar    1  UNL1        0.0353
     37 C          63.8550   91.4904   14.4337 C.3     1  UNL1        0.0569
     38 C          62.8298   90.7163   13.6539 C.ar    1  UNL1       -0.0016
     39 C          61.9176   89.8016   14.1700 C.ar    1  UNL1        0.0681
     40 N          61.2490   89.1852   13.1695 N.ar    1  UNL1       -0.3519
     41 C          61.7395   89.6925   12.0233 C.ar    1  UNL1        0.0617
     42 C          61.3935   89.3405   10.7151 C.ar    1  UNL1        0.0456
     43 I          59.9186   87.8870   10.2967 I       1  UNL1       -0.0410
     44 C          62.0723   89.9829    9.6621 C.ar    1  UNL1        0.0072
     45 C          63.0720   90.9427    9.9321 C.ar    1  UNL1        0.0005
     46 C          63.4040   91.2724   11.2576 C.ar    1  UNL1        0.0012
     47 C          62.7098   90.6285   12.2814 C.ar    1  UNL1        0.0135
     48 H          60.5218   88.4441   13.2769 H       1  UNL1        0.1660
@<TRIPOS>BOND
     1     1     2    2
     2     2     3   am
     3     3    26    1
     4    26    37    1
     5    37    38    1
     6    38    39   ar
     7    39    40   ar
     8    40    41   ar
     9    41    42   ar
    10    42    43    1
    11    42    44   ar
    12    44    45   ar
    13    45    46   ar
    14    46    47   ar
    15    26    27    1
    16    27    28    2
    17    27    29   am
    18    29    31    1
    19    31    32   ar
    20    32    33   ar
    21    33    34   ar
    22    34    35   ar
    23    35    36   ar
    24     2     5    1
    25     5     6   ar
    26     6     7   ar
    27     7     8   ar
    28     8    12    1
    29    12    13    1
    30    13    14    1
    31    14    15    1
    32    15    18    1
    33    18    19   ar
    34    19    20   ar
    35    20    21   ar
    36    21    22    1
    37    21    23   ar
    38    23    24    1
    39    23    25   ar
    40    15    16    1
    41    16    17    1
    42     8     9   ar
    43     9    10   ar
    44    10    11    1
    45    47    38   ar
    46    36    31   ar
    47    10     5   ar
    48    47    41   ar
    49    17    12    1
    50    25    18   ar
    51     3     4    1
    52    40    48    1
    53    29    30    1
