@<TRIPOS>MOLECULE
*****
 51 56 0 0 0
SMALL
GASTEIGER

@<TRIPOS>ATOM
      1 O          13.8909   83.1111   26.0681 O.2     1  UNL1       -0.2701
      2 C          13.3372   82.6415   25.0363 C.2     1  UNL1        0.2483
      3 N          13.5135   83.2915   23.7661 N.am    1  UNL1       -0.2945
      4 H          12.9202   82.9856   22.9617 H       1  UNL1        0.1501
      5 C          12.4679   81.4526   25.1639 C.ar    1  UNL1        0.0808
      6 C          11.1129   81.6198   25.4941 C.ar    1  UNL1        0.0080
      7 C          10.2681   80.5131   25.6082 C.ar    1  UNL1        0.0148
      8 C          10.7653   79.2170   25.4067 C.ar    1  UNL1        0.0503
      9 C          12.1218   79.0459   25.0900 C.ar    1  UNL1        0.0443
     10 C          12.9701   80.1514   24.9721 C.ar    1  UNL1        0.1457
     11 F          14.2857   79.9411   24.7138 F       1  UNL1       -0.2040
     12 N           9.8936   78.0768   25.5154 N.pl3   1  UNL1       -0.3020
     13 C          10.3439   76.8865   26.2496 C.3     1  UNL1        0.1124
     14 C           9.2828   75.7764   26.2487 C.3     1  UNL1        0.1157
     15 N           7.9424   76.3102   26.5539 N.pl3   1  UNL1       -0.2686
     16 C           7.5369   77.6254   26.0183 C.3     1  UNL1        0.2101
     17 O           7.4673   78.5499   27.0726 O.3     1  UNL1       -0.3658
     18 C           8.5358   78.1212   24.9640 C.3     1  UNL1        0.1420
     19 H           6.9155   79.3104   26.7518 H       1  UNL1        0.2123
     20 C           6.9730   75.4473   27.1982 C.ar    1  UNL1        0.1334
     21 C           6.7581   74.1248   26.7679 C.ar    1  UNL1        0.0343
     22 C           5.8147   73.3289   27.4197 C.ar    1  UNL1        0.0083
     23 C           5.0671   73.8470   28.4866 C.ar    1  UNL1        0.0906
     24 C           5.3255   75.1607   28.9035 C.ar    1  UNL1        0.1041
     25 N           6.2506   75.9162   28.2552 N.ar    1  UNL1       -0.2292
     26 C           4.0818   72.9814   29.2298 C.3     1  UNL1        0.4200
     27 F           4.3145   71.6552   28.9168 F       1  UNL1       -0.1658
     28 F           2.7835   73.3071   28.8777 F       1  UNL1       -0.1658
     29 F           4.2156   73.1525   30.5969 F       1  UNL1       -0.1658
     30 C          14.2696   84.5387   23.6153 C.3     1  UNL1        0.1535
     31 C          14.6778   84.7031   22.1753 C.2     1  UNL1        0.2443
     32 O          15.6554   84.0446   21.7253 O.2     1  UNL1       -0.2730
     33 N          14.0121   85.6702   21.3472 N.am    1  UNL1       -0.2825
     34 H          13.4514   86.4148   21.8204 H       1  UNL1        0.1549
     35 C          14.1589   85.7432   19.9187 C.ar    1  UNL1        0.0535
     36 C          13.9564   86.9675   19.2668 C.ar    1  UNL1        0.0353
     37 C          14.0754   87.0391   17.8768 C.ar    1  UNL1        0.1002
     38 N          14.3698   85.9230   17.1592 N.ar    1  UNL1       -0.2422
     39 C          14.5524   84.7178   17.7606 C.ar    1  UNL1        0.1002
     40 C          14.4436   84.6025   19.1488 C.ar    1  UNL1        0.0353
     41 C          13.4246   85.7375   24.0834 C.3     1  UNL1        0.0569
     42 C          14.2886   86.8210   24.6612 C.ar    1  UNL1       -0.0017
     43 C          14.8497   87.8898   23.9677 C.ar    1  UNL1        0.0681
     44 N          15.4653   88.7370   24.8236 N.ar    1  UNL1       -0.3523
     45 C          15.2874   88.2190   26.0513 C.ar    1  UNL1        0.0563
     46 C          15.7140   88.7562   27.2648 C.ar    1  UNL1        0.0170
     47 C          15.3864   88.0606   28.4432 C.ar    1  UNL1        0.0015
     48 C          14.6430   86.8608   28.3831 C.ar    1  UNL1        0.0001
     49 C          14.2221   86.3443   27.1442 C.ar    1  UNL1        0.0012
     50 C          14.5697   87.0517   25.9933 C.ar    1  UNL1        0.0131
     51 H          15.9554   89.6259   24.5785 H       1  UNL1        0.1660
@<TRIPOS>BOND
     1     1     2    2
     2     2     3   am
     3     3    30    1
     4    30    41    1
     5    41    42    1
     6    42    43   ar
     7    43    44   ar
     8    44    45   ar
     9    45    46   ar
    10    46    47   ar
    11    47    48   ar
    12    48    49   ar
    13    49    50   ar
    14    30    31    1
    15    31    32    2
    16    31    33   am
    17    33    35    1
    18    35    36   ar
    19    36    37   ar
    20    37    38   ar
    21    38    39   ar
    22    39    40   ar
    23     2     5    1
    24     5     6   ar
    25     6     7   ar
    26     7     8   ar
    27     8    12    1
    28    12    13    1
    29    13    14    1
    30    14    15    1
    31    15    20    1
    32    20    21   ar
    33    21    22   ar
    34    22    23   ar
    35    23    26    1
    36    26    27    1
    37    26    28    1
    38    26    29    1
    39    23    24   ar
    40    24    25   ar
    41    15    16    1
    42    16    17    1
    43    16    18    1
    44     8     9   ar
    45     9    10   ar
    46    10    11    1
    47    50    42   ar
    48    40    35   ar
    49    10     5   ar
    50    50    45   ar
    51    18    12    1
    52    25    20   ar
    53     3     4    1
    54    44    51    1
    55    33    34    1
    56    17    19    1
@<TRIPOS>MOLECULE
*****
 51 56 0 0 0
SMALL
GASTEIGER

@<TRIPOS>ATOM
      1 O          10.4149   75.7356   26.3445 O.2     1  UNL1       -0.2701
      2 C           9.3641   76.4288   26.2617 C.2     1  UNL1        0.2483
      3 N           9.0775   77.4231   27.2600 N.am    1  UNL1       -0.2945
      4 H           8.1319   77.8686   27.2643 H       1  UNL1        0.1501
      5 C           8.4139   76.1667   25.1599 C.ar    1  UNL1        0.0808
      6 C           8.8877   75.6265   23.9530 C.ar    1  UNL1        0.0080
      7 C           8.0080   75.3581   22.9015 C.ar    1  UNL1        0.0148
      8 C           6.6394   75.6366   23.0325 C.ar    1  UNL1        0.0503
      9 C           6.1652   76.1889   24.2325 C.ar    1  UNL1        0.0443
     10 C           7.0422   76.4565   25.2884 C.ar    1  UNL1        0.1457
     11 F           6.5528   77.0367   26.4134 F       1  UNL1       -0.2040
     12 N           5.7309   75.3521   21.9529 N.pl3   1  UNL1       -0.3020
     13 C           5.3104   73.9665   21.7043 C.3     1  UNL1        0.1124
     14 C           4.3502   73.8639   20.5103 C.3     1  UNL1        0.1157
     15 N           3.3056   74.9033   20.5664 N.pl3   1  UNL1       -0.2686
     16 C           3.6456   76.2607   21.0382 C.3     1  UNL1        0.2101
     17 O           3.0545   76.4730   22.2938 O.3     1  UNL1       -0.3658
     18 C           5.1659   76.4397   21.1481 C.3     1  UNL1        0.1420
     19 H           3.0363   77.4548   22.4404 H       1  UNL1        0.2123
     20 C           2.0154   74.6353   19.9637 C.ar    1  UNL1        0.1334
     21 C           1.3261   75.6147   19.2247 C.ar    1  UNL1        0.0343
     22 C           0.0860   75.3114   18.6605 C.ar    1  UNL1        0.0083
     23 C          -0.4842   74.0437   18.8434 C.ar    1  UNL1        0.0906
     24 C           0.2425   73.0856   19.5647 C.ar    1  UNL1        0.1041
     25 N           1.4493   73.4029   20.1030 N.ar    1  UNL1       -0.2292
     26 C          -1.7990   73.6891   18.1969 C.3     1  UNL1        0.4200
     27 F          -2.8342   74.1644   18.9801 F       1  UNL1       -0.1658
     28 F          -1.9246   72.3168   18.0674 F       1  UNL1       -0.1658
     29 F          -1.8912   74.2532   16.9362 F       1  UNL1       -0.1658
     30 C           9.9321   77.6343   28.4325 C.3     1  UNL1        0.1535
     31 C           9.7839   79.0553   28.9079 C.2     1  UNL1        0.2443
     32 O           9.3733   79.9406   28.1082 O.2     1  UNL1       -0.2730
     33 N          10.1926   79.4128   30.2381 N.am    1  UNL1       -0.2825
     34 H          10.8217   78.7529   30.7494 H       1  UNL1        0.1549
     35 C           9.8814   80.6688   30.8651 C.ar    1  UNL1        0.0535
     36 C           9.1360   80.6804   32.0521 C.ar    1  UNL1        0.0353
     37 C           8.8114   81.8988   32.6533 C.ar    1  UNL1        0.1002
     38 N           9.2027   83.0675   32.0804 N.ar    1  UNL1       -0.2422
     39 C           9.9094   83.0895   30.9195 C.ar    1  UNL1        0.1002
     40 C          10.2560   81.8933   30.2860 C.ar    1  UNL1        0.0353
     41 C           9.5617   76.6431   29.5509 C.3     1  UNL1        0.0569
     42 C           8.0737   76.5566   29.7319 C.ar    1  UNL1       -0.0017
     43 C           7.2543   77.5174   30.3180 C.ar    1  UNL1        0.0681
     44 N           5.9541   77.1634   30.2021 N.ar    1  UNL1       -0.3523
     45 C           5.9451   75.9947   29.5378 C.ar    1  UNL1        0.0563
     46 C           4.8309   75.2522   29.1497 C.ar    1  UNL1        0.0170
     47 C           5.0511   74.0660   28.4257 C.ar    1  UNL1        0.0015
     48 C           6.3645   73.6566   28.1044 C.ar    1  UNL1        0.0001
     49 C           7.4700   74.4284   28.5058 C.ar    1  UNL1        0.0012
     50 C           7.2201   75.5944   29.2296 C.ar    1  UNL1        0.0131
     51 H           5.1269   77.7046   30.5386 H       1  UNL1        0.1660
@<TRIPOS>BOND
     1     1     2    2
     2     2     3   am
     3     3    30    1
     4    30    41    1
     5    41    42    1
     6    42    43   ar
     7    43    44   ar
     8    44    45   ar
     9    45    46   ar
    10    46    47   ar
    11    47    48   ar
    12    48    49   ar
    13    49    50   ar
    14    30    31    1
    15    31    32    2
    16    31    33   am
    17    33    35    1
    18    35    36   ar
    19    36    37   ar
    20    37    38   ar
    21    38    39   ar
    22    39    40   ar
    23     2     5    1
    24     5     6   ar
    25     6     7   ar
    26     7     8   ar
    27     8    12    1
    28    12    13    1
    29    13    14    1
    30    14    15    1
    31    15    20    1
    32    20    21   ar
    33    21    22   ar
    34    22    23   ar
    35    23    26    1
    36    26    27    1
    37    26    28    1
    38    26    29    1
    39    23    24   ar
    40    24    25   ar
    41    15    16    1
    42    16    17    1
    43    16    18    1
    44     8     9   ar
    45     9    10   ar
    46    10    11    1
    47    50    42   ar
    48    40    35   ar
    49    10     5   ar
    50    50    45   ar
    51    18    12    1
    52    25    20   ar
    53     3     4    1
    54    44    51    1
    55    33    34    1
    56    17    19    1
@<TRIPOS>MOLECULE
*****
 51 56 0 0 0
SMALL
GASTEIGER

@<TRIPOS>ATOM
      1 O           7.7214   74.3306   24.9209 O.2     1  UNL1       -0.2701
      2 C           7.9851   75.1872   24.0329 C.2     1  UNL1        0.2483
      3 N           7.4234   75.0547   22.7160 N.am    1  UNL1       -0.2945
      4 H           7.7807   75.6766   21.9557 H       1  UNL1        0.1501
      5 C           8.9164   76.2903   24.3511 C.ar    1  UNL1        0.0808
      6 C           8.5043   77.6193   24.1589 C.ar    1  UNL1        0.0080
      7 C           9.3612   78.6795   24.4640 C.ar    1  UNL1        0.0148
      8 C          10.6514   78.4306   24.9551 C.ar    1  UNL1        0.0503
      9 C          11.0708   77.1033   25.1353 C.ar    1  UNL1        0.0443
     10 C          10.2148   76.0393   24.8337 C.ar    1  UNL1        0.1457
     11 F          10.6751   74.7703   24.9744 F       1  UNL1       -0.2040
     12 N          11.5319   79.5224   25.2780 N.pl3   1  UNL1       -0.3020
     13 C          12.8629   79.5886   24.6595 C.3     1  UNL1        0.1124
     14 C          13.6548   80.8165   25.1324 C.3     1  UNL1        0.1157
     15 N          12.8237   82.0346   25.1153 N.pl3   1  UNL1       -0.2686
     16 C          11.4034   81.9595   25.5124 C.3     1  UNL1        0.2101
     17 O          10.5979   82.1399   24.3767 O.3     1  UNL1       -0.3658
     18 C          11.0845   80.6051   26.1598 C.3     1  UNL1        0.1420
     19 H           9.6933   82.3874   24.7026 H       1  UNL1        0.2123
     20 C          13.4637   83.3183   24.9102 C.ar    1  UNL1        0.1334
     21 C          13.7368   84.1886   25.9819 C.ar    1  UNL1        0.0343
     22 C          14.3565   85.4152   25.7374 C.ar    1  UNL1        0.0083
     23 C          14.6893   85.7921   24.4287 C.ar    1  UNL1        0.0906
     24 C          14.4243   84.8891   23.3890 C.ar    1  UNL1        0.1041
     25 N          13.8223   83.6993   23.6512 N.ar    1  UNL1       -0.2292
     26 C          15.4038   87.0916   24.1585 C.3     1  UNL1        0.4200
     27 F          15.5701   87.7754   25.3484 F       1  UNL1       -0.1658
     28 F          14.6730   87.8778   23.2847 F       1  UNL1       -0.1658
     29 F          16.6462   86.8578   23.5950 F       1  UNL1       -0.1658
     30 C           6.5910   73.9133   22.3236 C.3     1  UNL1        0.1535
     31 C           5.2864   74.4164   21.7649 C.2     1  UNL1        0.2443
     32 O           4.4435   74.9524   22.5358 O.2     1  UNL1       -0.2730
     33 N           4.9707   74.2055   20.3793 N.am    1  UNL1       -0.2825
     34 H           5.5204   73.4856   19.8574 H       1  UNL1        0.1549
     35 C           3.8760   74.8415   19.6977 C.ar    1  UNL1        0.0535
     36 C           4.1410   75.7200   18.6381 C.ar    1  UNL1        0.0353
     37 C           3.0824   76.3581   17.9872 C.ar    1  UNL1        0.1002
     38 N           1.8031   76.1403   18.3910 N.ar    1  UNL1       -0.2422
     39 C           1.5155   75.3096   19.4277 C.ar    1  UNL1        0.1002
     40 C           2.5446   74.6505   20.1051 C.ar    1  UNL1        0.0353
     41 C           7.3282   73.0429   21.2894 C.3     1  UNL1        0.0569
     42 C           8.5886   72.4636   21.8638 C.ar    1  UNL1       -0.0017
     43 C           8.7747   71.1536   22.2968 C.ar    1  UNL1        0.0681
     44 N          10.0669   70.9486   22.6393 N.ar    1  UNL1       -0.3523
     45 C          10.6999   72.1132   22.4150 C.ar    1  UNL1        0.0563
     46 C          12.0564   72.3843   22.5877 C.ar    1  UNL1        0.0170
     47 C          12.5169   73.6717   22.2559 C.ar    1  UNL1        0.0015
     48 C          11.6227   74.6461   21.7590 C.ar    1  UNL1        0.0001
     49 C          10.2593   74.3427   21.5911 C.ar    1  UNL1        0.0012
     50 C           9.8314   73.0608   21.9368 C.ar    1  UNL1        0.0131
     51 H          10.4883   70.0570   22.9828 H       1  UNL1        0.1660
@<TRIPOS>BOND
     1     1     2    2
     2     2     3   am
     3     3    30    1
     4    30    41    1
     5    41    42    1
     6    42    43   ar
     7    43    44   ar
     8    44    45   ar
     9    45    46   ar
    10    46    47   ar
    11    47    48   ar
    12    48    49   ar
    13    49    50   ar
    14    30    31    1
    15    31    32    2
    16    31    33   am
    17    33    35    1
    18    35    36   ar
    19    36    37   ar
    20    37    38   ar
    21    38    39   ar
    22    39    40   ar
    23     2     5    1
    24     5     6   ar
    25     6     7   ar
    26     7     8   ar
    27     8    12    1
    28    12    13    1
    29    13    14    1
    30    14    15    1
    31    15    20    1
    32    20    21   ar
    33    21    22   ar
    34    22    23   ar
    35    23    26    1
    36    26    27    1
    37    26    28    1
    38    26    29    1
    39    23    24   ar
    40    24    25   ar
    41    15    16    1
    42    16    17    1
    43    16    18    1
    44     8     9   ar
    45     9    10   ar
    46    10    11    1
    47    50    42   ar
    48    40    35   ar
    49    10     5   ar
    50    50    45   ar
    51    18    12    1
    52    25    20   ar
    53     3     4    1
    54    44    51    1
    55    33    34    1
    56    17    19    1
@<TRIPOS>MOLECULE
*****
 51 56 0 0 0
SMALL
GASTEIGER

@<TRIPOS>ATOM
      1 O          10.6196   74.7040   25.7328 O.2     1  UNL1       -0.2701
      2 C           9.9907   75.7521   25.4201 C.2     1  UNL1        0.2483
      3 N          10.2866   76.9934   26.0826 N.am    1  UNL1       -0.2945
      4 H           9.6486   77.8068   25.9276 H       1  UNL1        0.1501
      5 C           8.9166   75.6718   24.4076 C.ar    1  UNL1        0.0808
      6 C           9.2537   75.6297   23.0447 C.ar    1  UNL1        0.0080
      7 C           8.2575   75.5411   22.0693 C.ar    1  UNL1        0.0148
      8 C           6.9045   75.5057   22.4379 C.ar    1  UNL1        0.0503
      9 C           6.5641   75.5612   23.7984 C.ar    1  UNL1        0.0443
     10 C           7.5585   75.6472   24.7779 C.ar    1  UNL1        0.1457
     11 F           7.1869   75.7491   26.0792 F       1  UNL1       -0.2040
     12 N           5.8778   75.4055   21.4341 N.pl3   1  UNL1       -0.3020
     13 C           5.5793   74.1003   20.8292 C.3     1  UNL1        0.1124
     14 C           4.4641   74.1969   19.7777 C.3     1  UNL1        0.1157
     15 N           3.3325   75.0082   20.2637 N.pl3   1  UNL1       -0.2686
     16 C           3.5895   76.2113   21.0806 C.3     1  UNL1        0.2101
     17 O           3.1786   75.9674   22.4007 O.3     1  UNL1       -0.3658
     18 C           5.0795   76.5785   21.0647 C.3     1  UNL1        0.1420
     19 H           3.0752   76.8530   22.8376 H       1  UNL1        0.2123
     20 C           2.0025   74.7309   19.7599 C.ar    1  UNL1        0.1334
     21 C           1.2314   75.7207   19.1225 C.ar    1  UNL1        0.0343
     22 C          -0.0447   75.4080   18.6514 C.ar    1  UNL1        0.0083
     23 C          -0.5687   74.1197   18.8280 C.ar    1  UNL1        0.0906
     24 C           0.2376   73.1528   19.4456 C.ar    1  UNL1        0.1041
     25 N           1.4780   73.4797   19.8942 N.ar    1  UNL1       -0.2292
     26 C          -1.9250   73.7569   18.2791 C.3     1  UNL1        0.4200
     27 F          -2.9033   74.2343   19.1311 F       1  UNL1       -0.1658
     28 F          -2.0548   72.3835   18.1674 F       1  UNL1       -0.1658
     29 F          -2.1087   74.3127   17.0247 F       1  UNL1       -0.1658
     30 C          11.2603   77.0936   27.1741 C.3     1  UNL1        0.1535
     31 C          12.5884   77.5347   26.6185 C.2     1  UNL1        0.2443
     32 O          13.6496   77.2475   27.2376 O.2     1  UNL1       -0.2730
     33 N          12.6360   78.3530   25.4385 N.am    1  UNL1       -0.2825
     34 H          11.7588   78.8412   25.1473 H       1  UNL1        0.1549
     35 C          13.8379   78.6294   24.6991 C.ar    1  UNL1        0.0535
     36 C          14.3477   77.6596   23.8249 C.ar    1  UNL1        0.0353
     37 C          15.5273   77.9140   23.1213 C.ar    1  UNL1        0.1002
     38 N          16.1857   79.0901   23.2967 N.ar    1  UNL1       -0.2422
     39 C          15.7271   80.0419   24.1518 C.ar    1  UNL1        0.1002
     40 C          14.5503   79.8282   24.8742 C.ar    1  UNL1        0.0353
     41 C          10.7629   78.0795   28.2471 C.3     1  UNL1        0.0569
     42 C           9.4012   77.6962   28.7502 C.ar    1  UNL1       -0.0017
     43 C           8.2805   78.5197   28.8132 C.ar    1  UNL1        0.0681
     44 N           7.1958   77.8120   29.2029 N.ar    1  UNL1       -0.3523
     45 C           7.6193   76.5476   29.3744 C.ar    1  UNL1        0.0563
     46 C           6.8528   75.4426   29.7415 C.ar    1  UNL1        0.0170
     47 C           7.4976   74.1950   29.8289 C.ar    1  UNL1        0.0015
     48 C           8.8768   74.0805   29.5448 C.ar    1  UNL1        0.0001
     49 C           9.6243   75.2125   29.1725 C.ar    1  UNL1        0.0012
     50 C           8.9590   76.4366   29.1031 C.ar    1  UNL1        0.0131
     51 H           6.2231   78.1733   29.3198 H       1  UNL1        0.1660
@<TRIPOS>BOND
     1     1     2    2
     2     2     3   am
     3     3    30    1
     4    30    41    1
     5    41    42    1
     6    42    43   ar
     7    43    44   ar
     8    44    45   ar
     9    45    46   ar
    10    46    47   ar
    11    47    48   ar
    12    48    49   ar
    13    49    50   ar
    14    30    31    1
    15    31    32    2
    16    31    33   am
    17    33    35    1
    18    35    36   ar
    19    36    37   ar
    20    37    38   ar
    21    38    39   ar
    22    39    40   ar
    23     2     5    1
    24     5     6   ar
    25     6     7   ar
    26     7     8   ar
    27     8    12    1
    28    12    13    1
    29    13    14    1
    30    14    15    1
    31    15    20    1
    32    20    21   ar
    33    21    22   ar
    34    22    23   ar
    35    23    26    1
    36    26    27    1
    37    26    28    1
    38    26    29    1
    39    23    24   ar
    40    24    25   ar
    41    15    16    1
    42    16    17    1
    43    16    18    1
    44     8     9   ar
    45     9    10   ar
    46    10    11    1
    47    50    42   ar
    48    40    35   ar
    49    10     5   ar
    50    50    45   ar
    51    18    12    1
    52    25    20   ar
    53     3     4    1
    54    44    51    1
    55    33    34    1
    56    17    19    1
@<TRIPOS>MOLECULE
*****
 51 56 0 0 0
SMALL
GASTEIGER

@<TRIPOS>ATOM
      1 O           8.0619   74.5015   25.4060 O.2     1  UNL1       -0.2701
      2 C           8.0418   75.4761   24.6050 C.2     1  UNL1        0.2483
      3 N           7.1675   75.4516   23.4638 N.am    1  UNL1       -0.2945
      4 H           7.2830   76.1871   22.7302 H       1  UNL1        0.1501
      5 C           8.9633   76.6103   24.8283 C.ar    1  UNL1        0.0808
      6 C          10.3177   76.4787   24.4803 C.ar    1  UNL1        0.0080
      7 C          11.2058   77.5403   24.6698 C.ar    1  UNL1        0.0148
      8 C          10.7588   78.7495   25.2228 C.ar    1  UNL1        0.0503
      9 C           9.4088   78.8792   25.5840 C.ar    1  UNL1        0.0443
     10 C           8.5161   77.8197   25.3933 C.ar    1  UNL1        0.1457
     11 F           7.2301   77.9672   25.8014 F       1  UNL1       -0.2040
     12 N          11.6712   79.8468   25.4102 N.pl3   1  UNL1       -0.3020
     13 C          12.9855   79.8179   24.7542 C.3     1  UNL1        0.1124
     14 C          13.8165   81.0677   25.0792 C.3     1  UNL1        0.1157
     15 N          13.0117   82.2976   24.9596 N.pl3   1  UNL1       -0.2686
     16 C          11.6017   82.2975   25.3987 C.3     1  UNL1        0.2101
     17 O          10.7688   82.3816   24.2716 O.3     1  UNL1       -0.3658
     18 C          11.2720   81.0236   26.1885 C.3     1  UNL1        0.1420
     19 H           9.8792   82.6826   24.5937 H       1  UNL1        0.2123
     20 C          13.6731   83.5382   24.6087 C.ar    1  UNL1        0.1334
     21 C          13.8173   84.5877   25.5351 C.ar    1  UNL1        0.0343
     22 C          14.4632   85.7647   25.1533 C.ar    1  UNL1        0.0083
     23 C          14.9503   85.9134   23.8471 C.ar    1  UNL1        0.0906
     24 C          14.8103   84.8375   22.9587 C.ar    1  UNL1        0.1041
     25 N          14.1799   83.7002   23.3534 N.ar    1  UNL1       -0.2292
     26 C          15.6935   87.1597   23.4385 C.3     1  UNL1        0.4200
     27 F          15.3925   87.4583   22.1227 F       1  UNL1       -0.1658
     28 F          17.0598   86.9743   23.5580 F       1  UNL1       -0.1658
     29 F          15.3300   88.2294   24.2384 F       1  UNL1       -0.1658
     30 C           6.3243   74.2968   23.1396 C.3     1  UNL1        0.1535
     31 C           4.9916   74.7797   22.6317 C.2     1  UNL1        0.2443
     32 O           4.2360   73.9836   22.0094 O.2     1  UNL1       -0.2730
     33 N           4.6256   76.1611   22.7792 N.am    1  UNL1       -0.2825
     34 H           5.3853   76.8477   22.9896 H       1  UNL1        0.1549
     35 C           3.3017   76.6720   22.5470 C.ar    1  UNL1        0.0535
     36 C           2.7189   76.5254   21.2807 C.ar    1  UNL1        0.0353
     37 C           1.4421   77.0399   21.0430 C.ar    1  UNL1        0.1002
     38 N           0.7757   77.6938   22.0308 N.ar    1  UNL1       -0.2422
     39 C           1.3223   77.8691   23.2629 C.ar    1  UNL1        0.1002
     40 C           2.5966   77.3690   23.5430 C.ar    1  UNL1        0.0353
     41 C           7.0166   73.4048   22.0929 C.3     1  UNL1        0.0569
     42 C           8.3918   73.9124   21.7682 C.ar    1  UNL1       -0.0017
     43 C           8.7100   75.1623   21.2441 C.ar    1  UNL1        0.0681
     44 N          10.0517   75.3254   21.1936 N.ar    1  UNL1       -0.3523
     45 C          10.5824   74.1953   21.6921 C.ar    1  UNL1        0.0563
     46 C          11.9337   73.9057   21.8750 C.ar    1  UNL1        0.0170
     47 C          12.2682   72.6662   22.4508 C.ar    1  UNL1        0.0015
     48 C          11.2561   71.7572   22.8319 C.ar    1  UNL1        0.0001
     49 C           9.9001   72.0784   22.6390 C.ar    1  UNL1        0.0012
     50 C           9.6004   73.3106   22.0580 C.ar    1  UNL1        0.0131
     51 H          10.5662   76.1703   20.8590 H       1  UNL1        0.1660
@<TRIPOS>BOND
     1     1     2    2
     2     2     3   am
     3     3    30    1
     4    30    41    1
     5    41    42    1
     6    42    43   ar
     7    43    44   ar
     8    44    45   ar
     9    45    46   ar
    10    46    47   ar
    11    47    48   ar
    12    48    49   ar
    13    49    50   ar
    14    30    31    1
    15    31    32    2
    16    31    33   am
    17    33    35    1
    18    35    36   ar
    19    36    37   ar
    20    37    38   ar
    21    38    39   ar
    22    39    40   ar
    23     2     5    1
    24     5     6   ar
    25     6     7   ar
    26     7     8   ar
    27     8    12    1
    28    12    13    1
    29    13    14    1
    30    14    15    1
    31    15    20    1
    32    20    21   ar
    33    21    22   ar
    34    22    23   ar
    35    23    26    1
    36    26    27    1
    37    26    28    1
    38    26    29    1
    39    23    24   ar
    40    24    25   ar
    41    15    16    1
    42    16    17    1
    43    16    18    1
    44     8     9   ar
    45     9    10   ar
    46    10    11    1
    47    50    42   ar
    48    40    35   ar
    49    10     5   ar
    50    50    45   ar
    51    18    12    1
    52    25    20   ar
    53     3     4    1
    54    44    51    1
    55    33    34    1
    56    17    19    1
@<TRIPOS>MOLECULE
*****
 51 56 0 0 0
SMALL
GASTEIGER

@<TRIPOS>ATOM
      1 O           5.7070   73.2426   21.9113 O.2     1  UNL1       -0.2701
      2 C           5.3560   74.4064   22.2493 C.2     1  UNL1        0.2483
      3 N           4.4108   75.1344   21.4467 N.am    1  UNL1       -0.2945
      4 H           4.2588   76.1482   21.6506 H       1  UNL1        0.1501
      5 C           5.9682   75.0241   23.4447 C.ar    1  UNL1        0.0808
      6 C           6.8284   74.2620   24.2522 C.ar    1  UNL1        0.0080
      7 C           7.4292   74.8266   25.3800 C.ar    1  UNL1        0.0148
      8 C           7.1712   76.1606   25.7288 C.ar    1  UNL1        0.0503
      9 C           6.3014   76.9205   24.9313 C.ar    1  UNL1        0.0443
     10 C           5.7002   76.3598   23.8000 C.ar    1  UNL1        0.1457
     11 F           4.8268   77.1119   23.0835 F       1  UNL1       -0.2040
     12 N           7.7966   76.7457   26.8855 N.pl3   1  UNL1       -0.3020
     13 C           8.9362   77.6565   26.7116 C.3     1  UNL1        0.1124
     14 C           9.4706   78.1702   28.0566 C.3     1  UNL1        0.1157
     15 N           8.3743   78.5974   28.9456 N.pl3   1  UNL1       -0.2686
     16 C           7.1121   77.8314   28.9744 C.3     1  UNL1        0.2101
     17 O           6.0966   78.5952   28.3773 O.3     1  UNL1       -0.3658
     18 C           7.2606   76.4988   28.2277 C.3     1  UNL1        0.1420
     19 H           5.2325   78.2082   28.6763 H       1  UNL1        0.2123
     20 C           8.6284   79.6343   29.9253 C.ar    1  UNL1        0.1334
     21 C           9.5624   80.6607   29.6911 C.ar    1  UNL1        0.0343
     22 C           9.7736   81.6399   30.6631 C.ar    1  UNL1        0.0083
     23 C           9.0752   81.5941   31.8779 C.ar    1  UNL1        0.0906
     24 C           8.1350   80.5709   32.0661 C.ar    1  UNL1        0.1041
     25 N           7.9444   79.6297   31.1046 N.ar    1  UNL1       -0.2292
     26 C           9.2583   82.6739   32.9138 C.3     1  UNL1        0.4200
     27 F           8.0401   83.2788   33.1608 F       1  UNL1       -0.1658
     28 F          10.1548   83.6299   32.4689 F       1  UNL1       -0.1658
     29 F           9.7448   82.1402   34.0947 F       1  UNL1       -0.1658
     30 C           3.8692   74.6065   20.1907 C.3     1  UNL1        0.1535
     31 C           2.3866   74.8641   20.1399 C.2     1  UNL1        0.2443
     32 O           1.9214   75.9280   20.6335 O.2     1  UNL1       -0.2730
     33 N           1.5023   73.8624   19.6118 N.am    1  UNL1       -0.2825
     34 H           1.8672   72.8868   19.5230 H       1  UNL1        0.1549
     35 C           0.1172   74.0940   19.3029 C.ar    1  UNL1        0.0535
     36 C          -0.6191   73.0967   18.6486 C.ar    1  UNL1        0.0353
     37 C          -1.9588   73.3252   18.3258 C.ar    1  UNL1        0.1002
     38 N          -2.5401   74.5155   18.6302 N.ar    1  UNL1       -0.2422
     39 C          -1.8470   75.5091   19.2466 C.ar    1  UNL1        0.1002
     40 C          -0.5052   75.3214   19.5881 C.ar    1  UNL1        0.0353
     41 C           4.5775   75.2551   18.9872 C.3     1  UNL1        0.0569
     42 C           4.9105   76.6933   19.2610 C.ar    1  UNL1       -0.0017
     43 C           4.0813   77.7903   19.0439 C.ar    1  UNL1        0.0681
     44 N           4.6575   78.9187   19.5171 N.ar    1  UNL1       -0.3523
     45 C           5.8367   78.5419   20.0413 C.ar    1  UNL1        0.0563
     46 C           6.7747   79.3518   20.6799 C.ar    1  UNL1        0.0170
     47 C           7.9342   78.7388   21.1893 C.ar    1  UNL1        0.0015
     48 C           8.1250   77.3453   21.0558 C.ar    1  UNL1        0.0001
     49 C           7.1592   76.5522   20.4101 C.ar    1  UNL1        0.0012
     50 C           6.0247   77.1899   19.9081 C.ar    1  UNL1        0.0131
     51 H           4.2530   79.8813   19.5002 H       1  UNL1        0.1660
@<TRIPOS>BOND
     1     1     2    2
     2     2     3   am
     3     3    30    1
     4    30    41    1
     5    41    42    1
     6    42    43   ar
     7    43    44   ar
     8    44    45   ar
     9    45    46   ar
    10    46    47   ar
    11    47    48   ar
    12    48    49   ar
    13    49    50   ar
    14    30    31    1
    15    31    32    2
    16    31    33   am
    17    33    35    1
    18    35    36   ar
    19    36    37   ar
    20    37    38   ar
    21    38    39   ar
    22    39    40   ar
    23     2     5    1
    24     5     6   ar
    25     6     7   ar
    26     7     8   ar
    27     8    12    1
    28    12    13    1
    29    13    14    1
    30    14    15    1
    31    15    20    1
    32    20    21   ar
    33    21    22   ar
    34    22    23   ar
    35    23    26    1
    36    26    27    1
    37    26    28    1
    38    26    29    1
    39    23    24   ar
    40    24    25   ar
    41    15    16    1
    42    16    17    1
    43    16    18    1
    44     8     9   ar
    45     9    10   ar
    46    10    11    1
    47    50    42   ar
    48    40    35   ar
    49    10     5   ar
    50    50    45   ar
    51    18    12    1
    52    25    20   ar
    53     3     4    1
    54    44    51    1
    55    33    34    1
    56    17    19    1
@<TRIPOS>MOLECULE
*****
 51 56 0 0 0
SMALL
GASTEIGER

@<TRIPOS>ATOM
      1 O           9.8095   79.1045   25.2517 O.2     1  UNL1       -0.2701
      2 C           9.3570   77.9370   25.4066 C.2     1  UNL1        0.2483
      3 N           9.7780   77.1455   26.5307 N.am    1  UNL1       -0.2945
      4 H           9.5216   76.1324   26.5523 H       1  UNL1        0.1501
      5 C           8.4360   77.3816   24.3923 C.ar    1  UNL1        0.0808
      6 C           7.2056   76.8401   24.7993 C.ar    1  UNL1        0.0080
      7 C           6.3126   76.3207   23.8589 C.ar    1  UNL1        0.0148
      8 C           6.6387   76.3214   22.4946 C.ar    1  UNL1        0.0503
      9 C           7.8734   76.8495   22.0863 C.ar    1  UNL1        0.0443
     10 C           8.7688   77.3729   23.0244 C.ar    1  UNL1        0.1457
     11 F           9.9729   77.8286   22.5950 F       1  UNL1       -0.2040
     12 N           5.7157   75.7944   21.5241 N.pl3   1  UNL1       -0.3020
     13 C           5.1855   74.4343   21.6906 C.3     1  UNL1        0.1124
     14 C           4.2261   74.0496   20.5549 C.3     1  UNL1        0.1157
     15 N           3.2688   75.1336   20.2660 N.pl3   1  UNL1       -0.2686
     16 C           3.7154   76.5402   20.3185 C.3     1  UNL1        0.2101
     17 O           3.1371   77.1653   21.4348 O.3     1  UNL1       -0.3658
     18 C           5.2446   76.6283   20.4139 C.3     1  UNL1        0.1420
     19 H           3.1978   78.1440   21.2794 H       1  UNL1        0.2123
     20 C           1.9642   74.7949   19.7341 C.ar    1  UNL1        0.1334
     21 C           1.1684   75.7440   19.0660 C.ar    1  UNL1        0.0343
     22 C          -0.0817   75.3725   18.5685 C.ar    1  UNL1        0.0083
     23 C          -0.5558   74.0654   18.7489 C.ar    1  UNL1        0.0906
     24 C           0.2748   73.1406   19.3979 C.ar    1  UNL1        0.1041
     25 N           1.4892   73.5244   19.8718 N.ar    1  UNL1       -0.2292
     26 C          -1.8819   73.6397   18.1723 C.3     1  UNL1        0.4200
     27 F          -1.9940   74.1242   16.8825 F       1  UNL1       -0.1658
     28 F          -2.9265   74.1357   18.9330 F       1  UNL1       -0.1658
     29 F          -1.9825   72.2594   18.1461 F       1  UNL1       -0.1658
     30 C          10.7790   77.6125   27.4948 C.3     1  UNL1        0.1535
     31 C          12.1340   77.6281   26.8384 C.2     1  UNL1        0.2443
     32 O          13.0363   76.8493   27.2524 O.2     1  UNL1       -0.2730
     33 N          12.4204   78.5867   25.8072 N.am    1  UNL1       -0.2825
     34 H          11.7874   79.4140   25.7202 H       1  UNL1        0.1549
     35 C          13.5829   78.5366   24.9625 C.ar    1  UNL1        0.0535
     36 C          14.5102   79.5869   25.0032 C.ar    1  UNL1        0.0353
     37 C          15.6296   79.5543   24.1682 C.ar    1  UNL1        0.1002
     38 N          15.8094   78.5167   23.3090 N.ar    1  UNL1       -0.2422
     39 C          14.9179   77.4934   23.2323 C.ar    1  UNL1        0.1002
     40 C          13.7854   77.4865   24.0507 C.ar    1  UNL1        0.0353
     41 C          10.4087   79.0133   28.0156 C.3     1  UNL1        0.0569
     42 C           9.6808   78.9327   29.3263 C.ar    1  UNL1       -0.0017
     43 C          10.0798   79.5055   30.5308 C.ar    1  UNL1        0.0681
     44 N           9.1249   79.3360   31.4735 N.ar    1  UNL1       -0.3523
     45 C           8.1224   78.6725   30.8716 C.ar    1  UNL1        0.0563
     46 C           6.9018   78.2977   31.4310 C.ar    1  UNL1        0.0170
     47 C           5.9751   77.6364   30.6041 C.ar    1  UNL1        0.0015
     48 C           6.2835   77.3731   29.2508 C.ar    1  UNL1        0.0001
     49 C           7.5220   77.7668   28.7123 C.ar    1  UNL1        0.0012
     50 C           8.4230   78.4126   29.5590 C.ar    1  UNL1        0.0131
     51 H           9.1536   79.6764   32.4603 H       1  UNL1        0.1660
@<TRIPOS>BOND
     1     1     2    2
     2     2     3   am
     3     3    30    1
     4    30    41    1
     5    41    42    1
     6    42    43   ar
     7    43    44   ar
     8    44    45   ar
     9    45    46   ar
    10    46    47   ar
    11    47    48   ar
    12    48    49   ar
    13    49    50   ar
    14    30    31    1
    15    31    32    2
    16    31    33   am
    17    33    35    1
    18    35    36   ar
    19    36    37   ar
    20    37    38   ar
    21    38    39   ar
    22    39    40   ar
    23     2     5    1
    24     5     6   ar
    25     6     7   ar
    26     7     8   ar
    27     8    12    1
    28    12    13    1
    29    13    14    1
    30    14    15    1
    31    15    20    1
    32    20    21   ar
    33    21    22   ar
    34    22    23   ar
    35    23    26    1
    36    26    27    1
    37    26    28    1
    38    26    29    1
    39    23    24   ar
    40    24    25   ar
    41    15    16    1
    42    16    17    1
    43    16    18    1
    44     8     9   ar
    45     9    10   ar
    46    10    11    1
    47    50    42   ar
    48    40    35   ar
    49    10     5   ar
    50    50    45   ar
    51    18    12    1
    52    25    20   ar
    53     3     4    1
    54    44    51    1
    55    33    34    1
    56    17    19    1
@<TRIPOS>MOLECULE
*****
 51 56 0 0 0
SMALL
GASTEIGER

@<TRIPOS>ATOM
      1 O           8.6433   74.4687   24.9334 O.2     1  UNL1       -0.2701
      2 C           8.3406   75.5106   25.5772 C.2     1  UNL1        0.2483
      3 N           7.0673   75.6032   26.2386 N.am    1  UNL1       -0.2945
      4 H           6.7711   76.5282   26.6248 H       1  UNL1        0.1501
      5 C           9.2870   76.6462   25.5949 C.ar    1  UNL1        0.0808
      6 C           9.1444   77.6790   24.6537 C.ar    1  UNL1        0.0080
      7 C          10.0182   78.7689   24.6578 C.ar    1  UNL1        0.0148
      8 C          11.0592   78.8405   25.5953 C.ar    1  UNL1        0.0503
      9 C          11.2123   77.8033   26.5284 C.ar    1  UNL1        0.0443
     10 C          10.3380   76.7119   26.5293 C.ar    1  UNL1        0.1457
     11 F          10.5497   75.7056   27.4150 F       1  UNL1       -0.2040
     12 N          11.9546   79.9674   25.6060 N.pl3   1  UNL1       -0.3020
     13 C          13.2283   79.8890   24.8779 C.3     1  UNL1        0.1124
     14 C          14.0469   81.1813   25.0134 C.3     1  UNL1        0.1157
     15 N          13.2073   82.3764   24.8099 N.pl3   1  UNL1       -0.2686
     16 C          11.8260   82.4002   25.3317 C.3     1  UNL1        0.2101
     17 O          10.9264   82.3452   24.2552 O.3     1  UNL1       -0.3658
     18 C          11.5739   81.2157   26.2743 C.3     1  UNL1        0.1420
     19 H          10.0504   82.6645   24.5963 H       1  UNL1        0.2123
     20 C          13.8171   83.5820   24.2861 C.ar    1  UNL1        0.1334
     21 C          13.8062   84.7903   25.0074 C.ar    1  UNL1        0.0343
     22 C          14.4075   85.9267   24.4641 C.ar    1  UNL1        0.0083
     23 C          15.0038   85.8748   23.1963 C.ar    1  UNL1        0.0906
     24 C          15.0170   84.6478   22.5175 C.ar    1  UNL1        0.1041
     25 N          14.4273   83.5539   23.0672 N.ar    1  UNL1       -0.2292
     26 C          15.6998   87.0821   22.6215 C.3     1  UNL1        0.4200
     27 F          16.8294   87.3554   23.3700 F       1  UNL1       -0.1658
     28 F          14.8641   88.1851   22.6465 F       1  UNL1       -0.1658
     29 F          16.0733   86.8515   21.3087 F       1  UNL1       -0.1658
     30 C           6.0519   74.5494   26.1481 C.3     1  UNL1        0.1535
     31 C           6.0685   73.9587   24.7632 C.2     1  UNL1        0.2443
     32 O           6.2463   72.7182   24.6167 O.2     1  UNL1       -0.2730
     33 N           5.9711   74.8179   23.6158 N.am    1  UNL1       -0.2825
     34 H           6.1578   75.8374   23.7521 H       1  UNL1        0.1549
     35 C           5.7426   74.3484   22.2761 C.ar    1  UNL1        0.0535
     36 C           6.8188   73.8546   21.5260 C.ar    1  UNL1        0.0353
     37 C           6.6067   73.4183   20.2160 C.ar    1  UNL1        0.1002
     38 N           5.3654   73.4880   19.6668 N.ar    1  UNL1       -0.2422
     39 C           4.3060   73.9800   20.3620 C.ar    1  UNL1        0.1002
     40 C           4.4745   74.4258   21.6754 C.ar    1  UNL1        0.0353
     41 C           6.3112   73.4631   27.2080 C.3     1  UNL1        0.0569
     42 C           6.6690   74.0696   28.5340 C.ar    1  UNL1       -0.0017
     43 C           7.9255   74.0657   29.1334 C.ar    1  UNL1        0.0681
     44 N           7.9117   74.8082   30.2638 N.ar    1  UNL1       -0.3523
     45 C           6.6618   75.2902   30.3764 C.ar    1  UNL1        0.0563
     46 C           6.1698   76.1393   31.3666 C.ar    1  UNL1        0.0170
     47 C           4.8283   76.5527   31.2711 C.ar    1  UNL1        0.0015
     48 C           4.0198   76.1179   30.1972 C.ar    1  UNL1        0.0001
     49 C           4.5447   75.2643   29.2099 C.ar    1  UNL1        0.0012
     50 C           5.8752   74.8649   29.3366 C.ar    1  UNL1        0.0131
     51 H           8.7180   74.9892   30.9023 H       1  UNL1        0.1660
@<TRIPOS>BOND
     1     1     2    2
     2     2     3   am
     3     3    30    1
     4    30    41    1
     5    41    42    1
     6    42    43   ar
     7    43    44   ar
     8    44    45   ar
     9    45    46   ar
    10    46    47   ar
    11    47    48   ar
    12    48    49   ar
    13    49    50   ar
    14    30    31    1
    15    31    32    2
    16    31    33   am
    17    33    35    1
    18    35    36   ar
    19    36    37   ar
    20    37    38   ar
    21    38    39   ar
    22    39    40   ar
    23     2     5    1
    24     5     6   ar
    25     6     7   ar
    26     7     8   ar
    27     8    12    1
    28    12    13    1
    29    13    14    1
    30    14    15    1
    31    15    20    1
    32    20    21   ar
    33    21    22   ar
    34    22    23   ar
    35    23    26    1
    36    26    27    1
    37    26    28    1
    38    26    29    1
    39    23    24   ar
    40    24    25   ar
    41    15    16    1
    42    16    17    1
    43    16    18    1
    44     8     9   ar
    45     9    10   ar
    46    10    11    1
    47    50    42   ar
    48    40    35   ar
    49    10     5   ar
    50    50    45   ar
    51    18    12    1
    52    25    20   ar
    53     3     4    1
    54    44    51    1
    55    33    34    1
    56    17    19    1
@<TRIPOS>MOLECULE
*****
 51 56 0 0 0
SMALL
GASTEIGER

@<TRIPOS>ATOM
      1 O           9.2386   78.4544   26.1498 O.2     1  UNL1       -0.2701
      2 C           9.1028   77.3121   25.6317 C.2     1  UNL1        0.2483
      3 N           9.9851   76.2414   26.0090 N.am    1  UNL1       -0.2945
      4 H           9.9621   75.3560   25.4540 H       1  UNL1        0.1501
      5 C           8.0643   77.1090   24.5994 C.ar    1  UNL1        0.0808
      6 C           8.3484   77.4290   23.2615 C.ar    1  UNL1        0.0080
      7 C           7.3882   77.2342   22.2657 C.ar    1  UNL1        0.0148
      8 C           6.1212   76.7275   22.5907 C.ar    1  UNL1        0.0503
      9 C           5.8300   76.4196   23.9287 C.ar    1  UNL1        0.0443
     10 C           6.7894   76.6105   24.9281 C.ar    1  UNL1        0.1457
     11 F           6.4524   76.3479   26.2163 F       1  UNL1       -0.2040
     12 N           5.1343   76.5183   21.5641 N.pl3   1  UNL1       -0.3020
     13 C           5.2292   75.3365   20.6964 C.3     1  UNL1        0.1124
     14 C           4.0953   75.2920   19.6617 C.3     1  UNL1        0.1157
     15 N           2.7899   75.5936   20.2777 N.pl3   1  UNL1       -0.2686
     16 C           2.6961   76.6246   21.3308 C.3     1  UNL1        0.2101
     17 O           2.4374   76.0022   22.5624 O.3     1  UNL1       -0.3658
     18 C           3.9970   77.4332   21.4258 C.3     1  UNL1        0.1420
     19 H           2.0835   76.7033   23.1698 H       1  UNL1        0.2123
     20 C           1.5909   75.0239   19.6966 C.ar    1  UNL1        0.1334
     21 C           1.3246   73.6433   19.7545 C.ar    1  UNL1        0.0343
     22 C           0.1557   73.1388   19.1822 C.ar    1  UNL1        0.0083
     23 C          -0.7429   73.9975   18.5335 C.ar    1  UNL1        0.0906
     24 C          -0.4566   75.3701   18.5169 C.ar    1  UNL1        0.1041
     25 N           0.6866   75.8388   19.0828 N.ar    1  UNL1       -0.2292
     26 C          -2.0321   73.4712   17.9561 C.3     1  UNL1        0.4200
     27 F          -2.0937   72.1041   18.1518 F       1  UNL1       -0.1658
     28 F          -2.1034   73.7365   16.5995 F       1  UNL1       -0.1658
     29 F          -3.1208   74.0646   18.5712 F       1  UNL1       -0.1658
     30 C          11.1023   76.4295   26.9398 C.3     1  UNL1        0.1535
     31 C          12.0473   77.4607   26.3824 C.2     1  UNL1        0.2443
     32 O          12.1600   78.5783   26.9571 O.2     1  UNL1       -0.2730
     33 N          12.7471   77.2029   25.1545 N.am    1  UNL1       -0.2825
     34 H          12.3917   76.4337   24.5422 H       1  UNL1        0.1549
     35 C          13.8344   78.0059   24.6642 C.ar    1  UNL1        0.0535
     36 C          14.7087   77.4720   23.7074 C.ar    1  UNL1        0.0353
     37 C          15.7801   78.2396   23.2445 C.ar    1  UNL1        0.1002
     38 N          15.9826   79.4920   23.7322 N.ar    1  UNL1       -0.2422
     39 C          15.1638   80.0299   24.6745 C.ar    1  UNL1        0.1002
     40 C          14.0798   79.2964   25.1637 C.ar    1  UNL1        0.0353
     41 C          10.5805   76.8585   28.3234 C.3     1  UNL1        0.0569
     42 C           9.6582   75.8251   28.9026 C.ar    1  UNL1       -0.0017
     43 C           9.9808   74.5052   29.2058 C.ar    1  UNL1        0.0681
     44 N           8.9444   73.8962   29.8257 N.ar    1  UNL1       -0.3523
     45 C           7.9759   74.8230   29.9273 C.ar    1  UNL1        0.0563
     46 C           6.7254   74.6759   30.5257 C.ar    1  UNL1        0.0170
     47 C           5.8734   75.7954   30.5518 C.ar    1  UNL1        0.0015
     48 C           6.2881   77.0240   29.9911 C.ar    1  UNL1        0.0001
     49 C           7.5577   77.1442   29.3974 C.ar    1  UNL1        0.0012
     50 C           8.3761   76.0147   29.3791 C.ar    1  UNL1        0.0131
     51 H           8.9165   72.9130   30.1763 H       1  UNL1        0.1660
@<TRIPOS>BOND
     1     1     2    2
     2     2     3   am
     3     3    30    1
     4    30    41    1
     5    41    42    1
     6    42    43   ar
     7    43    44   ar
     8    44    45   ar
     9    45    46   ar
    10    46    47   ar
    11    47    48   ar
    12    48    49   ar
    13    49    50   ar
    14    30    31    1
    15    31    32    2
    16    31    33   am
    17    33    35    1
    18    35    36   ar
    19    36    37   ar
    20    37    38   ar
    21    38    39   ar
    22    39    40   ar
    23     2     5    1
    24     5     6   ar
    25     6     7   ar
    26     7     8   ar
    27     8    12    1
    28    12    13    1
    29    13    14    1
    30    14    15    1
    31    15    20    1
    32    20    21   ar
    33    21    22   ar
    34    22    23   ar
    35    23    26    1
    36    26    27    1
    37    26    28    1
    38    26    29    1
    39    23    24   ar
    40    24    25   ar
    41    15    16    1
    42    16    17    1
    43    16    18    1
    44     8     9   ar
    45     9    10   ar
    46    10    11    1
    47    50    42   ar
    48    40    35   ar
    49    10     5   ar
    50    50    45   ar
    51    18    12    1
    52    25    20   ar
    53     3     4    1
    54    44    51    1
    55    33    34    1
    56    17    19    1
