@<TRIPOS>MOLECULE
*****
 52 57 0 0 0
SMALL
GASTEIGER

@<TRIPOS>ATOM
      1 C         -62.7307  -42.3574  -23.7349 C.ar    1  UNL1        0.0502
      2 C         -62.1825  -43.5656  -23.2815 C.ar    1  UNL1        0.0148
      3 C         -61.9027  -44.5966  -24.1807 C.ar    1  UNL1        0.0080
      4 C         -62.1794  -44.4457  -25.5497 C.ar    1  UNL1        0.0808
      5 C         -62.7069  -43.2238  -26.0099 C.ar    1  UNL1        0.1457
      6 F         -62.9128  -43.0045  -27.3331 F       1  UNL1       -0.2040
      7 C         -62.9816  -42.1919  -25.1066 C.ar    1  UNL1        0.0443
      8 N         -63.7409  -39.6749  -20.6782 N.pl3   1  UNL1       -0.3017
      9 C         -64.8138  -40.2514  -21.4947 C.3     1  UNL1        0.1123
     10 C         -64.2840  -40.5631  -22.8944 C.3     1  UNL1        0.1122
     11 N         -63.0157  -41.2983  -22.8019 N.pl3   1  UNL1       -0.3040
     12 C         -61.9449  -40.7252  -21.9760 C.3     1  UNL1        0.1122
     13 C         -62.4756  -40.4087  -20.5771 C.3     1  UNL1        0.1123
     14 C         -64.8438  -38.5012  -18.8015 C.ar    1  UNL1        0.1521
     15 C         -65.0488  -37.3175  -18.0677 C.ar    1  UNL1        0.0455
     16 C         -64.3743  -36.1270  -18.3999 C.ar    1  UNL1        0.0891
     17 C         -63.4891  -36.1317  -19.5032 C.ar    1  UNL1        0.0653
     18 CL        -62.6492  -34.6882  -20.0639 Cl      1  UNL1       -0.0820
     19 C         -63.2906  -37.3076  -20.2327 C.ar    1  UNL1        0.0292
     20 C         -63.9610  -38.4887  -19.8947 C.ar    1  UNL1        0.0832
     21 C         -64.6159  -34.9141  -17.5766 C.2     1  UNL1        0.3390
     22 O         -64.4135  -34.9461  -16.3322 O.2     1  UNL1       -0.2451
     23 O         -65.0349  -33.7220  -18.1595 O.3     1  UNL1       -0.4771
     24 H         -65.1895  -32.8934  -17.5975 H       1  UNL1        0.2954
     25 C         -64.9555  -40.6824  -17.5732 C.3     1  UNL1        0.2525
     26 O         -65.4841  -39.7047  -18.4629 O.3     1  UNL1       -0.4702
     27 C         -61.8980  -45.5666  -26.4728 C.2     1  UNL1        0.2483
     28 O         -60.7642  -46.1170  -26.4304 O.2     1  UNL1       -0.2701
     29 N         -62.9135  -46.0584  -27.3715 N.am    1  UNL1       -0.2945
     30 H         -63.8601  -45.6195  -27.3262 H       1  UNL1        0.1501
     31 C         -62.8172  -47.2918  -28.1720 C.3     1  UNL1        0.1535
     32 C         -62.9858  -48.5516  -27.3386 C.2     1  UNL1        0.2443
     33 O         -63.5326  -49.5663  -27.8506 O.2     1  UNL1       -0.2730
     34 N         -62.6168  -48.5667  -25.9470 N.am    1  UNL1       -0.2825
     35 H         -62.1110  -47.7466  -25.5482 H       1  UNL1        0.1549
     36 C         -62.7730  -49.7108  -25.0917 C.ar    1  UNL1        0.0535
     37 C         -61.7295  -50.0729  -24.2295 C.ar    1  UNL1        0.0353
     38 C         -61.8846  -51.1707  -23.3796 C.ar    1  UNL1        0.1002
     39 N         -63.0492  -51.8717  -23.3771 N.ar    1  UNL1       -0.2422
     40 C         -64.0868  -51.5311  -24.1865 C.ar    1  UNL1        0.1002
     41 C         -63.9726  -50.4409  -25.0528 C.ar    1  UNL1        0.0353
     42 C         -63.7252  -47.2038  -29.4232 C.3     1  UNL1        0.0569
     43 C         -64.0978  -45.8028  -29.8198 C.ar    1  UNL1       -0.0017
     44 C         -65.3729  -45.2437  -29.8078 C.ar    1  UNL1        0.0681
     45 N         -65.3257  -43.9512  -30.2031 N.ar    1  UNL1       -0.3523
     46 C         -64.0338  -43.6887  -30.4660 C.ar    1  UNL1        0.0563
     47 C         -63.4869  -42.4767  -30.8854 C.ar    1  UNL1        0.0170
     48 C         -62.0954  -42.4162  -31.0835 C.ar    1  UNL1        0.0015
     49 C         -61.2906  -43.5549  -30.8598 C.ar    1  UNL1        0.0001
     50 C         -61.8696  -44.7645  -30.4356 C.ar    1  UNL1        0.0012
     51 C         -63.2529  -44.7950  -30.2488 C.ar    1  UNL1        0.0131
     52 H         -66.1316  -43.2917  -30.2797 H       1  UNL1        0.1660
@<TRIPOS>BOND
     1    25    26    1
     2    26    14    1
     3    14    15   ar
     4    15    16   ar
     5    16    21    1
     6    21    22    2
     7    21    23    1
     8    16    17   ar
     9    17    18    1
    10    17    19   ar
    11    19    20   ar
    12    20     8    1
    13     8     9    1
    14     9    10    1
    15    10    11    1
    16    11     1    1
    17     1     2   ar
    18     2     3   ar
    19     3     4   ar
    20     4    27    1
    21    27    28    2
    22    27    29   am
    23    29    31    1
    24    31    42    1
    25    42    43    1
    26    43    44   ar
    27    44    45   ar
    28    45    46   ar
    29    46    47   ar
    30    47    48   ar
    31    48    49   ar
    32    49    50   ar
    33    50    51   ar
    34    31    32    1
    35    32    33    2
    36    32    34   am
    37    34    36    1
    38    36    37   ar
    39    37    38   ar
    40    38    39   ar
    41    39    40   ar
    42    40    41   ar
    43     4     5   ar
    44     5     6    1
    45     5     7   ar
    46    11    12    1
    47    12    13    1
    48    20    14   ar
    49    13     8    1
    50     7     1   ar
    51    51    43   ar
    52    41    36   ar
    53    51    46   ar
    54    23    24    1
    55    29    30    1
    56    45    52    1
    57    34    35    1
@<TRIPOS>MOLECULE
*****
 52 57 0 0 0
SMALL
GASTEIGER

@<TRIPOS>ATOM
      1 C         -62.4991  -42.7775  -23.1939 C.ar    1  UNL1        0.0502
      2 C         -62.3138  -44.0395  -22.6116 C.ar    1  UNL1        0.0148
      3 C         -61.9912  -45.1432  -23.4038 C.ar    1  UNL1        0.0080
      4 C         -61.8620  -45.0102  -24.7962 C.ar    1  UNL1        0.0808
      5 C         -62.0234  -43.7386  -25.3795 C.ar    1  UNL1        0.1457
      6 F         -61.8272  -43.5484  -26.7086 F       1  UNL1       -0.2040
      7 C         -62.3421  -42.6347  -24.5820 C.ar    1  UNL1        0.0443
      8 N         -63.6730  -39.8469  -20.4384 N.pl3   1  UNL1       -0.3017
      9 C         -64.6970  -40.4782  -21.2769 C.3     1  UNL1        0.1123
     10 C         -64.0791  -40.9072  -22.6078 C.3     1  UNL1        0.1122
     11 N         -62.8306  -41.6437  -22.3706 N.pl3   1  UNL1       -0.3040
     12 C         -61.8095  -41.0151  -21.5226 C.3     1  UNL1        0.1122
     13 C         -62.4281  -40.5813  -20.1929 C.3     1  UNL1        0.1123
     14 C         -64.8692  -38.5188  -18.7291 C.ar    1  UNL1        0.1521
     15 C         -65.1064  -37.2777  -18.1087 C.ar    1  UNL1        0.0455
     16 C         -64.4073  -36.1202  -18.5013 C.ar    1  UNL1        0.0891
     17 C         -63.4633  -36.2185  -19.5501 C.ar    1  UNL1        0.0653
     18 CL        -62.5849  -34.8283  -20.1820 Cl      1  UNL1       -0.0820
     19 C         -63.2327  -37.4515  -20.1673 C.ar    1  UNL1        0.0292
     20 C         -63.9281  -38.5991  -19.7695 C.ar    1  UNL1        0.0832
     21 C         -64.6857  -34.8425  -17.7962 C.2     1  UNL1        0.3390
     22 O         -64.4569  -34.7415  -16.5601 O.2     1  UNL1       -0.2451
     23 O         -65.1690  -33.7333  -18.4835 O.3     1  UNL1       -0.4771
     24 H         -65.3489  -32.8600  -18.0026 H       1  UNL1        0.2954
     25 C         -65.0099  -40.6478  -17.4152 C.3     1  UNL1        0.2525
     26 O         -65.5346  -39.6888  -18.3273 O.3     1  UNL1       -0.4702
     27 C         -61.5474  -46.2039  -25.6111 C.2     1  UNL1        0.2483
     28 O         -60.3693  -46.6535  -25.5983 O.2     1  UNL1       -0.2701
     29 N         -62.5753  -46.8751  -26.3685 N.am    1  UNL1       -0.2945
     30 H         -63.5515  -46.5108  -26.2970 H       1  UNL1        0.1501
     31 C         -62.4263  -48.1808  -27.0352 C.3     1  UNL1        0.1535
     32 C         -62.4389  -49.3467  -26.0603 C.2     1  UNL1        0.2443
     33 O         -63.3939  -50.1701  -26.0891 O.2     1  UNL1       -0.2730
     34 N         -61.4258  -49.4656  -25.0441 N.am    1  UNL1       -0.2825
     35 H         -60.6089  -48.8178  -25.0650 H       1  UNL1        0.1549
     36 C         -61.3894  -50.5238  -24.0726 C.ar    1  UNL1        0.0535
     37 C         -62.5878  -50.9824  -23.5096 C.ar    1  UNL1        0.0353
     38 C         -62.5605  -52.0261  -22.5815 C.ar    1  UNL1        0.1002
     39 N         -61.3787  -52.6050  -22.2412 N.ar    1  UNL1       -0.2422
     40 C         -60.2026  -52.1962  -22.7867 C.ar    1  UNL1        0.1002
     41 C         -60.1854  -51.1545  -23.7177 C.ar    1  UNL1        0.0353
     42 C         -63.4131  -48.3044  -28.2220 C.3     1  UNL1        0.0569
     43 C         -63.7006  -47.0075  -28.9251 C.ar    1  UNL1       -0.0017
     44 C         -63.2790  -45.7380  -28.5391 C.ar    1  UNL1        0.0681
     45 N         -63.7025  -44.8094  -29.4265 N.ar    1  UNL1       -0.3523
     46 C         -64.3885  -45.4795  -30.3684 C.ar    1  UNL1        0.0563
     47 C         -64.9994  -44.9506  -31.5046 C.ar    1  UNL1        0.0170
     48 C         -65.6522  -45.8415  -32.3759 C.ar    1  UNL1        0.0015
     49 C         -65.6790  -47.2255  -32.0959 C.ar    1  UNL1        0.0001
     50 C         -65.0530  -47.7314  -30.9424 C.ar    1  UNL1        0.0012
     51 C         -64.4144  -46.8233  -30.0957 C.ar    1  UNL1        0.0131
     52 H         -63.5236  -43.7814  -29.3879 H       1  UNL1        0.1660
@<TRIPOS>BOND
     1    25    26    1
     2    26    14    1
     3    14    15   ar
     4    15    16   ar
     5    16    21    1
     6    21    22    2
     7    21    23    1
     8    16    17   ar
     9    17    18    1
    10    17    19   ar
    11    19    20   ar
    12    20     8    1
    13     8     9    1
    14     9    10    1
    15    10    11    1
    16    11     1    1
    17     1     2   ar
    18     2     3   ar
    19     3     4   ar
    20     4    27    1
    21    27    28    2
    22    27    29   am
    23    29    31    1
    24    31    42    1
    25    42    43    1
    26    43    44   ar
    27    44    45   ar
    28    45    46   ar
    29    46    47   ar
    30    47    48   ar
    31    48    49   ar
    32    49    50   ar
    33    50    51   ar
    34    31    32    1
    35    32    33    2
    36    32    34   am
    37    34    36    1
    38    36    37   ar
    39    37    38   ar
    40    38    39   ar
    41    39    40   ar
    42    40    41   ar
    43     4     5   ar
    44     5     6    1
    45     5     7   ar
    46    11    12    1
    47    12    13    1
    48    20    14   ar
    49    13     8    1
    50     7     1   ar
    51    51    43   ar
    52    41    36   ar
    53    51    46   ar
    54    23    24    1
    55    29    30    1
    56    45    52    1
    57    34    35    1
@<TRIPOS>MOLECULE
*****
 52 57 0 0 0
SMALL
GASTEIGER

@<TRIPOS>ATOM
      1 C         -62.3871  -42.5920  -23.2186 C.ar    1  UNL1        0.0502
      2 C         -61.9403  -43.7920  -22.6474 C.ar    1  UNL1        0.0148
      3 C         -61.5899  -44.8736  -23.4580 C.ar    1  UNL1        0.0080
      4 C         -61.6935  -44.7820  -24.8560 C.ar    1  UNL1        0.0808
      5 C         -62.1184  -43.5693  -25.4321 C.ar    1  UNL1        0.1457
      6 F         -62.1549  -43.4094  -26.7790 F       1  UNL1       -0.2040
      7 C         -62.4643  -42.4868  -24.6167 C.ar    1  UNL1        0.0443
      8 N         -63.6537  -39.7357  -20.4263 N.pl3   1  UNL1       -0.3017
      9 C         -64.6480  -40.3399  -21.3188 C.3     1  UNL1        0.1123
     10 C         -63.9831  -40.7335  -22.6379 C.3     1  UNL1        0.1122
     11 N         -62.7458  -41.4806  -22.3763 N.pl3   1  UNL1       -0.3040
     12 C         -61.7547  -40.8793  -21.4745 C.3     1  UNL1        0.1122
     13 C         -62.4202  -40.4808  -20.1565 C.3     1  UNL1        0.1123
     14 C         -64.8885  -38.4583  -18.7059 C.ar    1  UNL1        0.1521
     15 C         -65.1461  -37.2342  -18.0602 C.ar    1  UNL1        0.0455
     16 C         -64.4505  -36.0622  -18.4139 C.ar    1  UNL1        0.0891
     17 C         -63.4889  -36.1280  -19.4491 C.ar    1  UNL1        0.0653
     18 CL        -62.6121  -34.7161  -20.0335 Cl      1  UNL1       -0.0820
     19 C         -63.2380  -37.3440  -20.0915 C.ar    1  UNL1        0.0292
     20 C         -63.9300  -38.5063  -19.7323 C.ar    1  UNL1        0.0832
     21 C         -64.7510  -34.8039  -17.6834 C.2     1  UNL1        0.3390
     22 O         -64.5411  -34.7298  -16.4421 O.2     1  UNL1       -0.2451
     23 O         -65.2346  -33.6833  -18.3518 O.3     1  UNL1       -0.4771
     24 H         -65.4296  -32.8231  -17.8534 H       1  UNL1        0.2954
     25 C         -65.0560  -40.5939  -17.4058 C.3     1  UNL1        0.2525
     26 O         -65.5505  -39.6428  -18.3428 O.3     1  UNL1       -0.4702
     27 C         -61.3417  -45.9546  -25.6861 C.2     1  UNL1        0.2483
     28 O         -60.1250  -46.2540  -25.8280 O.2     1  UNL1       -0.2701
     29 N         -62.3681  -46.7738  -26.2831 N.am    1  UNL1       -0.2945
     30 H         -63.3642  -46.5311  -26.0840 H       1  UNL1        0.1501
     31 C         -62.1448  -48.0729  -26.9417 C.3     1  UNL1        0.1535
     32 C         -62.2637  -49.2481  -25.9853 C.2     1  UNL1        0.2443
     33 O         -63.2912  -49.9786  -26.0236 O.2     1  UNL1       -0.2730
     34 N         -61.2637  -49.4773  -24.9751 N.am    1  UNL1       -0.2825
     35 H         -60.3901  -48.9080  -24.9888 H       1  UNL1        0.1549
     36 C         -61.3238  -50.5497  -24.0206 C.ar    1  UNL1        0.0535
     37 C         -62.5676  -50.9552  -23.5187 C.ar    1  UNL1        0.0353
     38 C         -62.6340  -52.0122  -22.6077 C.ar    1  UNL1        0.1002
     39 N         -61.4990  -52.6549  -22.2253 N.ar    1  UNL1       -0.2422
     40 C         -60.2808  -52.2983  -22.7115 C.ar    1  UNL1        0.1002
     41 C         -60.1698  -51.2455  -23.6234 C.ar    1  UNL1        0.0353
     42 C         -62.9943  -48.1852  -28.2314 C.3     1  UNL1        0.0569
     43 C         -63.2534  -46.8734  -28.9177 C.ar    1  UNL1       -0.0017
     44 C         -64.4941  -46.3401  -29.2566 C.ar    1  UNL1        0.0681
     45 N         -64.3444  -45.1284  -29.8385 N.ar    1  UNL1       -0.3523
     46 C         -63.0216  -44.8916  -29.8716 C.ar    1  UNL1        0.0563
     47 C         -62.3793  -43.7554  -30.3618 C.ar    1  UNL1        0.0170
     48 C         -60.9758  -43.7057  -30.2794 C.ar    1  UNL1        0.0015
     49 C         -60.2537  -44.7801  -29.7146 C.ar    1  UNL1        0.0001
     50 C         -60.9283  -45.9137  -29.2267 C.ar    1  UNL1        0.0012
     51 C         -62.3210  -45.9354  -29.3233 C.ar    1  UNL1        0.0131
     52 H         -65.1060  -44.5029  -30.1836 H       1  UNL1        0.1660
@<TRIPOS>BOND
     1    25    26    1
     2    26    14    1
     3    14    15   ar
     4    15    16   ar
     5    16    21    1
     6    21    22    2
     7    21    23    1
     8    16    17   ar
     9    17    18    1
    10    17    19   ar
    11    19    20   ar
    12    20     8    1
    13     8     9    1
    14     9    10    1
    15    10    11    1
    16    11     1    1
    17     1     2   ar
    18     2     3   ar
    19     3     4   ar
    20     4    27    1
    21    27    28    2
    22    27    29   am
    23    29    31    1
    24    31    42    1
    25    42    43    1
    26    43    44   ar
    27    44    45   ar
    28    45    46   ar
    29    46    47   ar
    30    47    48   ar
    31    48    49   ar
    32    49    50   ar
    33    50    51   ar
    34    31    32    1
    35    32    33    2
    36    32    34   am
    37    34    36    1
    38    36    37   ar
    39    37    38   ar
    40    38    39   ar
    41    39    40   ar
    42    40    41   ar
    43     4     5   ar
    44     5     6    1
    45     5     7   ar
    46    11    12    1
    47    12    13    1
    48    20    14   ar
    49    13     8    1
    50     7     1   ar
    51    51    43   ar
    52    41    36   ar
    53    51    46   ar
    54    23    24    1
    55    29    30    1
    56    45    52    1
    57    34    35    1
@<TRIPOS>MOLECULE
*****
 52 57 0 0 0
SMALL
GASTEIGER

@<TRIPOS>ATOM
      1 C         -63.3710  -51.0585  -24.0704 C.ar    1  UNL1        0.0502
      2 C         -62.6707  -51.5784  -22.9726 C.ar    1  UNL1        0.0148
      3 C         -63.0792  -52.7721  -22.3743 C.ar    1  UNL1        0.0080
      4 C         -64.2053  -53.4624  -22.8526 C.ar    1  UNL1        0.0808
      5 C         -64.8948  -52.9545  -23.9704 C.ar    1  UNL1        0.1457
      6 F         -65.9372  -53.6304  -24.5161 F       1  UNL1       -0.2040
      7 C         -64.4798  -51.7607  -24.5696 C.ar    1  UNL1        0.0443
      8 N         -61.8807  -47.7950  -26.2357 N.pl3   1  UNL1       -0.3017
      9 C         -60.9601  -48.5598  -25.3885 C.3     1  UNL1        0.1123
     10 C         -61.7249  -49.1585  -24.2079 C.3     1  UNL1        0.1122
     11 N         -62.9433  -49.8275  -24.6828 N.pl3   1  UNL1       -0.3040
     12 C         -63.8600  -49.0640  -25.5394 C.3     1  UNL1        0.1122
     13 C         -63.0946  -48.4607  -26.7180 C.3     1  UNL1        0.1123
     14 C         -61.9092  -45.3400  -25.9380 C.ar    1  UNL1        0.1521
     15 C         -61.5805  -44.0588  -26.4199 C.ar    1  UNL1        0.0455
     16 C         -60.8816  -43.8918  -27.6307 C.ar    1  UNL1        0.0891
     17 C         -60.5230  -45.0410  -28.3735 C.ar    1  UNL1        0.0653
     18 CL        -59.7182  -44.9578  -29.9383 Cl      1  UNL1       -0.0820
     19 C         -60.8543  -46.3119  -27.8947 C.ar    1  UNL1        0.0292
     20 C         -61.5456  -46.4712  -26.6882 C.ar    1  UNL1        0.0832
     21 C         -60.5449  -42.5158  -28.0786 C.2     1  UNL1        0.3390
     22 O         -59.7593  -41.8046  -27.3949 O.2     1  UNL1       -0.2451
     23 O         -61.0584  -42.0007  -29.2650 O.3     1  UNL1       -0.4771
     24 H         -60.8198  -41.0658  -29.5735 H       1  UNL1        0.2954
     25 C         -61.9982  -45.3071  -23.4341 C.3     1  UNL1        0.2525
     26 O         -62.5773  -45.5248  -24.7164 O.3     1  UNL1       -0.4702
     27 C         -64.6294  -54.7094  -22.1795 C.2     1  UNL1        0.2483
     28 O         -63.7513  -55.5592  -21.8681 O.2     1  UNL1       -0.2701
     29 N         -66.0130  -54.9327  -21.8380 N.am    1  UNL1       -0.2945
     30 H         -66.6976  -54.1735  -22.0518 H       1  UNL1        0.1501
     31 C         -66.5140  -56.0252  -20.9855 C.3     1  UNL1        0.1535
     32 C         -67.4364  -55.5370  -19.8807 C.2     1  UNL1        0.2443
     33 O         -67.1527  -54.4776  -19.2577 O.2     1  UNL1       -0.2730
     34 N         -68.5744  -56.3198  -19.4742 N.am    1  UNL1       -0.2825
     35 H         -68.8361  -57.1608  -20.0325 H       1  UNL1        0.1549
     36 C         -69.4729  -55.9355  -18.4207 C.ar    1  UNL1        0.0535
     37 C         -69.1102  -56.1693  -17.0876 C.ar    1  UNL1        0.0353
     38 C         -69.9698  -55.7773  -16.0586 C.ar    1  UNL1        0.1002
     39 N         -71.1431  -55.1559  -16.3499 N.ar    1  UNL1       -0.2422
     40 C         -71.5118  -54.8962  -17.6322 C.ar    1  UNL1        0.1002
     41 C         -70.6819  -55.2731  -18.6912 C.ar    1  UNL1        0.0353
     42 C         -67.0766  -57.1796  -21.8506 C.3     1  UNL1        0.0569
     43 C         -67.7468  -56.7321  -23.1193 C.ar    1  UNL1       -0.0017
     44 C         -67.1773  -56.6759  -24.3886 C.ar    1  UNL1        0.0681
     45 N         -68.0857  -56.2502  -25.2956 N.ar    1  UNL1       -0.3523
     46 C         -69.2229  -56.0356  -24.6117 C.ar    1  UNL1        0.0563
     47 C         -70.4478  -55.6089  -25.1229 C.ar    1  UNL1        0.0170
     48 C         -71.5223  -55.4683  -24.2257 C.ar    1  UNL1        0.0015
     49 C         -71.3508  -55.7547  -22.8535 C.ar    1  UNL1        0.0001
     50 C         -70.1037  -56.1847  -22.3657 C.ar    1  UNL1        0.0012
     51 C         -69.0556  -56.3136  -23.2791 C.ar    1  UNL1        0.0131
     52 H         -67.9325  -56.1229  -26.3206 H       1  UNL1        0.1660
@<TRIPOS>BOND
     1    25    26    1
     2    26    14    1
     3    14    15   ar
     4    15    16   ar
     5    16    21    1
     6    21    22    2
     7    21    23    1
     8    16    17   ar
     9    17    18    1
    10    17    19   ar
    11    19    20   ar
    12    20     8    1
    13     8     9    1
    14     9    10    1
    15    10    11    1
    16    11     1    1
    17     1     2   ar
    18     2     3   ar
    19     3     4   ar
    20     4    27    1
    21    27    28    2
    22    27    29   am
    23    29    31    1
    24    31    42    1
    25    42    43    1
    26    43    44   ar
    27    44    45   ar
    28    45    46   ar
    29    46    47   ar
    30    47    48   ar
    31    48    49   ar
    32    49    50   ar
    33    50    51   ar
    34    31    32    1
    35    32    33    2
    36    32    34   am
    37    34    36    1
    38    36    37   ar
    39    37    38   ar
    40    38    39   ar
    41    39    40   ar
    42    40    41   ar
    43     4     5   ar
    44     5     6    1
    45     5     7   ar
    46    11    12    1
    47    12    13    1
    48    20    14   ar
    49    13     8    1
    50     7     1   ar
    51    51    43   ar
    52    41    36   ar
    53    51    46   ar
    54    23    24    1
    55    29    30    1
    56    45    52    1
    57    34    35    1
