@<TRIPOS>MOLECULE
*****
 46 50 0 0 0
SMALL
GASTEIGER

@<TRIPOS>ATOM
      1 C          -9.3430  -11.8271   34.1687 C.3     1  UNL1        0.1294
      2 O          -8.8354  -11.7306   35.4791 O.3     1  UNL1       -0.3808
      3 C          -8.2276  -12.3053   33.2223 C.3     1  UNL1        0.0622
      4 C          -8.3948  -11.4942   31.9313 C.3     1  UNL1        0.1562
      5 N          -9.2158  -10.3454   32.2897 N.am    1  UNL1       -0.2544
      6 C          -9.6311   -9.3398   31.3466 C.2     1  UNL1        0.3081
      7 O          -9.4259   -9.5196   30.1152 O.2     1  UNL1       -0.2522
      8 N         -10.2734   -8.1349   31.7967 N.am    1  UNL1       -0.2681
      9 C          -9.6992  -10.4125   33.6606 C.3     1  UNL1        0.1264
     10 H          -9.5576  -11.3545   36.0489 H       1  UNL1        0.2107
     11 H         -10.7730   -8.1429   32.7131 H       1  UNL1        0.1564
     12 C         -12.5233  -13.6555   32.9497 C.ar    1  UNL1        0.0346
     13 C         -11.4741  -12.7292   33.0561 C.ar    1  UNL1        0.0006
     14 C         -10.5256  -12.8120   34.1008 C.ar    1  UNL1        0.0308
     15 C         -10.6210  -13.9002   34.9999 C.ar    1  UNL1        0.1406
     16 F          -9.6870  -14.1054   35.9627 F       1  UNL1       -0.2044
     17 C         -11.6780  -14.8088   34.9053 C.ar    1  UNL1        0.0588
     18 C         -12.6346  -14.6817   33.8989 C.ar    1  UNL1        0.1407
     19 F         -13.6581  -15.5713   33.8401 F       1  UNL1       -0.2043
     20 C         -13.5510  -13.5057   31.8620 C.3     1  UNL1        0.1709
     21 C         -12.8215  -11.5017   30.9943 C.3     1  UNL1        0.1746
     22 O         -13.8569  -12.1364   31.7102 O.3     1  UNL1       -0.3463
     23 C         -10.2878   -6.9094   31.0452 C.ar    1  UNL1        0.0516
     24 C         -11.4976   -6.2172   30.8808 C.ar    1  UNL1        0.0156
     25 C         -11.5317   -5.0059   30.1835 C.ar    1  UNL1        0.0127
     26 C         -10.3540   -4.4668   29.6568 C.ar    1  UNL1        0.0578
     27 CL        -10.3973   -2.9446   28.7864 Cl      1  UNL1       -0.0822
     28 C          -9.1401   -5.1373   29.8350 C.ar    1  UNL1        0.0127
     29 C          -9.1033   -6.3495   30.5307 C.ar    1  UNL1        0.0156
     30 C          -7.0610  -11.0904   31.3328 C.2     1  UNL1        0.2454
     31 O          -6.2037  -10.5446   32.0773 O.2     1  UNL1       -0.2730
     32 N          -6.7847  -11.2058   29.9287 N.am    1  UNL1       -0.2680
     33 H          -6.2615  -10.4313   29.4620 H       1  UNL1        0.1563
     34 C          -7.1865  -12.3272   29.1376 C.ar    1  UNL1        0.1346
     35 C          -6.2376  -13.0444   28.4023 C.ar    1  UNL1        0.0406
     36 C          -6.6488  -14.1332   27.6315 C.ar    1  UNL1        0.0736
     37 C          -7.9984  -14.5179   27.6206 C.ar    1  UNL1        0.2466
     38 C          -8.9098  -13.7904   28.4000 C.ar    1  UNL1        0.1691
     39 N          -8.4862  -12.7277   29.1328 N.ar    1  UNL1       -0.2228
     40 N          -8.4473  -15.6193   26.8058 N.am    1  UNL1       -0.0841
     41 C          -8.8600  -16.7697   27.4230 C.2     1  UNL1        0.2905
     42 C          -9.3107  -17.8581   26.6739 C.2     1  UNL1        0.0758
     43 C          -9.3374  -17.7687   25.2846 C.2     1  UNL1        0.0161
     44 C          -8.9113  -16.5988   24.6592 C.2     1  UNL1        0.1156
     45 C          -8.4612  -15.5249   25.4351 C.2     1  UNL1        0.4230
     46 O          -8.0556  -14.4799   24.8560 O.2     1  UNL1       -0.2135
@<TRIPOS>BOND
     1    21    22    1
     2    22    20    1
     3    20    12    1
     4    12    13   ar
     5    13    14   ar
     6    14     1    1
     7     1     2    1
     8     1     3    1
     9     3     4    1
    10     4    30    1
    11    30    31    2
    12    30    32   am
    13    32    34    1
    14    34    35   ar
    15    35    36   ar
    16    36    37   ar
    17    37    40    1
    18    40    41    1
    19    41    42    2
    20    42    43    1
    21    43    44    2
    22    44    45    1
    23    45    46    2
    24    37    38   ar
    25    38    39   ar
    26     4     5    1
    27     5     6   am
    28     6     7    2
    29     6     8   am
    30     8    23    1
    31    23    24   ar
    32    24    25   ar
    33    25    26   ar
    34    26    27    1
    35    26    28   ar
    36    28    29   ar
    37     5     9    1
    38    14    15   ar
    39    15    16    1
    40    15    17   ar
    41    17    18   ar
    42    18    19    1
    43    18    12   ar
    44     9     1    1
    45    39    34   ar
    46    29    23   ar
    47    45    40    1
    48     2    10    1
    49    32    33    1
    50     8    11    1
@<TRIPOS>MOLECULE
*****
 46 50 0 0 0
SMALL
GASTEIGER

@<TRIPOS>ATOM
      1 C         -11.2098  -12.2004   31.3306 C.3     1  UNL1        0.1294
      2 O         -11.1869  -12.9141   30.1165 O.3     1  UNL1       -0.3808
      3 C         -12.1620  -10.9986   31.1994 C.3     1  UNL1        0.0622
      4 C         -11.4756   -9.8365   31.9280 C.3     1  UNL1        0.1562
      5 N         -10.0733  -10.2142   32.0416 N.am    1  UNL1       -0.2544
      6 C          -9.0808   -9.3995   32.6931 C.2     1  UNL1        0.3081
      7 O          -9.4419   -8.3827   33.3461 O.2     1  UNL1       -0.2522
      8 N          -7.6854   -9.7338   32.6029 N.am    1  UNL1       -0.2681
      9 C          -9.8212  -11.5674   31.5697 C.3     1  UNL1        0.1264
     10 H         -10.5132  -13.6385   30.2121 H       1  UNL1        0.2107
     11 H          -7.4163  -10.7237   32.4104 H       1  UNL1        0.1564
     12 C         -13.1589  -14.8513   33.3598 C.ar    1  UNL1        0.0346
     13 C         -12.7598  -13.9889   32.3267 C.ar    1  UNL1        0.0006
     14 C         -11.6771  -13.0957   32.4940 C.ar    1  UNL1        0.0308
     15 C         -10.9582  -13.1440   33.7114 C.ar    1  UNL1        0.1406
     16 F          -9.8446  -12.3931   33.9049 F       1  UNL1       -0.2044
     17 C         -11.3699  -13.9876   34.7462 C.ar    1  UNL1        0.0588
     18 C         -12.4723  -14.8253   34.5822 C.ar    1  UNL1        0.1407
     19 F         -12.8575  -15.6240   35.6099 F       1  UNL1       -0.2043
     20 C         -14.3519  -15.7476   33.1721 C.3     1  UNL1        0.1709
     21 C         -12.7887  -16.9732   32.0079 C.3     1  UNL1        0.1746
     22 O         -13.8998  -17.0504   32.8721 O.3     1  UNL1       -0.3463
     23 C          -6.6233   -8.7818   32.7831 C.ar    1  UNL1        0.0516
     24 C          -5.2968   -9.2354   32.8513 C.ar    1  UNL1        0.0156
     25 C          -4.2437   -8.3267   32.9919 C.ar    1  UNL1        0.0127
     26 C          -4.5049   -6.9543   33.0502 C.ar    1  UNL1        0.0578
     27 CL         -3.1824   -5.8150   33.2216 Cl      1  UNL1       -0.0822
     28 C          -5.8211   -6.4911   32.9600 C.ar    1  UNL1        0.0127
     29 C          -6.8763   -7.3977   32.8208 C.ar    1  UNL1        0.0156
     30 C         -11.6646   -8.5167   31.2049 C.2     1  UNL1        0.2454
     31 O         -12.4962   -7.6888   31.6633 O.2     1  UNL1       -0.2730
     32 N         -11.0139   -8.2256   29.9587 N.am    1  UNL1       -0.2680
     33 H         -11.5611   -7.7324   29.2180 H       1  UNL1        0.1563
     34 C          -9.6550   -8.5737   29.6809 C.ar    1  UNL1        0.1346
     35 C          -8.6445   -7.6150   29.8057 C.ar    1  UNL1        0.0406
     36 C          -7.3242   -7.9714   29.5254 C.ar    1  UNL1        0.0736
     37 C          -7.0153   -9.2879   29.1500 C.ar    1  UNL1        0.2466
     38 C          -8.0562  -10.2247   29.0706 C.ar    1  UNL1        0.1691
     39 N          -9.3345   -9.8500   29.3377 N.ar    1  UNL1       -0.2228
     40 N          -5.6627   -9.6667   28.8253 N.am    1  UNL1       -0.0841
     41 C          -4.8312  -10.0699   29.8357 C.2     1  UNL1        0.2905
     42 C          -3.5163  -10.4537   29.5661 C.2     1  UNL1        0.0758
     43 C          -3.0495  -10.4229   28.2547 C.2     1  UNL1        0.0161
     44 C          -3.8962  -10.0066   27.2294 C.2     1  UNL1        0.1156
     45 C          -5.2084   -9.6241   27.5294 C.2     1  UNL1        0.4230
     46 O          -5.9579   -9.2264   26.5955 O.2     1  UNL1       -0.2135
@<TRIPOS>BOND
     1    21    22    1
     2    22    20    1
     3    20    12    1
     4    12    13   ar
     5    13    14   ar
     6    14     1    1
     7     1     2    1
     8     1     3    1
     9     3     4    1
    10     4    30    1
    11    30    31    2
    12    30    32   am
    13    32    34    1
    14    34    35   ar
    15    35    36   ar
    16    36    37   ar
    17    37    40    1
    18    40    41    1
    19    41    42    2
    20    42    43    1
    21    43    44    2
    22    44    45    1
    23    45    46    2
    24    37    38   ar
    25    38    39   ar
    26     4     5    1
    27     5     6   am
    28     6     7    2
    29     6     8   am
    30     8    23    1
    31    23    24   ar
    32    24    25   ar
    33    25    26   ar
    34    26    27    1
    35    26    28   ar
    36    28    29   ar
    37     5     9    1
    38    14    15   ar
    39    15    16    1
    40    15    17   ar
    41    17    18   ar
    42    18    19    1
    43    18    12   ar
    44     9     1    1
    45    39    34   ar
    46    29    23   ar
    47    45    40    1
    48     2    10    1
    49    32    33    1
    50     8    11    1
@<TRIPOS>MOLECULE
*****
 46 50 0 0 0
SMALL
GASTEIGER

@<TRIPOS>ATOM
      1 C          -7.4037  -15.7062   22.2385 C.3     1  UNL1        0.1294
      2 O          -7.1851  -14.7828   21.1975 O.3     1  UNL1       -0.3808
      3 C          -6.8948  -17.0930   21.8069 C.3     1  UNL1        0.0622
      4 C          -7.9273  -18.1007   22.3278 C.3     1  UNL1        0.1562
      5 N          -9.1303  -17.3271   22.6041 N.am    1  UNL1       -0.2544
      6 C         -10.3382  -17.8997   23.1391 C.2     1  UNL1        0.3081
      7 O         -10.3326  -19.0924   23.5490 O.2     1  UNL1       -0.2522
      8 N         -11.5477  -17.1252   23.2071 N.am    1  UNL1       -0.2681
      9 C          -8.9243  -15.8969   22.4323 C.3     1  UNL1        0.1264
     10 H          -7.5861  -13.9185   21.4800 H       1  UNL1        0.2107
     11 H         -11.4779  -16.0842   23.2360 H       1  UNL1        0.1564
     12 C          -6.6901  -14.9259   25.9567 C.ar    1  UNL1        0.0346
     13 C          -7.3551  -15.2606   24.7668 C.ar    1  UNL1        0.0006
     14 C          -6.6769  -15.2753   23.5267 C.ar    1  UNL1        0.0308
     15 C          -5.2871  -15.0113   23.5265 C.ar    1  UNL1        0.1406
     16 F          -4.5490  -15.1105   22.3921 F       1  UNL1       -0.2044
     17 C          -4.6314  -14.6575   24.7083 C.ar    1  UNL1        0.0588
     18 C          -5.3274  -14.5975   25.9149 C.ar    1  UNL1        0.1407
     19 F          -4.6669  -14.2373   27.0448 F       1  UNL1       -0.2043
     20 C          -7.4525  -14.8609   27.2513 C.3     1  UNL1        0.1709
     21 C          -8.5676  -16.8712   27.1229 C.3     1  UNL1        0.1746
     22 O          -8.7125  -15.4700   27.0687 O.3     1  UNL1       -0.3463
     23 C         -12.8633  -17.7025   23.2582 C.ar    1  UNL1        0.0516
     24 C         -13.4718  -17.9190   24.5043 C.ar    1  UNL1        0.0156
     25 C         -14.7641  -18.4473   24.5794 C.ar    1  UNL1        0.0127
     26 C         -15.4668  -18.7500   23.4092 C.ar    1  UNL1        0.0578
     27 CL        -17.0899  -19.4082   23.5047 Cl      1  UNL1       -0.0822
     28 C         -14.8781  -18.5165   22.1626 C.ar    1  UNL1        0.0127
     29 C         -13.5854  -17.9896   22.0845 C.ar    1  UNL1        0.0156
     30 C          -8.1748  -19.2269   21.3424 C.2     1  UNL1        0.2454
     31 O          -9.3002  -19.3042   20.7816 O.2     1  UNL1       -0.2730
     32 N          -7.2140  -20.2685   21.1119 N.am    1  UNL1       -0.2680
     33 H          -7.5614  -21.2484   21.0100 H       1  UNL1        0.1563
     34 C          -5.8071  -20.0327   21.0120 C.ar    1  UNL1        0.1346
     35 C          -5.1649  -20.1289   19.7735 C.ar    1  UNL1        0.0406
     36 C          -3.7899  -19.9004   19.6957 C.ar    1  UNL1        0.0736
     37 C          -3.0687  -19.5499   20.8474 C.ar    1  UNL1        0.2466
     38 C          -3.7600  -19.4317   22.0620 C.ar    1  UNL1        0.1691
     39 N          -5.0965  -19.6702   22.1134 N.ar    1  UNL1       -0.2228
     40 N          -1.6431  -19.3418   20.7929 N.am    1  UNL1       -0.0841
     41 C          -0.8216  -20.2451   21.4127 C.2     1  UNL1        0.2905
     42 C           0.5651  -20.0878   21.3782 C.2     1  UNL1        0.0758
     43 C           1.1139  -18.9984   20.7067 C.2     1  UNL1        0.0161
     44 C           0.2752  -18.0778   20.0820 C.2     1  UNL1        0.1156
     45 C          -1.1113  -18.2586   20.1358 C.2     1  UNL1        0.4230
     46 O          -1.8610  -17.4052   19.5866 O.2     1  UNL1       -0.2135
@<TRIPOS>BOND
     1    21    22    1
     2    22    20    1
     3    20    12    1
     4    12    13   ar
     5    13    14   ar
     6    14     1    1
     7     1     2    1
     8     1     3    1
     9     3     4    1
    10     4    30    1
    11    30    31    2
    12    30    32   am
    13    32    34    1
    14    34    35   ar
    15    35    36   ar
    16    36    37   ar
    17    37    40    1
    18    40    41    1
    19    41    42    2
    20    42    43    1
    21    43    44    2
    22    44    45    1
    23    45    46    2
    24    37    38   ar
    25    38    39   ar
    26     4     5    1
    27     5     6   am
    28     6     7    2
    29     6     8   am
    30     8    23    1
    31    23    24   ar
    32    24    25   ar
    33    25    26   ar
    34    26    27    1
    35    26    28   ar
    36    28    29   ar
    37     5     9    1
    38    14    15   ar
    39    15    16    1
    40    15    17   ar
    41    17    18   ar
    42    18    19    1
    43    18    12   ar
    44     9     1    1
    45    39    34   ar
    46    29    23   ar
    47    45    40    1
    48     2    10    1
    49    32    33    1
    50     8    11    1
@<TRIPOS>MOLECULE
*****
 46 50 0 0 0
SMALL
GASTEIGER

@<TRIPOS>ATOM
      1 C          -9.9069  -11.8285   30.4931 C.3     1  UNL1        0.1294
      2 O         -10.6818  -10.6761   30.2573 O.3     1  UNL1       -0.3808
      3 C          -8.4454  -11.4186   30.7472 C.3     1  UNL1        0.0622
      4 C          -7.5842  -12.4614   30.0236 C.3     1  UNL1        0.1562
      5 N          -8.4703  -13.1109   29.0670 N.am    1  UNL1       -0.2544
      6 C          -8.0544  -14.1804   28.1973 C.2     1  UNL1        0.3081
      7 O          -6.9215  -14.7101   28.3608 O.2     1  UNL1       -0.2522
      8 N          -8.9171  -14.6460   27.1455 N.am    1  UNL1       -0.2681
      9 C          -9.8513  -12.6719   29.2002 C.3     1  UNL1        0.1264
     10 H         -11.6003  -10.9792   30.0290 H       1  UNL1        0.2107
     11 H          -9.9463  -14.4983   27.2362 H       1  UNL1        0.1564
     12 C         -11.6430  -14.5435   32.6282 C.ar    1  UNL1        0.0346
     13 C         -11.2053  -13.7858   31.5307 C.ar    1  UNL1        0.0006
     14 C         -10.4339  -12.6147   31.7086 C.ar    1  UNL1        0.0308
     15 C         -10.0531  -12.2638   33.0251 C.ar    1  UNL1        0.1406
     16 F          -9.2266  -11.2149   33.2659 F       1  UNL1       -0.2044
     17 C         -10.5074  -13.0069   34.1175 C.ar    1  UNL1        0.0588
     18 C         -11.3109  -14.1302   33.9264 C.ar    1  UNL1        0.1407
     19 F         -11.7487  -14.8246   35.0074 F       1  UNL1       -0.2043
     20 C         -12.5123  -15.7509   32.4094 C.3     1  UNL1        0.1709
     21 C         -14.6140  -15.6934   33.3478 C.3     1  UNL1        0.1746
     22 O         -13.8451  -15.3250   32.2251 O.3     1  UNL1       -0.3463
     23 C          -8.4468  -15.3285   25.9709 C.ar    1  UNL1        0.0516
     24 C          -9.2069  -16.3797   25.4352 C.ar    1  UNL1        0.0156
     25 C          -8.7884  -17.0366   24.2741 C.ar    1  UNL1        0.0127
     26 C          -7.6138  -16.6388   23.6283 C.ar    1  UNL1        0.0578
     27 CL         -7.0924  -17.4603   22.1689 Cl      1  UNL1       -0.0822
     28 C          -6.8617  -15.5775   24.1412 C.ar    1  UNL1        0.0127
     29 C          -7.2771  -14.9198   25.3030 C.ar    1  UNL1        0.0156
     30 C          -6.3699  -11.8397   29.3607 C.2     1  UNL1        0.2454
     31 O          -5.6540  -12.5579   28.6133 O.2     1  UNL1       -0.2730
     32 N          -5.9459  -10.4974   29.6428 N.am    1  UNL1       -0.2680
     33 H          -4.9227  -10.3126   29.7445 H       1  UNL1        0.1563
     34 C          -6.8520   -9.4007   29.7890 C.ar    1  UNL1        0.1346
     35 C          -6.5655   -8.3676   30.6868 C.ar    1  UNL1        0.0406
     36 C          -7.4640   -7.3076   30.8202 C.ar    1  UNL1        0.0736
     37 C          -8.6282   -7.2694   30.0374 C.ar    1  UNL1        0.2466
     38 C          -8.8581   -8.3099   29.1254 C.ar    1  UNL1        0.1691
     39 N          -7.9736   -9.3361   29.0226 N.ar    1  UNL1       -0.2228
     40 N          -9.5837   -6.1998   30.1841 N.am    1  UNL1       -0.0841
     41 C          -9.3997   -5.0491   29.4652 C.2     1  UNL1        0.2905
     42 C         -10.3045   -3.9912   29.5697 C.2     1  UNL1        0.0758
     43 C         -11.4032   -4.1113   30.4165 C.2     1  UNL1        0.0161
     44 C         -11.5846   -5.2812   31.1513 C.2     1  UNL1        0.1156
     45 C         -10.6597   -6.3241   31.0294 C.2     1  UNL1        0.4230
     46 O         -10.8222   -7.3688   31.7180 O.2     1  UNL1       -0.2135
@<TRIPOS>BOND
     1    21    22    1
     2    22    20    1
     3    20    12    1
     4    12    13   ar
     5    13    14   ar
     6    14     1    1
     7     1     2    1
     8     1     3    1
     9     3     4    1
    10     4    30    1
    11    30    31    2
    12    30    32   am
    13    32    34    1
    14    34    35   ar
    15    35    36   ar
    16    36    37   ar
    17    37    40    1
    18    40    41    1
    19    41    42    2
    20    42    43    1
    21    43    44    2
    22    44    45    1
    23    45    46    2
    24    37    38   ar
    25    38    39   ar
    26     4     5    1
    27     5     6   am
    28     6     7    2
    29     6     8   am
    30     8    23    1
    31    23    24   ar
    32    24    25   ar
    33    25    26   ar
    34    26    27    1
    35    26    28   ar
    36    28    29   ar
    37     5     9    1
    38    14    15   ar
    39    15    16    1
    40    15    17   ar
    41    17    18   ar
    42    18    19    1
    43    18    12   ar
    44     9     1    1
    45    39    34   ar
    46    29    23   ar
    47    45    40    1
    48     2    10    1
    49    32    33    1
    50     8    11    1
@<TRIPOS>MOLECULE
*****
 46 50 0 0 0
SMALL
GASTEIGER

@<TRIPOS>ATOM
      1 C          -8.4444  -15.3163   22.9402 C.3     1  UNL1        0.1294
      2 O          -8.8461  -14.2258   22.1443 O.3     1  UNL1       -0.3808
      3 C          -7.8851  -14.7957   24.2761 C.3     1  UNL1        0.0622
      4 C          -6.6678  -15.6734   24.5930 C.3     1  UNL1        0.1562
      5 N          -6.2978  -16.3059   23.3340 N.am    1  UNL1       -0.2544
      6 C          -5.2084  -17.2382   23.2026 C.2     1  UNL1        0.3081
      7 O          -4.6316  -17.6705   24.2376 O.2     1  UNL1       -0.2522
      8 N          -4.7728  -17.6767   21.9045 N.am    1  UNL1       -0.2681
      9 C          -7.2437  -16.0170   22.2666 C.3     1  UNL1        0.1264
     10 H          -9.1354  -14.5912   21.2666 H       1  UNL1        0.2107
     11 H          -5.4462  -17.6382   21.1080 H       1  UNL1        0.1564
     12 C         -10.6506  -18.0380   24.5741 C.ar    1  UNL1        0.0346
     13 C          -9.5611  -17.2056   24.2734 C.ar    1  UNL1        0.0006
     14 C          -9.6242  -16.2672   23.2182 C.ar    1  UNL1        0.0308
     15 C         -10.8452  -16.1393   22.5151 C.ar    1  UNL1        0.1406
     16 F         -11.0154  -15.1892   21.5613 F       1  UNL1       -0.2044
     17 C         -11.9212  -16.9831   22.8016 C.ar    1  UNL1        0.0588
     18 C         -11.8236  -17.9389   23.8121 C.ar    1  UNL1        0.1407
     19 F         -12.8805  -18.7541   24.0587 F       1  UNL1       -0.2043
     20 C         -10.5318  -19.0674   25.6639 C.3     1  UNL1        0.1709
     21 C          -9.8055  -20.7294   24.2456 C.3     1  UNL1        0.1746
     22 O          -9.4607  -19.9337   25.3571 O.3     1  UNL1       -0.3463
     23 C          -3.4572  -18.1899   21.6353 C.ar    1  UNL1        0.0516
     24 C          -2.4121  -17.2944   21.3604 C.ar    1  UNL1        0.0156
     25 C          -1.1167  -17.7668   21.1291 C.ar    1  UNL1        0.0127
     26 C          -0.8501  -19.1381   21.1856 C.ar    1  UNL1        0.0578
     27 CL          0.7765  -19.7292   20.9001 Cl      1  UNL1       -0.0822
     28 C          -1.8797  -20.0366   21.4814 C.ar    1  UNL1        0.0127
     29 C          -3.1764  -19.5672   21.7116 C.ar    1  UNL1        0.0156
     30 C          -5.5290  -14.8749   25.1982 C.2     1  UNL1        0.2454
     31 O          -4.5690  -14.5328   24.4578 O.2     1  UNL1       -0.2730
     32 N          -5.4530  -14.5931   26.6039 N.am    1  UNL1       -0.2680
     33 H          -4.5218  -14.6608   27.0725 H       1  UNL1        0.1563
     34 C          -6.5857  -14.2221   27.3941 C.ar    1  UNL1        0.1346
     35 C          -7.7682  -14.9648   27.3193 C.ar    1  UNL1        0.0406
     36 C          -8.8655  -14.5849   28.0940 C.ar    1  UNL1        0.0736
     37 C          -8.7684  -13.4844   28.9596 C.ar    1  UNL1        0.2466
     38 C          -7.5521  -12.7893   29.0274 C.ar    1  UNL1        0.1691
     39 N          -6.5023  -13.1723   28.2547 N.ar    1  UNL1       -0.2228
     40 N          -9.9007  -13.0574   29.7433 N.am    1  UNL1       -0.0841
     41 C         -10.5335  -13.9738   30.5399 C.2     1  UNL1        0.2905
     42 C         -11.6285  -13.6025   31.3221 C.2     1  UNL1        0.0758
     43 C         -12.0793  -12.2855   31.2873 C.2     1  UNL1        0.0161
     44 C         -11.4370  -11.3566   30.4713 C.2     1  UNL1        0.1156
     45 C         -10.3440  -11.7578   29.6951 C.2     1  UNL1        0.4230
     46 O          -9.7858  -10.9130   28.9423 O.2     1  UNL1       -0.2135
@<TRIPOS>BOND
     1    21    22    1
     2    22    20    1
     3    20    12    1
     4    12    13   ar
     5    13    14   ar
     6    14     1    1
     7     1     2    1
     8     1     3    1
     9     3     4    1
    10     4    30    1
    11    30    31    2
    12    30    32   am
    13    32    34    1
    14    34    35   ar
    15    35    36   ar
    16    36    37   ar
    17    37    40    1
    18    40    41    1
    19    41    42    2
    20    42    43    1
    21    43    44    2
    22    44    45    1
    23    45    46    2
    24    37    38   ar
    25    38    39   ar
    26     4     5    1
    27     5     6   am
    28     6     7    2
    29     6     8   am
    30     8    23    1
    31    23    24   ar
    32    24    25   ar
    33    25    26   ar
    34    26    27    1
    35    26    28   ar
    36    28    29   ar
    37     5     9    1
    38    14    15   ar
    39    15    16    1
    40    15    17   ar
    41    17    18   ar
    42    18    19    1
    43    18    12   ar
    44     9     1    1
    45    39    34   ar
    46    29    23   ar
    47    45    40    1
    48     2    10    1
    49    32    33    1
    50     8    11    1
@<TRIPOS>MOLECULE
*****
 46 50 0 0 0
SMALL
GASTEIGER

@<TRIPOS>ATOM
      1 C          -8.4545  -15.3087   23.2482 C.3     1  UNL1        0.1294
      2 O          -8.8990  -14.2225   22.4692 O.3     1  UNL1       -0.3808
      3 C          -7.8874  -14.7850   24.5795 C.3     1  UNL1        0.0622
      4 C          -6.6415  -15.6317   24.8681 C.3     1  UNL1        0.1562
      5 N          -6.2755  -16.2425   23.5973 N.am    1  UNL1       -0.2544
      6 C          -5.1634  -17.1434   23.4393 C.2     1  UNL1        0.3081
      7 O          -4.5578  -17.5690   24.4605 O.2     1  UNL1       -0.2522
      8 N          -4.7377  -17.5582   22.1301 N.am    1  UNL1       -0.2681
      9 C          -7.2466  -15.9701   22.5484 C.3     1  UNL1        0.1264
     10 H          -9.1929  -14.5879   21.5930 H       1  UNL1        0.2107
     11 H          -5.4251  -17.5310   21.3452 H       1  UNL1        0.1564
     12 C         -11.7171  -17.3466   22.8647 C.ar    1  UNL1        0.0346
     13 C         -10.6930  -16.4123   22.6441 C.ar    1  UNL1        0.0006
     14 C          -9.6032  -16.2940   23.5365 C.ar    1  UNL1        0.0308
     15 C          -9.5353  -17.1950   24.6250 C.ar    1  UNL1        0.1406
     16 F          -8.4677  -17.2124   25.4626 F       1  UNL1       -0.2044
     17 C         -10.5660  -18.1097   24.8550 C.ar    1  UNL1        0.0588
     18 C         -11.6597  -18.1774   23.9929 C.ar    1  UNL1        0.1407
     19 F         -12.6527  -19.0666   24.2492 F       1  UNL1       -0.2043
     20 C         -12.8934  -17.4074   21.9297 C.3     1  UNL1        0.1709
     21 C         -12.3303  -16.3101   19.9855 C.3     1  UNL1        0.1746
     22 O         -12.4187  -17.5706   20.6107 O.3     1  UNL1       -0.3463
     23 C          -3.4133  -18.0327   21.8346 C.ar    1  UNL1        0.0516
     24 C          -3.1700  -19.4144   21.7961 C.ar    1  UNL1        0.0156
     25 C          -1.8987  -19.9014   21.4775 C.ar    1  UNL1        0.0127
     26 C          -0.8619  -19.0121   21.1789 C.ar    1  UNL1        0.0578
     27 CL          0.7312  -19.6244   20.7745 Cl      1  UNL1       -0.0822
     28 C          -1.1001  -17.6344   21.1920 C.ar    1  UNL1        0.0127
     29 C          -2.3700  -17.1446   21.5118 C.ar    1  UNL1        0.0156
     30 C          -5.5151  -14.8078   25.4620 C.2     1  UNL1        0.2454
     31 O          -4.5446  -14.4887   24.7249 O.2     1  UNL1       -0.2730
     32 N          -5.4621  -14.4755   26.8577 N.am    1  UNL1       -0.2680
     33 H          -4.5382  -14.5228   27.3429 H       1  UNL1        0.1563
     34 C          -6.6083  -14.0807   27.6162 C.ar    1  UNL1        0.1346
     35 C          -7.7835  -14.8363   27.5582 C.ar    1  UNL1        0.0406
     36 C          -8.8942  -14.4330   28.3014 C.ar    1  UNL1        0.0736
     37 C          -8.8178  -13.2955   29.1198 C.ar    1  UNL1        0.2466
     38 C          -7.6083  -12.5875   29.1734 C.ar    1  UNL1        0.1691
     39 N          -6.5451  -12.9942   28.4317 N.ar    1  UNL1       -0.2228
     40 N          -9.9640  -12.8450   29.8695 N.am    1  UNL1       -0.0841
     41 C         -10.5777  -13.7212   30.7242 C.2     1  UNL1        0.2905
     42 C         -11.6852  -13.3255   31.4763 C.2     1  UNL1        0.0758
     43 C         -12.1683  -12.0255   31.3513 C.2     1  UNL1        0.0161
     44 C         -11.5452  -11.1380   30.4765 C.2     1  UNL1        0.1156
     45 C         -10.4390  -11.5631   29.7324 C.2     1  UNL1        0.4230
     46 O          -9.8983  -10.7573   28.9260 O.2     1  UNL1       -0.2135
@<TRIPOS>BOND
     1    21    22    1
     2    22    20    1
     3    20    12    1
     4    12    13   ar
     5    13    14   ar
     6    14     1    1
     7     1     2    1
     8     1     3    1
     9     3     4    1
    10     4    30    1
    11    30    31    2
    12    30    32   am
    13    32    34    1
    14    34    35   ar
    15    35    36   ar
    16    36    37   ar
    17    37    40    1
    18    40    41    1
    19    41    42    2
    20    42    43    1
    21    43    44    2
    22    44    45    1
    23    45    46    2
    24    37    38   ar
    25    38    39   ar
    26     4     5    1
    27     5     6   am
    28     6     7    2
    29     6     8   am
    30     8    23    1
    31    23    24   ar
    32    24    25   ar
    33    25    26   ar
    34    26    27    1
    35    26    28   ar
    36    28    29   ar
    37     5     9    1
    38    14    15   ar
    39    15    16    1
    40    15    17   ar
    41    17    18   ar
    42    18    19    1
    43    18    12   ar
    44     9     1    1
    45    39    34   ar
    46    29    23   ar
    47    45    40    1
    48     2    10    1
    49    32    33    1
    50     8    11    1
@<TRIPOS>MOLECULE
*****
 46 50 0 0 0
SMALL
GASTEIGER

@<TRIPOS>ATOM
      1 C         -11.8652  -12.9492   31.6346 C.3     1  UNL1        0.1294
      2 O         -13.2284  -13.3023   31.5999 O.3     1  UNL1       -0.3808
      3 C         -11.7094  -11.4721   31.2318 C.3     1  UNL1        0.0622
      4 C         -10.4577  -11.4071   30.3476 C.3     1  UNL1        0.1562
      5 N         -10.2124  -12.7742   29.9085 N.am    1  UNL1       -0.2544
      6 C          -9.1026  -13.1540   29.0734 C.2     1  UNL1        0.3081
      7 O          -8.1936  -12.3149   28.8276 O.2     1  UNL1       -0.2522
      8 N          -9.0243  -14.4775   28.5174 N.am    1  UNL1       -0.2681
      9 C         -11.1138  -13.7302   30.5339 C.3     1  UNL1        0.1264
     10 H         -13.2868  -14.2749   31.7959 H       1  UNL1        0.2107
     11 H          -9.5292  -15.2554   28.9962 H       1  UNL1        0.1564
     12 C          -9.5916  -12.5996   34.7414 C.ar    1  UNL1        0.0346
     13 C         -10.1100  -12.4618   33.4443 C.ar    1  UNL1        0.0006
     14 C         -11.2715  -13.1589   33.0406 C.ar    1  UNL1        0.0308
     15 C         -11.9413  -13.9482   34.0049 C.ar    1  UNL1        0.1406
     16 F         -13.1183  -14.5615   33.7222 F       1  UNL1       -0.2044
     17 C         -11.4123  -14.1011   35.2889 C.ar    1  UNL1        0.0588
     18 C         -10.2366  -13.4466   35.6542 C.ar    1  UNL1        0.1407
     19 F          -9.7388  -13.6250   36.9043 F       1  UNL1       -0.2043
     20 C          -8.3208  -11.8915   35.1224 C.3     1  UNL1        0.1709
     21 C          -8.3224  -10.3164   33.4430 C.3     1  UNL1        0.1746
     22 O          -7.6700  -11.4602   33.9467 O.3     1  UNL1       -0.3463
     23 C          -8.2684  -14.8048   27.3392 C.ar    1  UNL1        0.0516
     24 C          -6.8678  -14.8586   27.4130 C.ar    1  UNL1        0.0156
     25 C          -6.1120  -15.2080   26.2899 C.ar    1  UNL1        0.0127
     26 C          -6.7496  -15.5221   25.0858 C.ar    1  UNL1        0.0578
     27 CL         -5.8005  -15.9650   23.6789 Cl      1  UNL1       -0.0822
     28 C          -8.1454  -15.4937   25.0083 C.ar    1  UNL1        0.0127
     29 C          -8.9037  -15.1433   26.1295 C.ar    1  UNL1        0.0156
     30 C         -10.6270  -10.4460   29.1865 C.2     1  UNL1        0.2454
     31 O         -11.7547  -10.3594   28.6317 O.2     1  UNL1       -0.2730
     32 N          -9.5235   -9.7171   28.6279 N.am    1  UNL1       -0.2680
     33 H          -9.4694   -9.6203   27.5891 H       1  UNL1        0.1563
     34 C          -8.4967   -9.1150   29.4205 C.ar    1  UNL1        0.1346
     35 C          -8.7824   -7.9947   30.2072 C.ar    1  UNL1        0.0406
     36 C          -7.7664   -7.4170   30.9705 C.ar    1  UNL1        0.0736
     37 C          -6.4792   -7.9762   30.9671 C.ar    1  UNL1        0.2466
     38 C          -6.2465   -9.1201   30.1895 C.ar    1  UNL1        0.1691
     39 N          -7.2495   -9.6568   29.4467 N.ar    1  UNL1       -0.2228
     40 N          -5.4092   -7.3747   31.7234 N.am    1  UNL1       -0.0841
     41 C          -4.4643   -6.6404   31.0580 C.2     1  UNL1        0.2905
     42 C          -3.4156   -6.0332   31.7510 C.2     1  UNL1        0.0758
     43 C          -3.3328   -6.1800   33.1332 C.2     1  UNL1        0.0161
     44 C          -4.2925   -6.9327   33.8068 C.2     1  UNL1        0.1156
     45 C          -5.3307   -7.5331   33.0860 C.2     1  UNL1        0.4230
     46 O          -6.1800   -8.2318   33.7044 O.2     1  UNL1       -0.2135
@<TRIPOS>BOND
     1    21    22    1
     2    22    20    1
     3    20    12    1
     4    12    13   ar
     5    13    14   ar
     6    14     1    1
     7     1     2    1
     8     1     3    1
     9     3     4    1
    10     4    30    1
    11    30    31    2
    12    30    32   am
    13    32    34    1
    14    34    35   ar
    15    35    36   ar
    16    36    37   ar
    17    37    40    1
    18    40    41    1
    19    41    42    2
    20    42    43    1
    21    43    44    2
    22    44    45    1
    23    45    46    2
    24    37    38   ar
    25    38    39   ar
    26     4     5    1
    27     5     6   am
    28     6     7    2
    29     6     8   am
    30     8    23    1
    31    23    24   ar
    32    24    25   ar
    33    25    26   ar
    34    26    27    1
    35    26    28   ar
    36    28    29   ar
    37     5     9    1
    38    14    15   ar
    39    15    16    1
    40    15    17   ar
    41    17    18   ar
    42    18    19    1
    43    18    12   ar
    44     9     1    1
    45    39    34   ar
    46    29    23   ar
    47    45    40    1
    48     2    10    1
    49    32    33    1
    50     8    11    1
@<TRIPOS>MOLECULE
*****
 46 50 0 0 0
SMALL
GASTEIGER

@<TRIPOS>ATOM
      1 C         -11.4840  -11.9418   31.0351 C.3     1  UNL1        0.1294
      2 O         -11.4903  -12.5741   29.7764 O.3     1  UNL1       -0.3808
      3 C         -12.3880  -10.6973   30.9867 C.3     1  UNL1        0.0622
      4 C         -11.6555   -9.6139   31.7880 C.3     1  UNL1        0.1562
      5 N         -10.2692  -10.0533   31.8717 N.am    1  UNL1       -0.2544
      6 C          -9.2447   -9.3232   32.5722 C.2     1  UNL1        0.3081
      7 O          -9.5647   -8.3383   33.2921 O.2     1  UNL1       -0.2522
      8 N          -7.8637   -9.7057   32.4554 N.am    1  UNL1       -0.2681
      9 C         -10.0712  -11.3813   31.3107 C.3     1  UNL1        0.1264
     10 H         -10.8458  -13.3292   29.8218 H       1  UNL1        0.2107
     11 H          -7.6342  -10.6905   32.1971 H       1  UNL1        0.1564
     12 C         -11.6987  -13.9167   34.3514 C.ar    1  UNL1        0.0346
     13 C         -11.2268  -13.0983   33.3133 C.ar    1  UNL1        0.0006
     14 C         -11.9855  -12.8929   32.1385 C.ar    1  UNL1        0.0308
     15 C         -13.2705  -13.4802   32.0665 C.ar    1  UNL1        0.1406
     16 F         -14.0987  -13.2421   31.0182 F       1  UNL1       -0.2044
     17 C         -13.7296  -14.3115   33.0911 C.ar    1  UNL1        0.0588
     18 C         -12.9457  -14.5447   34.2203 C.ar    1  UNL1        0.1407
     19 F         -13.4121  -15.3681   35.1934 F       1  UNL1       -0.2043
     20 C         -10.8423  -14.1635   35.5627 C.3     1  UNL1        0.1709
     21 C          -8.9915  -12.8521   35.9578 C.3     1  UNL1        0.1746
     22 O          -9.4916  -13.9429   35.2179 O.3     1  UNL1       -0.3463
     23 C          -6.7646   -8.8104   32.6944 C.ar    1  UNL1        0.0516
     24 C          -5.4524   -9.3072   32.6606 C.ar    1  UNL1        0.0156
     25 C          -4.3651   -8.4503   32.8560 C.ar    1  UNL1        0.0127
     26 C          -4.5781   -7.0854   33.0717 C.ar    1  UNL1        0.0578
     27 CL         -3.2130   -6.0105   33.3118 Cl      1  UNL1       -0.0822
     28 C          -5.8805   -6.5768   33.0844 C.ar    1  UNL1        0.0127
     29 C          -6.9698   -7.4317   32.8907 C.ar    1  UNL1        0.0156
     30 C         -11.7926   -8.2428   31.1542 C.2     1  UNL1        0.2454
     31 O         -12.6129   -7.4256   31.6506 O.2     1  UNL1       -0.2730
     32 N         -11.1051   -7.8849   29.9458 N.am    1  UNL1       -0.2680
     33 H         -11.6215   -7.3270   29.2293 H       1  UNL1        0.1563
     34 C          -9.7496   -8.2507   29.6743 C.ar    1  UNL1        0.1346
     35 C          -8.7171   -7.3330   29.8921 C.ar    1  UNL1        0.0406
     36 C          -7.4003   -7.7058   29.6166 C.ar    1  UNL1        0.0736
     37 C          -7.1178   -8.9998   29.1528 C.ar    1  UNL1        0.2466
     38 C          -8.1811   -9.8982   28.9812 C.ar    1  UNL1        0.1691
     39 N          -9.4552   -9.5074   29.2458 N.ar    1  UNL1       -0.2228
     40 N          -5.7682   -9.3926   28.8322 N.am    1  UNL1       -0.0841
     41 C          -5.1233   -8.7561   27.8056 C.2     1  UNL1        0.2905
     42 C          -3.8132   -9.0981   27.4661 C.2     1  UNL1        0.0758
     43 C          -3.1600  -10.0989   28.1805 C.2     1  UNL1        0.0161
     44 C          -3.8208  -10.7489   29.2208 C.2     1  UNL1        0.1156
     45 C          -5.1352  -10.3879   29.5369 C.2     1  UNL1        0.4230
     46 O          -5.7310  -11.0003   30.4653 O.2     1  UNL1       -0.2135
@<TRIPOS>BOND
     1    21    22    1
     2    22    20    1
     3    20    12    1
     4    12    13   ar
     5    13    14   ar
     6    14     1    1
     7     1     2    1
     8     1     3    1
     9     3     4    1
    10     4    30    1
    11    30    31    2
    12    30    32   am
    13    32    34    1
    14    34    35   ar
    15    35    36   ar
    16    36    37   ar
    17    37    40    1
    18    40    41    1
    19    41    42    2
    20    42    43    1
    21    43    44    2
    22    44    45    1
    23    45    46    2
    24    37    38   ar
    25    38    39   ar
    26     4     5    1
    27     5     6   am
    28     6     7    2
    29     6     8   am
    30     8    23    1
    31    23    24   ar
    32    24    25   ar
    33    25    26   ar
    34    26    27    1
    35    26    28   ar
    36    28    29   ar
    37     5     9    1
    38    14    15   ar
    39    15    16    1
    40    15    17   ar
    41    17    18   ar
    42    18    19    1
    43    18    12   ar
    44     9     1    1
    45    39    34   ar
    46    29    23   ar
    47    45    40    1
    48     2    10    1
    49    32    33    1
    50     8    11    1
