@<TRIPOS>MOLECULE
*****
 37 42 0 0 0
SMALL
GASTEIGER

@<TRIPOS>ATOM
      1 C          49.1978   11.2411  -25.9778 C.ar    1  UNL1        0.1095
      2 N          49.2571   10.2536  -26.9074 N.ar    1  UNL1       -0.1677
      3 N          50.5315   10.0675  -27.2309 N.ar    1  UNL1       -0.2319
      4 C          51.0047    9.0359  -28.1440 C.3     1  UNL1        0.1554
      5 C          51.2818   10.9055  -26.4996 C.ar    1  UNL1        0.1650
      6 N          52.6335   10.9918  -26.4849 N.ar    1  UNL1       -0.2095
      7 C          53.2133   11.9068  -25.6509 C.ar    1  UNL1        0.1717
      8 N          52.4330   12.7413  -24.8916 N.ar    1  UNL1       -0.2133
      9 C          51.0688   12.6611  -24.9048 C.ar    1  UNL1        0.1376
     10 C          50.4886   11.6830  -25.7145 C.ar    1  UNL1        0.0865
     11 C          46.7552   12.0087  -25.8768 C.ar    1  UNL1        0.0809
     12 C          47.9518   11.6253  -25.2972 C.ar    1  UNL1        0.0577
     13 C          47.6844   11.5440  -23.9433 C.ar    1  UNL1        0.1231
     14 N          46.4012   11.8890  -23.7207 N.ar    1  UNL1       -0.1676
     15 N          45.8485   12.1806  -24.8885 N.ar    1  UNL1       -0.2488
     16 C          44.4606   12.6102  -25.0248 C.3     1  UNL1        0.1537
     17 C          45.7454   12.9109  -31.5092 C.3     1  UNL1        0.0310
     18 C          46.0438   12.6841  -30.0570 C.ar    1  UNL1       -0.0218
     19 C          46.2815   11.3870  -29.5787 C.ar    1  UNL1       -0.0042
     20 C          46.5216   11.1703  -28.2190 C.ar    1  UNL1        0.0012
     21 C          46.5168   12.2464  -27.3172 C.ar    1  UNL1        0.0174
     22 C          46.2558   13.5402  -27.7934 C.ar    1  UNL1        0.0012
     23 C          46.0164   13.7569  -29.1535 C.ar    1  UNL1       -0.0042
     24 N          50.2889   13.6267  -24.1925 N.pl3   1  UNL1       -0.2917
     25 C          49.9044   13.4399  -22.8046 C.3     1  UNL1        0.0937
     26 C          48.7348   14.3888  -22.5732 C.3     1  UNL1        0.0391
     27 C          48.7512   15.3815  -23.7503 C.3     1  UNL1        0.0790
     28 C          49.4507   14.5964  -24.8692 C.3     1  UNL1        0.1081
     29 N          47.3861   15.8362  -24.1326 N.3     1  UNL1       -0.2723
     30 C          46.9535   17.0354  -23.3573 C.3     1  UNL1        0.0721
     31 C          47.1585   18.3492  -24.1245 C.3     1  UNL1        0.0174
     32 C          46.3382   18.3640  -25.4243 C.3     1  UNL1        0.0029
     33 C          46.1121   16.9532  -25.9898 C.3     1  UNL1        0.0174
     34 C          47.2662   16.0190  -25.6071 C.3     1  UNL1        0.0721
     35 C          54.7010   12.0561  -25.6289 C.3     1  UNL1        0.2032
     36 O          55.1933   12.1501  -26.9372 O.3     1  UNL1       -0.3748
     37 H          54.9896   13.0697  -27.2519 H       1  UNL1        0.2110
@<TRIPOS>BOND
     1    17    18    1
     2    18    19   ar
     3    19    20   ar
     4    20    21   ar
     5    21    11    1
     6    11    12   ar
     7    12     1    1
     8     1     2   ar
     9     2     3   ar
    10     3     4    1
    11     3     5   ar
    12     5     6   ar
    13     6     7   ar
    14     7    35    1
    15    35    36    1
    16     7     8   ar
    17     8     9   ar
    18     9    24    1
    19    24    25    1
    20    25    26    1
    21    26    27    1
    22    27    29    1
    23    29    30    1
    24    30    31    1
    25    31    32    1
    26    32    33    1
    27    33    34    1
    28    27    28    1
    29     9    10   ar
    30    12    13   ar
    31    13    14   ar
    32    14    15   ar
    33    15    16    1
    34    21    22   ar
    35    22    23   ar
    36    23    18   ar
    37    15    11   ar
    38    10     1   ar
    39    10     5   ar
    40    28    24    1
    41    34    29    1
    42    36    37    1
@<TRIPOS>MOLECULE
*****
 37 42 0 0 0
SMALL
GASTEIGER

@<TRIPOS>ATOM
      1 C          47.6296   10.9385  -27.6543 C.ar    1  UNL1        0.1095
      2 N          47.6818    9.7182  -28.2469 N.ar    1  UNL1       -0.1677
      3 N          47.1406    9.8226  -29.4550 N.ar    1  UNL1       -0.2319
      4 C          47.0838    8.7383  -30.4259 C.3     1  UNL1        0.1554
      5 C          46.7703   11.0980  -29.6453 C.ar    1  UNL1        0.1650
      6 N          46.2332   11.6350  -30.7669 N.ar    1  UNL1       -0.2095
      7 C          45.9380   12.9699  -30.7665 C.ar    1  UNL1        0.1717
      8 N          46.1407   13.7219  -29.6373 N.ar    1  UNL1       -0.2133
      9 C          46.6792   13.1849  -28.5019 C.ar    1  UNL1        0.1376
     10 C          47.0327   11.8347  -28.5324 C.ar    1  UNL1        0.0865
     11 C          49.5998   11.1681  -26.0322 C.ar    1  UNL1        0.0809
     12 C          48.2551   11.2239  -26.3541 C.ar    1  UNL1        0.0577
     13 C          47.6389   11.7423  -25.2304 C.ar    1  UNL1        0.1231
     14 N          48.5633   11.9586  -24.2746 N.ar    1  UNL1       -0.1676
     15 N          49.7427   11.5989  -24.7585 N.ar    1  UNL1       -0.2488
     16 C          50.9776   11.6854  -23.9860 C.3     1  UNL1        0.1537
     17 C          53.8166    9.2410  -29.5054 C.3     1  UNL1        0.0310
     18 C          52.7437    9.7259  -28.5763 C.ar    1  UNL1       -0.0218
     19 C          51.6125    8.9343  -28.3287 C.ar    1  UNL1       -0.0042
     20 C          50.5943    9.4018  -27.4932 C.ar    1  UNL1        0.0012
     21 C          50.6883   10.6719  -26.9023 C.ar    1  UNL1        0.0174
     22 C          51.8095   11.4722  -27.1693 C.ar    1  UNL1        0.0012
     23 C          52.8282   11.0041  -28.0044 C.ar    1  UNL1       -0.0042
     24 N          46.7628   13.9713  -27.3091 N.pl3   1  UNL1       -0.2917
     25 C          45.5908   14.3101  -26.5213 C.3     1  UNL1        0.0937
     26 C          46.0049   15.4993  -25.6632 C.3     1  UNL1        0.0391
     27 C          47.5434   15.5453  -25.7114 C.3     1  UNL1        0.0790
     28 C          47.8792   14.8561  -27.0417 C.3     1  UNL1        0.1081
     29 N          48.0757   16.9333  -25.6314 N.3     1  UNL1       -0.2723
     30 C          49.2686   17.0293  -24.7403 C.3     1  UNL1        0.0721
     31 C          50.5951   17.0051  -25.5125 C.3     1  UNL1        0.0174
     32 C          50.6917   18.1936  -26.4825 C.3     1  UNL1        0.0029
     33 C          49.3126   18.6664  -26.9680 C.3     1  UNL1        0.0174
     34 C          48.3118   17.5048  -26.9876 C.3     1  UNL1        0.0721
     35 C          45.3138   13.5944  -31.9734 C.3     1  UNL1        0.2032
     36 O          46.1161   14.6439  -32.4399 O.3     1  UNL1       -0.3748
     37 H          46.8845   14.2264  -32.9105 H       1  UNL1        0.2110
@<TRIPOS>BOND
     1    17    18    1
     2    18    19   ar
     3    19    20   ar
     4    20    21   ar
     5    21    11    1
     6    11    12   ar
     7    12     1    1
     8     1     2   ar
     9     2     3   ar
    10     3     4    1
    11     3     5   ar
    12     5     6   ar
    13     6     7   ar
    14     7    35    1
    15    35    36    1
    16     7     8   ar
    17     8     9   ar
    18     9    24    1
    19    24    25    1
    20    25    26    1
    21    26    27    1
    22    27    29    1
    23    29    30    1
    24    30    31    1
    25    31    32    1
    26    32    33    1
    27    33    34    1
    28    27    28    1
    29     9    10   ar
    30    12    13   ar
    31    13    14   ar
    32    14    15   ar
    33    15    16    1
    34    21    22   ar
    35    22    23   ar
    36    23    18   ar
    37    15    11   ar
    38    10     1   ar
    39    10     5   ar
    40    28    24    1
    41    34    29    1
    42    36    37    1
@<TRIPOS>MOLECULE
*****
 37 42 0 0 0
SMALL
GASTEIGER

@<TRIPOS>ATOM
      1 C          48.0383   15.1450  -22.9379 C.ar    1  UNL1        0.1095
      2 N          47.0436   16.0300  -22.6726 N.ar    1  UNL1       -0.1677
      3 N          47.2533   17.1181  -23.4043 N.ar    1  UNL1       -0.2319
      4 C          46.3532   18.2624  -23.4508 C.3     1  UNL1        0.1554
      5 C          48.3525   16.9237  -24.1487 C.ar    1  UNL1        0.1650
      6 N          48.8745   17.7661  -25.0720 N.ar    1  UNL1       -0.2095
      7 C          50.0000   17.3736  -25.7414 C.ar    1  UNL1        0.1717
      8 N          50.6007   16.1776  -25.4408 N.ar    1  UNL1       -0.2133
      9 C          50.0805   15.3251  -24.5079 C.ar    1  UNL1        0.1376
     10 C          48.8978   15.7084  -23.8731 C.ar    1  UNL1        0.0865
     11 C          47.8288   12.5953  -23.0822 C.ar    1  UNL1        0.0809
     12 C          48.0567   13.7768  -22.3987 C.ar    1  UNL1        0.0577
     13 C          48.4448   13.3878  -21.1302 C.ar    1  UNL1        0.1231
     14 N          48.4226   12.0431  -21.0498 N.ar    1  UNL1       -0.1676
     15 N          48.0383   11.5702  -22.2258 N.ar    1  UNL1       -0.2488
     16 C          47.8891   10.1443  -22.4977 C.3     1  UNL1        0.1537
     17 C          46.0927   12.1771  -28.5930 C.3     1  UNL1        0.0310
     18 C          46.5251   12.2523  -27.1588 C.ar    1  UNL1       -0.0218
     19 C          45.7472   12.9482  -26.2218 C.ar    1  UNL1       -0.0042
     20 C          46.1689   13.0512  -24.8933 C.ar    1  UNL1        0.0012
     21 C          47.3797   12.4688  -24.4859 C.ar    1  UNL1        0.0174
     22 C          48.1682   11.7929  -25.4294 C.ar    1  UNL1        0.0012
     23 C          47.7459   11.6893  -26.7580 C.ar    1  UNL1       -0.0042
     24 N          50.8006   14.1451  -24.1373 N.pl3   1  UNL1       -0.2917
     25 C          51.8895   14.1722  -23.1768 C.3     1  UNL1        0.0937
     26 C          52.6750   12.8880  -23.4131 C.3     1  UNL1        0.0391
     27 C          51.7593   11.9754  -24.2498 C.3     1  UNL1        0.0790
     28 C          50.8387   12.9652  -24.9781 C.3     1  UNL1        0.1081
     29 N          52.5225   11.1038  -25.1848 N.3     1  UNL1       -0.2723
     30 C          51.9878    9.7112  -25.2208 C.3     1  UNL1        0.0721
     31 C          51.0482    9.4622  -26.4089 C.3     1  UNL1        0.0174
     32 C          51.7787    9.6724  -27.7449 C.3     1  UNL1        0.0029
     33 C          52.9257   10.6886  -27.6312 C.3     1  UNL1        0.0174
     34 C          52.6345   11.7220  -26.5365 C.3     1  UNL1        0.0721
     35 C          50.6262   18.2884  -26.7450 C.3     1  UNL1        0.2032
     36 O          49.6545   19.1346  -27.2950 O.3     1  UNL1       -0.3748
     37 H          49.4619   19.8282  -26.6109 H       1  UNL1        0.2110
@<TRIPOS>BOND
     1    17    18    1
     2    18    19   ar
     3    19    20   ar
     4    20    21   ar
     5    21    11    1
     6    11    12   ar
     7    12     1    1
     8     1     2   ar
     9     2     3   ar
    10     3     4    1
    11     3     5   ar
    12     5     6   ar
    13     6     7   ar
    14     7    35    1
    15    35    36    1
    16     7     8   ar
    17     8     9   ar
    18     9    24    1
    19    24    25    1
    20    25    26    1
    21    26    27    1
    22    27    29    1
    23    29    30    1
    24    30    31    1
    25    31    32    1
    26    32    33    1
    27    33    34    1
    28    27    28    1
    29     9    10   ar
    30    12    13   ar
    31    13    14   ar
    32    14    15   ar
    33    15    16    1
    34    21    22   ar
    35    22    23   ar
    36    23    18   ar
    37    15    11   ar
    38    10     1   ar
    39    10     5   ar
    40    28    24    1
    41    34    29    1
    42    36    37    1
@<TRIPOS>MOLECULE
*****
 37 42 0 0 0
SMALL
GASTEIGER

@<TRIPOS>ATOM
      1 C          48.0721   13.0515  -25.1969 C.ar    1  UNL1        0.1095
      2 N          47.1591   12.9692  -26.1981 N.ar    1  UNL1       -0.1677
      3 N          47.2224   14.0899  -26.9075 N.ar    1  UNL1       -0.2319
      4 C          46.4465   14.3430  -28.1141 C.3     1  UNL1        0.1554
      5 C          48.1811   14.8695  -26.3849 C.ar    1  UNL1        0.1650
      6 N          48.6022   16.0703  -26.8490 N.ar    1  UNL1       -0.2095
      7 C          49.6115   16.7039  -26.1789 C.ar    1  UNL1        0.1717
      8 N          50.1402   16.1492  -25.0413 N.ar    1  UNL1       -0.2133
      9 C          49.7171   14.9395  -24.5665 C.ar    1  UNL1        0.1376
     10 C          48.7280   14.2728  -25.2917 C.ar    1  UNL1        0.0865
     11 C          49.3656   10.9830  -24.4132 C.ar    1  UNL1        0.0809
     12 C          48.3667   11.9326  -24.2888 C.ar    1  UNL1        0.0577
     13 C          47.7929   11.6897  -23.0548 C.ar    1  UNL1        0.1231
     14 N          48.3981   10.6309  -22.4823 N.ar    1  UNL1       -0.1676
     15 N          49.3374   10.2004  -23.3110 N.ar    1  UNL1       -0.2488
     16 C          50.1885    9.0517  -23.0183 C.3     1  UNL1        0.1537
     17 C          52.9630   10.2677  -28.8970 C.3     1  UNL1        0.0310
     18 C          52.0123   10.4787  -27.7563 C.ar    1  UNL1       -0.0218
     19 C          52.3203   11.3951  -26.7400 C.ar    1  UNL1       -0.0042
     20 C          51.4532   11.5642  -25.6571 C.ar    1  UNL1        0.0012
     21 C          50.2712   10.8116  -25.5701 C.ar    1  UNL1        0.0174
     22 C          49.9758    9.8785  -26.5756 C.ar    1  UNL1        0.0012
     23 C          50.8428    9.7099  -27.6591 C.ar    1  UNL1       -0.0042
     24 N          50.2071   14.4523  -23.3132 N.pl3   1  UNL1       -0.2917
     25 C          51.4319   13.6792  -23.2084 C.3     1  UNL1        0.0937
     26 C          51.3522   12.9673  -21.8635 C.3     1  UNL1        0.0391
     27 C          50.2451   13.6823  -21.0671 C.3     1  UNL1        0.0790
     28 C          49.3459   14.2762  -22.1608 C.3     1  UNL1        0.1081
     29 N          49.5118   12.7612  -20.1559 N.3     1  UNL1       -0.2723
     30 C          50.4231   11.7906  -19.4823 C.3     1  UNL1        0.0721
     31 C          50.8123   12.2230  -18.0616 C.3     1  UNL1        0.0174
     32 C          49.5727   12.3391  -17.1602 C.3     1  UNL1        0.0029
     33 C          48.3041   12.6924  -17.9521 C.3     1  UNL1        0.0174
     34 C          48.6494   13.5131  -19.2005 C.3     1  UNL1        0.0721
     35 C          50.0829   18.0462  -26.6397 C.3     1  UNL1        0.2032
     36 O          51.4832   18.0811  -26.6628 O.3     1  UNL1       -0.3748
     37 H          51.7667   17.5759  -27.4695 H       1  UNL1        0.2110
@<TRIPOS>BOND
     1    17    18    1
     2    18    19   ar
     3    19    20   ar
     4    20    21   ar
     5    21    11    1
     6    11    12   ar
     7    12     1    1
     8     1     2   ar
     9     2     3   ar
    10     3     4    1
    11     3     5   ar
    12     5     6   ar
    13     6     7   ar
    14     7    35    1
    15    35    36    1
    16     7     8   ar
    17     8     9   ar
    18     9    24    1
    19    24    25    1
    20    25    26    1
    21    26    27    1
    22    27    29    1
    23    29    30    1
    24    30    31    1
    25    31    32    1
    26    32    33    1
    27    33    34    1
    28    27    28    1
    29     9    10   ar
    30    12    13   ar
    31    13    14   ar
    32    14    15   ar
    33    15    16    1
    34    21    22   ar
    35    22    23   ar
    36    23    18   ar
    37    15    11   ar
    38    10     1   ar
    39    10     5   ar
    40    28    24    1
    41    34    29    1
    42    36    37    1
@<TRIPOS>MOLECULE
*****
 37 42 0 0 0
SMALL
GASTEIGER

@<TRIPOS>ATOM
      1 C          48.5638   11.5930  -23.0374 C.ar    1  UNL1        0.1095
      2 N          48.4336   10.3785  -22.4452 N.ar    1  UNL1       -0.1677
      3 N          49.2792   10.3252  -21.4227 N.ar    1  UNL1       -0.2319
      4 C          49.3764    9.2065  -20.4949 C.3     1  UNL1        0.1554
      5 C          49.9241   11.4990  -21.3437 C.ar    1  UNL1        0.1650
      6 N          50.8265   11.8749  -20.4060 N.ar    1  UNL1       -0.2095
      7 C          51.3622   13.1297  -20.4916 C.ar    1  UNL1        0.1717
      8 N          51.0220   13.9567  -21.5318 N.ar    1  UNL1       -0.2133
      9 C          50.1147   13.5817  -22.4825 C.ar    1  UNL1        0.1376
     10 C          49.5286   12.3213  -22.3524 C.ar    1  UNL1        0.0865
     11 C          47.8526   11.8392  -25.4868 C.ar    1  UNL1        0.0809
     12 C          47.6894   12.0488  -24.1287 C.ar    1  UNL1        0.0577
     13 C          46.4540   12.6570  -24.0060 C.ar    1  UNL1        0.1231
     14 N          45.9180   12.8288  -25.2300 N.ar    1  UNL1       -0.1676
     15 N          46.7709   12.3454  -26.1206 N.ar    1  UNL1       -0.2488
     16 C          46.5204   12.3764  -27.5579 C.3     1  UNL1        0.1537
     17 C          52.4360    9.4698  -28.1206 C.3     1  UNL1        0.0310
     18 C          51.2520   10.0569  -27.4114 C.ar    1  UNL1       -0.0218
     19 C          49.9517    9.6680  -27.7659 C.ar    1  UNL1       -0.0042
     20 C          48.8467   10.2428  -27.1321 C.ar    1  UNL1        0.0012
     21 C          49.0264   11.2224  -26.1424 C.ar    1  UNL1        0.0174
     22 C          50.3269   11.6273  -25.8052 C.ar    1  UNL1        0.0012
     23 C          51.4321   11.0517  -26.4388 C.ar    1  UNL1       -0.0042
     24 N          49.8774   14.4230  -23.6157 N.pl3   1  UNL1       -0.2917
     25 C          50.7373   14.4069  -24.7857 C.3     1  UNL1        0.0937
     26 C          50.4601   15.7158  -25.5149 C.3     1  UNL1        0.0391
     27 C          49.1435   16.2597  -24.9300 C.3     1  UNL1        0.0790
     28 C          49.0934   15.6389  -23.5266 C.3     1  UNL1        0.1081
     29 N          49.1023   17.7476  -24.9034 N.3     1  UNL1       -0.2723
     30 C          50.1043   18.3560  -25.8265 C.3     1  UNL1        0.0721
     31 C          49.4992   18.7740  -27.1740 C.3     1  UNL1        0.0174
     32 C          48.4000   19.8312  -26.9823 C.3     1  UNL1        0.0029
     33 C          47.7019   19.7090  -25.6188 C.3     1  UNL1        0.0174
     34 C          47.7193   18.2579  -25.1235 C.3     1  UNL1        0.0721
     35 C          52.3860   13.5714  -19.4951 C.3     1  UNL1        0.2032
     36 O          53.5467   12.7977  -19.6246 O.3     1  UNL1       -0.3748
     37 H          54.0207   13.1294  -20.4318 H       1  UNL1        0.2110
@<TRIPOS>BOND
     1    17    18    1
     2    18    19   ar
     3    19    20   ar
     4    20    21   ar
     5    21    11    1
     6    11    12   ar
     7    12     1    1
     8     1     2   ar
     9     2     3   ar
    10     3     4    1
    11     3     5   ar
    12     5     6   ar
    13     6     7   ar
    14     7    35    1
    15    35    36    1
    16     7     8   ar
    17     8     9   ar
    18     9    24    1
    19    24    25    1
    20    25    26    1
    21    26    27    1
    22    27    29    1
    23    29    30    1
    24    30    31    1
    25    31    32    1
    26    32    33    1
    27    33    34    1
    28    27    28    1
    29     9    10   ar
    30    12    13   ar
    31    13    14   ar
    32    14    15   ar
    33    15    16    1
    34    21    22   ar
    35    22    23   ar
    36    23    18   ar
    37    15    11   ar
    38    10     1   ar
    39    10     5   ar
    40    28    24    1
    41    34    29    1
    42    36    37    1
@<TRIPOS>MOLECULE
*****
 37 42 0 0 0
SMALL
GASTEIGER

@<TRIPOS>ATOM
      1 C          49.5327   11.5538  -22.7144 C.ar    1  UNL1        0.1095
      2 N          49.1856   10.5119  -21.9164 N.ar    1  UNL1       -0.1677
      3 N          47.8631   10.3956  -21.9414 N.ar    1  UNL1       -0.2319
      4 C          47.1186    9.3405  -21.2673 C.3     1  UNL1        0.1554
      5 C          47.3700   11.3331  -22.7648 C.ar    1  UNL1        0.1650
      6 N          46.0738   11.5165  -23.1124 N.ar    1  UNL1       -0.2095
      7 C          45.7757   12.5255  -23.9854 C.ar    1  UNL1        0.1717
      8 N          46.7669   13.3520  -24.4504 N.ar    1  UNL1       -0.2133
      9 C          48.0759   13.1738  -24.1006 C.ar    1  UNL1        0.1376
     10 C          48.3774   12.1038  -23.2562 C.ar    1  UNL1        0.0865
     11 C          51.6495   11.5608  -24.1582 C.ar    1  UNL1        0.0809
     12 C          50.9297   11.8936  -23.0241 C.ar    1  UNL1        0.0577
     13 C          51.7600   12.7345  -22.3066 C.ar    1  UNL1        0.1231
     14 N          52.9279   12.8748  -22.9634 N.ar    1  UNL1       -0.1676
     15 N          52.8612   12.1549  -24.0732 N.ar    1  UNL1       -0.2488
     16 C          53.9617   12.0626  -25.0270 C.3     1  UNL1        0.1537
     17 C          49.8172    8.0702  -28.4027 C.3     1  UNL1        0.0310
     18 C          50.3274    8.9638  -27.3115 C.ar    1  UNL1       -0.0218
     19 C          50.4011    8.4956  -25.9914 C.ar    1  UNL1       -0.0042
     20 C          50.8402    9.3398  -24.9677 C.ar    1  UNL1        0.0012
     21 C          51.2014   10.6671  -25.2484 C.ar    1  UNL1        0.0174
     22 C          51.1050   11.1411  -26.5656 C.ar    1  UNL1        0.0012
     23 C          50.6666   10.2963  -27.5895 C.ar    1  UNL1       -0.0042
     24 N          49.0614   14.1277  -24.5094 N.pl3   1  UNL1       -0.2917
     25 C          49.6594   15.0698  -23.5801 C.3     1  UNL1        0.0937
     26 C          50.2537   16.1751  -24.4444 C.3     1  UNL1        0.0391
     27 C          50.3143   15.6115  -25.8761 C.3     1  UNL1        0.0790
     28 C          49.2053   14.5496  -25.8885 C.3     1  UNL1        0.1081
     29 N          50.1170   16.6623  -26.9121 N.3     1  UNL1       -0.2723
     30 C          48.6919   16.7717  -27.3401 C.3     1  UNL1        0.0721
     31 C          47.9410   17.9089  -26.6333 C.3     1  UNL1        0.0174
     32 C          48.5837   19.2708  -26.9413 C.3     1  UNL1        0.0029
     33 C          50.0883   19.1556  -27.2319 C.3     1  UNL1        0.0174
     34 C          50.7003   17.9654  -26.4837 C.3     1  UNL1        0.0721
     35 C          44.3533   12.7819  -24.3689 C.3     1  UNL1        0.2032
     36 O          43.8902   11.7588  -25.2065 O.3     1  UNL1       -0.3748
     37 H          43.7132   10.9737  -24.6247 H       1  UNL1        0.2110
@<TRIPOS>BOND
     1    17    18    1
     2    18    19   ar
     3    19    20   ar
     4    20    21   ar
     5    21    11    1
     6    11    12   ar
     7    12     1    1
     8     1     2   ar
     9     2     3   ar
    10     3     4    1
    11     3     5   ar
    12     5     6   ar
    13     6     7   ar
    14     7    35    1
    15    35    36    1
    16     7     8   ar
    17     8     9   ar
    18     9    24    1
    19    24    25    1
    20    25    26    1
    21    26    27    1
    22    27    29    1
    23    29    30    1
    24    30    31    1
    25    31    32    1
    26    32    33    1
    27    33    34    1
    28    27    28    1
    29     9    10   ar
    30    12    13   ar
    31    13    14   ar
    32    14    15   ar
    33    15    16    1
    34    21    22   ar
    35    22    23   ar
    36    23    18   ar
    37    15    11   ar
    38    10     1   ar
    39    10     5   ar
    40    28    24    1
    41    34    29    1
    42    36    37    1
@<TRIPOS>MOLECULE
*****
 37 42 0 0 0
SMALL
GASTEIGER

@<TRIPOS>ATOM
      1 C          47.4917   11.5453  -23.0286 C.ar    1  UNL1        0.1095
      2 N          47.5692   10.2052  -22.8264 N.ar    1  UNL1       -0.1677
      3 N          47.9938    9.9990  -21.5852 N.ar    1  UNL1       -0.2319
      4 C          48.1297    8.6850  -20.9714 C.3     1  UNL1        0.1554
      5 C          48.1610   11.1899  -20.9905 C.ar    1  UNL1        0.1650
      6 N          48.5261   11.4188  -19.7063 N.ar    1  UNL1       -0.2095
      7 C          48.6256   12.7153  -19.2844 C.ar    1  UNL1        0.1717
      8 N          48.4058   13.7463  -20.1621 N.ar    1  UNL1       -0.2133
      9 C          48.0404   13.5215  -21.4596 C.ar    1  UNL1        0.1376
     10 C          47.8832   12.1947  -21.8643 C.ar    1  UNL1        0.0865
     11 C          47.5858   12.3677  -25.4536 C.ar    1  UNL1        0.0809
     12 C          46.9351   12.1387  -24.2540 C.ar    1  UNL1        0.0577
     13 C          45.6120   12.4565  -24.4975 C.ar    1  UNL1        0.1231
     14 N          45.4823   12.8814  -25.7694 N.ar    1  UNL1       -0.1676
     15 N          46.6777   12.8381  -26.3382 N.ar    1  UNL1       -0.2488
     16 C          46.9147   13.2435  -27.7198 C.3     1  UNL1        0.1537
     17 C          53.2570   11.6531  -26.3938 C.3     1  UNL1        0.0310
     18 C          51.7844   11.8478  -26.1868 C.ar    1  UNL1       -0.0218
     19 C          51.2923   13.0772  -25.7241 C.ar    1  UNL1       -0.0042
     20 C          49.9242   13.2472  -25.4945 C.ar    1  UNL1        0.0012
     21 C          49.0306   12.1868  -25.7143 C.ar    1  UNL1        0.0174
     22 C          49.5270   10.9506  -26.1549 C.ar    1  UNL1        0.0012
     23 C          50.8953   10.7809  -26.3853 C.ar    1  UNL1       -0.0042
     24 N          47.9382   14.6179  -22.3738 N.pl3   1  UNL1       -0.2917
     25 C          46.6846   14.9804  -23.0111 C.3     1  UNL1        0.0937
     26 C          47.0694   15.8291  -24.2167 C.3     1  UNL1        0.0391
     27 C          48.5333   16.2508  -23.9921 C.3     1  UNL1        0.0790
     28 C          49.0875   15.1448  -23.0825 C.3     1  UNL1        0.1081
     29 N          49.2915   16.3820  -25.2666 N.3     1  UNL1       -0.2723
     30 C          48.4418   16.9023  -26.3772 C.3     1  UNL1        0.0721
     31 C          48.6094   18.4118  -26.6013 C.3     1  UNL1        0.0174
     32 C          50.0594   18.7571  -26.9770 C.3     1  UNL1        0.0029
     33 C          51.0699   17.7613  -26.3868 C.3     1  UNL1        0.0174
     34 C          50.5465   17.1632  -25.0755 C.3     1  UNL1        0.0721
     35 C          49.0575   13.0110  -17.8836 C.3     1  UNL1        0.2032
     36 O          47.9364   13.1520  -17.0554 O.3     1  UNL1       -0.3748
     37 H          47.5957   12.2358  -16.8802 H       1  UNL1        0.2110
@<TRIPOS>BOND
     1    17    18    1
     2    18    19   ar
     3    19    20   ar
     4    20    21   ar
     5    21    11    1
     6    11    12   ar
     7    12     1    1
     8     1     2   ar
     9     2     3   ar
    10     3     4    1
    11     3     5   ar
    12     5     6   ar
    13     6     7   ar
    14     7    35    1
    15    35    36    1
    16     7     8   ar
    17     8     9   ar
    18     9    24    1
    19    24    25    1
    20    25    26    1
    21    26    27    1
    22    27    29    1
    23    29    30    1
    24    30    31    1
    25    31    32    1
    26    32    33    1
    27    33    34    1
    28    27    28    1
    29     9    10   ar
    30    12    13   ar
    31    13    14   ar
    32    14    15   ar
    33    15    16    1
    34    21    22   ar
    35    22    23   ar
    36    23    18   ar
    37    15    11   ar
    38    10     1   ar
    39    10     5   ar
    40    28    24    1
    41    34    29    1
    42    36    37    1
@<TRIPOS>MOLECULE
*****
 37 42 0 0 0
SMALL
GASTEIGER

@<TRIPOS>ATOM
      1 C          50.0805   14.0558  -24.9499 C.ar    1  UNL1        0.1095
      2 N          50.6308   14.8360  -25.9150 N.ar    1  UNL1       -0.1677
      3 N          49.9681   15.9864  -25.9433 N.ar    1  UNL1       -0.2319
      4 C          50.3153   17.1133  -26.7986 C.3     1  UNL1        0.1554
      5 C          49.0228   15.9552  -24.9918 C.ar    1  UNL1        0.1650
      6 N          48.1705   16.9519  -24.6526 N.ar    1  UNL1       -0.2095
      7 C          47.2852   16.7266  -23.6356 C.ar    1  UNL1        0.1717
      8 N          47.2402   15.5029  -23.0173 N.ar    1  UNL1       -0.2133
      9 C          48.0952   14.4926  -23.3574 C.ar    1  UNL1        0.1376
     10 C          49.0354   14.7528  -24.3561 C.ar    1  UNL1        0.0865
     11 C          50.4046   11.5202  -25.1263 C.ar    1  UNL1        0.0809
     12 C          50.6445   12.7567  -24.5532 C.ar    1  UNL1        0.0577
     13 C          51.6368   12.5315  -23.6174 C.ar    1  UNL1        0.1231
     14 N          51.9543   11.2222  -23.6105 N.ar    1  UNL1       -0.1676
     15 N          51.1995   10.6143  -24.5133 N.ar    1  UNL1       -0.2488
     16 C          51.2672    9.1791  -24.7682 C.3     1  UNL1        0.1537
     17 C          46.5426   10.4276  -29.3036 C.3     1  UNL1        0.0310
     18 C          47.5291   10.6808  -28.2025 C.ar    1  UNL1       -0.0218
     19 C          47.2263   11.5896  -27.1778 C.ar    1  UNL1       -0.0042
     20 C          48.1603   11.8548  -26.1724 C.ar    1  UNL1        0.0012
     21 C          49.4140   11.2229  -26.1838 C.ar    1  UNL1        0.0174
     22 C          49.7243   10.3317  -27.2223 C.ar    1  UNL1        0.0012
     23 C          48.7898   10.0660  -28.2273 C.ar    1  UNL1       -0.0042
     24 N          47.9371   13.1953  -22.7741 N.pl3   1  UNL1       -0.2917
     25 C          46.7166   12.4227  -22.9233 C.3     1  UNL1        0.0937
     26 C          46.7531   11.3819  -21.8110 C.3     1  UNL1        0.0391
     27 C          48.2066   11.3503  -21.3035 C.3     1  UNL1        0.0790
     28 C          48.7357   12.7495  -21.6497 C.3     1  UNL1        0.1081
     29 N          48.2970   11.0438  -19.8495 N.3     1  UNL1       -0.2723
     30 C          49.6389   10.5155  -19.4670 C.3     1  UNL1        0.0721
     31 C          50.5597   11.5930  -18.8770 C.3     1  UNL1        0.0174
     32 C          49.9578   12.1936  -17.5965 C.3     1  UNL1        0.0029
     33 C          48.4220   12.1429  -17.5920 C.3     1  UNL1        0.0174
     34 C          47.8684   12.2061  -19.0205 C.3     1  UNL1        0.0721
     35 C          46.3057   17.7895  -23.2523 C.3     1  UNL1        0.2032
     36 O          46.6599   18.3455  -22.0162 O.3     1  UNL1       -0.3748
     37 H          47.4275   18.9520  -22.1870 H       1  UNL1        0.2110
@<TRIPOS>BOND
     1    17    18    1
     2    18    19   ar
     3    19    20   ar
     4    20    21   ar
     5    21    11    1
     6    11    12   ar
     7    12     1    1
     8     1     2   ar
     9     2     3   ar
    10     3     4    1
    11     3     5   ar
    12     5     6   ar
    13     6     7   ar
    14     7    35    1
    15    35    36    1
    16     7     8   ar
    17     8     9   ar
    18     9    24    1
    19    24    25    1
    20    25    26    1
    21    26    27    1
    22    27    29    1
    23    29    30    1
    24    30    31    1
    25    31    32    1
    26    32    33    1
    27    33    34    1
    28    27    28    1
    29     9    10   ar
    30    12    13   ar
    31    13    14   ar
    32    14    15   ar
    33    15    16    1
    34    21    22   ar
    35    22    23   ar
    36    23    18   ar
    37    15    11   ar
    38    10     1   ar
    39    10     5   ar
    40    28    24    1
    41    34    29    1
    42    36    37    1
@<TRIPOS>MOLECULE
*****
 37 42 0 0 0
SMALL
GASTEIGER

@<TRIPOS>ATOM
      1 C          48.6267   11.1824  -24.2627 C.ar    1  UNL1        0.1095
      2 N          48.7730    9.8736  -23.9333 N.ar    1  UNL1       -0.1677
      3 N          50.0278    9.5217  -24.1886 N.ar    1  UNL1       -0.2319
      4 C          50.5893    8.2106  -23.8927 C.3     1  UNL1        0.1554
      5 C          50.6845   10.5966  -24.6503 C.ar    1  UNL1        0.1650
      6 N          51.9979   10.6769  -24.9718 N.ar    1  UNL1       -0.2095
      7 C          52.4829   11.8768  -25.4121 C.ar    1  UNL1        0.1717
      8 N          51.6403   12.9484  -25.5650 N.ar    1  UNL1       -0.2133
      9 C          50.3138   12.8724  -25.2454 C.ar    1  UNL1        0.1376
     10 C          49.8411   11.6600  -24.7400 C.ar    1  UNL1        0.0865
     11 C          46.4047   12.2930  -24.8914 C.ar    1  UNL1        0.0809
     12 C          47.3969   11.9427  -23.9926 C.ar    1  UNL1        0.0577
     13 C          46.9174   12.3377  -22.7576 C.ar    1  UNL1        0.1231
     14 N          45.7128   12.9206  -22.9126 N.ar    1  UNL1       -0.1676
     15 N          45.4135   12.9026  -24.2027 N.ar    1  UNL1       -0.2488
     16 C          44.1789   13.4658  -24.7393 C.3     1  UNL1        0.1537
     17 C          46.4691   11.4655  -30.6245 C.3     1  UNL1        0.0310
     18 C          46.4888   11.6906  -29.1418 C.ar    1  UNL1       -0.0218
     19 C          46.7671   10.6281  -28.2695 C.ar    1  UNL1       -0.0042
     20 C          46.7479   10.8282  -26.8864 C.ar    1  UNL1        0.0012
     21 C          46.4397   12.0913  -26.3564 C.ar    1  UNL1        0.0174
     22 C          46.1387   13.1475  -27.2296 C.ar    1  UNL1        0.0012
     23 C          46.1587   12.9473  -28.6130 C.ar    1  UNL1       -0.0042
     24 N          49.4451   13.9730  -25.5321 N.pl3   1  UNL1       -0.2917
     25 C          49.1973   14.4312  -26.8877 C.3     1  UNL1        0.0937
     26 C          48.6486   15.8458  -26.7472 C.3     1  UNL1        0.0391
     27 C          48.2297   15.9966  -25.2731 C.3     1  UNL1        0.0790
     28 C          49.1216   14.9821  -24.5432 C.3     1  UNL1        0.1081
     29 N          48.4062   17.3862  -24.7688 N.3     1  UNL1       -0.2723
     30 C          49.4529   18.1323  -25.5265 C.3     1  UNL1        0.0721
     31 C          48.8679   19.0417  -26.6162 C.3     1  UNL1        0.0174
     32 C          47.9416   20.1072  -26.0085 C.3     1  UNL1        0.0029
     33 C          47.2816   19.6336  -24.7041 C.3     1  UNL1        0.0174
     34 C          47.1052   18.1105  -24.7019 C.3     1  UNL1        0.0721
     35 C          53.9197   11.9986  -25.8082 C.3     1  UNL1        0.2032
     36 O          54.0483   11.8597  -27.1963 O.3     1  UNL1       -0.3748
     37 H          53.7451   12.7164  -27.5968 H       1  UNL1        0.2110
@<TRIPOS>BOND
     1    17    18    1
     2    18    19   ar
     3    19    20   ar
     4    20    21   ar
     5    21    11    1
     6    11    12   ar
     7    12     1    1
     8     1     2   ar
     9     2     3   ar
    10     3     4    1
    11     3     5   ar
    12     5     6   ar
    13     6     7   ar
    14     7    35    1
    15    35    36    1
    16     7     8   ar
    17     8     9   ar
    18     9    24    1
    19    24    25    1
    20    25    26    1
    21    26    27    1
    22    27    29    1
    23    29    30    1
    24    30    31    1
    25    31    32    1
    26    32    33    1
    27    33    34    1
    28    27    28    1
    29     9    10   ar
    30    12    13   ar
    31    13    14   ar
    32    14    15   ar
    33    15    16    1
    34    21    22   ar
    35    22    23   ar
    36    23    18   ar
    37    15    11   ar
    38    10     1   ar
    39    10     5   ar
    40    28    24    1
    41    34    29    1
    42    36    37    1
