@<TRIPOS>MOLECULE
*****
 48 53 0 0 0
SMALL
GASTEIGER

@<TRIPOS>ATOM
      1 O          59.5362   86.6529   11.9590 O.2     1  UNL1       -0.2701
      2 C          59.9974   86.1269   10.9091 C.2     1  UNL1        0.2483
      3 N          60.5747   84.8119   10.9680 N.am    1  UNL1       -0.2945
      4 H          60.7979   84.3164   10.0752 H       1  UNL1        0.1501
      5 C          59.9282   86.8707    9.6281 C.ar    1  UNL1        0.0808
      6 C          59.2278   86.3365    8.5319 C.ar    1  UNL1        0.0080
      7 C          59.1666   87.0304    7.3207 C.ar    1  UNL1        0.0148
      8 C          59.8053   88.2718    7.1793 C.ar    1  UNL1        0.0502
      9 C          60.5134   88.8034    8.2666 C.ar    1  UNL1        0.0443
     10 C          60.5791   88.1116    9.4800 C.ar    1  UNL1        0.1457
     11 F          61.2620   88.6679   10.5129 F       1  UNL1       -0.2040
     12 N          59.7472   88.9909    5.9329 N.pl3   1  UNL1       -0.3040
     13 C          58.4701   89.5420    5.4635 C.3     1  UNL1        0.1122
     14 C          58.6955   90.9011    4.8002 C.3     1  UNL1        0.1122
     15 N          59.7992   90.8123    3.8367 N.pl3   1  UNL1       -0.3040
     16 C          61.0762   90.2611    4.3060 C.3     1  UNL1        0.1122
     17 C          60.8510   88.9020    4.9694 C.3     1  UNL1        0.1122
     18 C          59.7409   91.5320    2.5906 C.ar    1  UNL1        0.0488
     19 C          60.5746   92.6407    2.3779 C.ar    1  UNL1        0.0154
     20 C          60.5253   93.3405    1.1698 C.ar    1  UNL1        0.0135
     21 C          59.6444   92.9422    0.1587 C.ar    1  UNL1        0.0683
     22 CL         59.6112   93.8479   -1.3481 Cl      1  UNL1       -0.0814
     23 C          58.8070   91.8323    0.3611 C.ar    1  UNL1        0.0694
     24 CL         57.6836   91.2996   -0.8826 Cl      1  UNL1       -0.0813
     25 C          58.8586   91.1324    1.5724 C.ar    1  UNL1        0.0268
     26 C          60.7317   84.0891   12.2331 C.3     1  UNL1        0.1535
     27 C          60.5165   82.6150   12.0057 C.2     1  UNL1        0.2444
     28 O          61.4493   81.9255   11.5111 O.2     1  UNL1       -0.2730
     29 N          59.2726   81.9980   12.3739 N.am    1  UNL1       -0.2807
     30 H          58.6609   82.4997   13.0564 H       1  UNL1        0.1550
     31 C          58.8477   80.7085   11.9000 C.ar    1  UNL1        0.0813
     32 C          58.2141   80.5609   10.6540 C.ar    1  UNL1        0.0376
     33 C          57.7884   79.2959   10.2423 C.ar    1  UNL1        0.1003
     34 N          57.9750   78.2172   11.0477 N.ar    1  UNL1       -0.2399
     35 C          58.5694   78.3316   12.2644 C.ar    1  UNL1        0.1297
     36 C          59.0088   79.5786   12.7167 C.ar    1  UNL1        0.1725
     37 F          59.6009   79.6817   13.9332 F       1  UNL1       -0.2012
     38 C          62.1249   84.3596   12.8326 C.3     1  UNL1        0.0569
     39 C          62.0395   85.1798   14.0881 C.ar    1  UNL1       -0.0017
     40 C          61.4089   84.8149   15.2741 C.ar    1  UNL1        0.0681
     41 N          61.4526   85.8325   16.1641 N.ar    1  UNL1       -0.3523
     42 C          62.0955   86.8389   15.5464 C.ar    1  UNL1        0.0563
     43 C          62.3660   88.1080   16.0563 C.ar    1  UNL1        0.0170
     44 C          63.0369   89.0220   15.2230 C.ar    1  UNL1        0.0015
     45 C          63.4144   88.6526   13.9127 C.ar    1  UNL1        0.0001
     46 C          63.1259   87.3653   13.4239 C.ar    1  UNL1        0.0012
     47 C          62.4650   86.4799   14.2753 C.ar    1  UNL1        0.0131
     48 H          61.0513   85.8370   17.1281 H       1  UNL1        0.1660
@<TRIPOS>BOND
     1     1     2    2
     2     2     3   am
     3     3    26    1
     4    26    38    1
     5    38    39    1
     6    39    40   ar
     7    40    41   ar
     8    41    42   ar
     9    42    43   ar
    10    43    44   ar
    11    44    45   ar
    12    45    46   ar
    13    46    47   ar
    14    26    27    1
    15    27    28    2
    16    27    29   am
    17    29    31    1
    18    31    32   ar
    19    32    33   ar
    20    33    34   ar
    21    34    35   ar
    22    35    36   ar
    23    36    37    1
    24     2     5    1
    25     5     6   ar
    26     6     7   ar
    27     7     8   ar
    28     8    12    1
    29    12    13    1
    30    13    14    1
    31    14    15    1
    32    15    18    1
    33    18    19   ar
    34    19    20   ar
    35    20    21   ar
    36    21    22    1
    37    21    23   ar
    38    23    24    1
    39    23    25   ar
    40    15    16    1
    41    16    17    1
    42     8     9   ar
    43     9    10   ar
    44    10    11    1
    45    47    39   ar
    46    36    31   ar
    47    10     5   ar
    48    47    42   ar
    49    17    12    1
    50    25    18   ar
    51     3     4    1
    52    41    48    1
    53    29    30    1
@<TRIPOS>MOLECULE
*****
 48 53 0 0 0
SMALL
GASTEIGER

@<TRIPOS>ATOM
      1 O          59.0733   86.3599   11.8246 O.2     1  UNL1       -0.2701
      2 C          59.8603   86.0341   10.8940 C.2     1  UNL1        0.2483
      3 N          60.7731   84.9404   11.0859 N.am    1  UNL1       -0.2945
      4 H          61.2980   84.5684   10.2622 H       1  UNL1        0.1501
      5 C          59.8248   86.7794    9.6125 C.ar    1  UNL1        0.0808
      6 C          60.4820   88.0166    9.4903 C.ar    1  UNL1        0.0080
      7 C          60.4447   88.7258    8.2870 C.ar    1  UNL1        0.0148
      8 C          59.7485   88.2141    7.1813 C.ar    1  UNL1        0.0502
      9 C          59.0833   86.9855    7.3019 C.ar    1  UNL1        0.0443
     10 C          59.1162   86.2733    8.5047 C.ar    1  UNL1        0.1457
     11 F          58.4720   85.0805    8.5754 F       1  UNL1       -0.2040
     12 N          59.7050   88.9412    5.9389 N.pl3   1  UNL1       -0.3040
     13 C          58.4375   89.5126    5.4681 C.3     1  UNL1        0.1122
     14 C          58.6843   90.8723    4.8136 C.3     1  UNL1        0.1122
     15 N          59.7902   90.7737    3.8536 N.pl3   1  UNL1       -0.3040
     16 C          61.0577   90.2021    4.3244 C.3     1  UNL1        0.1122
     17 C          60.8111   88.8425    4.9790 C.3     1  UNL1        0.1122
     18 C          59.7467   91.5013    2.6116 C.ar    1  UNL1        0.0488
     19 C          60.4961   92.6778    2.4578 C.ar    1  UNL1        0.0154
     20 C          60.4609   93.3858    1.2540 C.ar    1  UNL1        0.0135
     21 C          59.6782   92.9284    0.1885 C.ar    1  UNL1        0.0683
     22 CL         59.6596   93.8466   -1.3109 Cl      1  UNL1       -0.0814
     23 C          58.9257   91.7505    0.3318 C.ar    1  UNL1        0.0694
     24 CL         57.9270   91.1419   -0.9814 Cl      1  UNL1       -0.0813
     25 C          58.9632   91.0425    1.5389 C.ar    1  UNL1        0.0268
     26 C          60.8878   84.2411   12.3687 C.3     1  UNL1        0.1535
     27 C          60.6119   82.7727   12.1728 C.2     1  UNL1        0.2444
     28 O          61.5475   82.0147   11.7983 O.2     1  UNL1       -0.2730
     29 N          59.3047   82.2384   12.4365 N.am    1  UNL1       -0.2807
     30 H          58.6589   82.7995   13.0365 H       1  UNL1        0.1550
     31 C          58.8550   80.9554   11.9682 C.ar    1  UNL1        0.0813
     32 C          59.0327   79.7934   12.7388 C.ar    1  UNL1        0.0376
     33 C          58.6096   78.5609   12.2360 C.ar    1  UNL1        0.1003
     34 N          58.0412   78.4850   11.0040 N.ar    1  UNL1       -0.2399
     35 C          57.8713   79.5886   10.2292 C.ar    1  UNL1        0.1297
     36 C          58.2818   80.8414   10.6922 C.ar    1  UNL1        0.1725
     37 F          58.1076   81.9368    9.9105 F       1  UNL1       -0.2012
     38 C          62.2859   84.4660   12.9755 C.3     1  UNL1        0.0569
     39 C          62.2254   85.3247   14.2065 C.ar    1  UNL1       -0.0017
     40 C          61.5756   85.0182   15.3986 C.ar    1  UNL1        0.0681
     41 N          61.6533   86.0586   16.2594 N.ar    1  UNL1       -0.3523
     42 C          62.3369   87.0219   15.6170 C.ar    1  UNL1        0.0563
     43 C          62.6528   88.2940   16.0920 C.ar    1  UNL1        0.0170
     44 C          63.3619   89.1578   15.2370 C.ar    1  UNL1        0.0015
     45 C          63.7316   88.7367   13.9401 C.ar    1  UNL1        0.0001
     46 C          63.3970   87.4477   13.4865 C.ar    1  UNL1        0.0012
     47 C          62.6988   86.6127   14.3590 C.ar    1  UNL1        0.0131
     48 H          61.2478   86.1061   17.2204 H       1  UNL1        0.1660
@<TRIPOS>BOND
     1     1     2    2
     2     2     3   am
     3     3    26    1
     4    26    38    1
     5    38    39    1
     6    39    40   ar
     7    40    41   ar
     8    41    42   ar
     9    42    43   ar
    10    43    44   ar
    11    44    45   ar
    12    45    46   ar
    13    46    47   ar
    14    26    27    1
    15    27    28    2
    16    27    29   am
    17    29    31    1
    18    31    32   ar
    19    32    33   ar
    20    33    34   ar
    21    34    35   ar
    22    35    36   ar
    23    36    37    1
    24     2     5    1
    25     5     6   ar
    26     6     7   ar
    27     7     8   ar
    28     8    12    1
    29    12    13    1
    30    13    14    1
    31    14    15    1
    32    15    18    1
    33    18    19   ar
    34    19    20   ar
    35    20    21   ar
    36    21    22    1
    37    21    23   ar
    38    23    24    1
    39    23    25   ar
    40    15    16    1
    41    16    17    1
    42     8     9   ar
    43     9    10   ar
    44    10    11    1
    45    47    39   ar
    46    36    31   ar
    47    10     5   ar
    48    47    42   ar
    49    17    12    1
    50    25    18   ar
    51     3     4    1
    52    41    48    1
    53    29    30    1
@<TRIPOS>MOLECULE
*****
 48 53 0 0 0
SMALL
GASTEIGER

@<TRIPOS>ATOM
      1 O          59.0483   86.2395   11.8338 O.2     1  UNL1       -0.2701
      2 C          59.7053   85.8074   10.8473 C.2     1  UNL1        0.2483
      3 N          60.4295   84.5712   10.9627 N.am    1  UNL1       -0.2945
      4 H          60.8280   84.1353   10.1004 H       1  UNL1        0.1501
      5 C          59.7126   86.5778    9.5803 C.ar    1  UNL1        0.0808
      6 C          60.4239   87.7874    9.4869 C.ar    1  UNL1        0.0080
      7 C          60.4272   88.5203    8.2973 C.ar    1  UNL1        0.0148
      8 C          59.7185   88.0606    7.1769 C.ar    1  UNL1        0.0502
      9 C          58.9996   86.8601    7.2687 C.ar    1  UNL1        0.0443
     10 C          58.9918   86.1243    8.4578 C.ar    1  UNL1        0.1457
     11 F          58.2958   84.9596    8.5005 F       1  UNL1       -0.2040
     12 N          59.7168   88.8124    5.9485 N.pl3   1  UNL1       -0.3040
     13 C          58.4633   89.3825    5.4399 C.3     1  UNL1        0.1122
     14 C          58.7227   90.7573    4.8229 C.3     1  UNL1        0.1122
     15 N          59.8661   90.6877    3.9052 N.pl3   1  UNL1       -0.3040
     16 C          61.1196   90.1174    4.4138 C.3     1  UNL1        0.1122
     17 C          60.8603   88.7427    5.0309 C.3     1  UNL1        0.1122
     18 C          59.8643   91.4401    2.6772 C.ar    1  UNL1        0.0488
     19 C          60.8828   92.3705    2.4197 C.ar    1  UNL1        0.0154
     20 C          60.8884   93.1005    1.2286 C.ar    1  UNL1        0.0135
     21 C          59.8785   92.9105    0.2794 C.ar    1  UNL1        0.0683
     22 CL         59.9197   93.8478   -1.2078 Cl      1  UNL1       -0.0814
     23 C          58.8554   91.9800    0.5269 C.ar    1  UNL1        0.0694
     24 CL         57.5659   91.7121   -0.6383 Cl      1  UNL1       -0.0813
     25 C          58.8523   91.2492    1.7210 C.ar    1  UNL1        0.0268
     26 C          60.5079   83.8327   12.2261 C.3     1  UNL1        0.1535
     27 C          61.0291   84.7384   13.3120 C.2     1  UNL1        0.2444
     28 O          60.4049   84.8116   14.4052 O.2     1  UNL1       -0.2730
     29 N          62.2381   85.4882   13.1133 N.am    1  UNL1       -0.2807
     30 H          62.8899   85.1745   12.3593 H       1  UNL1        0.1550
     31 C          62.6273   86.6093   13.9254 C.ar    1  UNL1        0.0813
     32 C          62.5455   86.5586   15.3277 C.ar    1  UNL1        0.0376
     33 C          62.9039   87.6792   16.0805 C.ar    1  UNL1        0.1003
     34 N          63.3171   88.8151   15.4594 N.ar    1  UNL1       -0.2399
     35 C          63.3907   88.8994   14.1050 C.ar    1  UNL1        0.1297
     36 C          63.0398   87.8028   13.3132 C.ar    1  UNL1        0.1725
     37 F          63.1167   87.8978   11.9618 F       1  UNL1       -0.2012
     38 C          59.1259   83.2617   12.5968 C.3     1  UNL1        0.0569
     39 C          58.6793   82.2108   11.6208 C.ar    1  UNL1       -0.0017
     40 C          58.1032   82.4311   10.3730 C.ar    1  UNL1        0.0681
     41 N          57.7454   81.2571    9.8046 N.ar    1  UNL1       -0.3523
     42 C          58.0810   80.2997   10.6870 C.ar    1  UNL1        0.0563
     43 C          57.8882   78.9251   10.5565 C.ar    1  UNL1        0.0170
     44 C          58.2975   78.0999   11.6202 C.ar    1  UNL1        0.0015
     45 C          58.8801   78.6611   12.7785 C.ar    1  UNL1        0.0001
     46 C          59.0601   80.0524   12.8835 C.ar    1  UNL1        0.0012
     47 C          58.6494   80.8436   11.8105 C.ar    1  UNL1        0.0131
     48 H          57.2858   81.1268    8.8761 H       1  UNL1        0.1660
@<TRIPOS>BOND
     1     1     2    2
     2     2     3   am
     3     3    26    1
     4    26    38    1
     5    38    39    1
     6    39    40   ar
     7    40    41   ar
     8    41    42   ar
     9    42    43   ar
    10    43    44   ar
    11    44    45   ar
    12    45    46   ar
    13    46    47   ar
    14    26    27    1
    15    27    28    2
    16    27    29   am
    17    29    31    1
    18    31    32   ar
    19    32    33   ar
    20    33    34   ar
    21    34    35   ar
    22    35    36   ar
    23    36    37    1
    24     2     5    1
    25     5     6   ar
    26     6     7   ar
    27     7     8   ar
    28     8    12    1
    29    12    13    1
    30    13    14    1
    31    14    15    1
    32    15    18    1
    33    18    19   ar
    34    19    20   ar
    35    20    21   ar
    36    21    22    1
    37    21    23   ar
    38    23    24    1
    39    23    25   ar
    40    15    16    1
    41    16    17    1
    42     8     9   ar
    43     9    10   ar
    44    10    11    1
    45    47    39   ar
    46    36    31   ar
    47    10     5   ar
    48    47    42   ar
    49    17    12    1
    50    25    18   ar
    51     3     4    1
    52    41    48    1
    53    29    30    1
@<TRIPOS>MOLECULE
*****
 48 53 0 0 0
SMALL
GASTEIGER

@<TRIPOS>ATOM
      1 O          59.3622   86.9327   11.7795 O.2     1  UNL1       -0.2701
      2 C          59.6227   86.2959   10.7221 C.2     1  UNL1        0.2483
      3 N          59.8486   84.8777   10.7843 N.am    1  UNL1       -0.2945
      4 H          59.8946   84.3327    9.8938 H       1  UNL1        0.1501
      5 C          59.6829   87.0197    9.4293 C.ar    1  UNL1        0.0808
      6 C          60.4058   88.2209    9.3190 C.ar    1  UNL1        0.0080
      7 C          60.4588   88.9100    8.1048 C.ar    1  UNL1        0.0148
      8 C          59.7891   88.4141    6.9758 C.ar    1  UNL1        0.0502
      9 C          59.0587   87.2220    7.0839 C.ar    1  UNL1        0.0443
     10 C          59.0012   86.5299    8.2976 C.ar    1  UNL1        0.1457
     11 F          58.2957   85.3716    8.3562 F       1  UNL1       -0.2040
     12 N          59.8386   89.1208    5.7219 N.pl3   1  UNL1       -0.3040
     13 C          58.6567   89.8480    5.2433 C.3     1  UNL1        0.1122
     14 C          59.0797   91.1523    4.5667 C.3     1  UNL1        0.1122
     15 N          60.1597   90.8926    3.6073 N.pl3   1  UNL1       -0.3040
     16 C          61.3416   90.1651    4.0859 C.3     1  UNL1        0.1122
     17 C          60.9187   88.8609    4.7626 C.3     1  UNL1        0.1122
     18 C          60.2092   91.5998    2.3538 C.ar    1  UNL1        0.0488
     19 C          59.0936   91.6031    1.5024 C.ar    1  UNL1        0.0154
     20 C          59.1343   92.2905    0.2869 C.ar    1  UNL1        0.0135
     21 C          60.2882   92.9838   -0.0938 C.ar    1  UNL1        0.0683
     22 CL         60.3014   93.8372   -1.6311 Cl      1  UNL1       -0.0814
     23 C          61.4098   92.9882    0.7524 C.ar    1  UNL1        0.0694
     24 CL         62.8808   93.8449    0.3112 Cl      1  UNL1       -0.0813
     25 C          61.3663   92.2991    1.9702 C.ar    1  UNL1        0.0268
     26 C          59.8778   84.1516   12.0570 C.3     1  UNL1        0.1535
     27 C          59.1589   82.8357   11.9072 C.2     1  UNL1        0.2444
     28 O          57.9044   82.8015   12.0307 O.2     1  UNL1       -0.2730
     29 N          59.8921   81.6392   11.5998 N.am    1  UNL1       -0.2807
     30 H          60.8489   81.7428   11.1929 H       1  UNL1        0.1550
     31 C          59.3653   80.3120   11.7689 C.ar    1  UNL1        0.0813
     32 C          58.5661   79.7120   10.7804 C.ar    1  UNL1        0.0376
     33 C          58.0478   78.4329   10.9950 C.ar    1  UNL1        0.1003
     34 N          58.3049   77.7784   12.1580 N.ar    1  UNL1       -0.2399
     35 C          59.0603   78.3394   13.1385 C.ar    1  UNL1        0.1297
     36 C          59.5971   79.6180   12.9665 C.ar    1  UNL1        0.1725
     37 F          60.3498   80.1689   13.9520 F       1  UNL1       -0.2012
     38 C          61.3328   83.9389   12.5164 C.3     1  UNL1        0.0569
     39 C          61.6278   84.6816   13.7883 C.ar    1  UNL1       -0.0017
     40 C          61.3223   84.2644   15.0805 C.ar    1  UNL1        0.0681
     41 N          61.6527   85.2224   15.9763 N.ar    1  UNL1       -0.3523
     42 C          62.1540   86.2438   15.2597 C.ar    1  UNL1        0.0563
     43 C          62.6127   87.4690   15.7414 C.ar    1  UNL1        0.0170
     44 C          63.0785   88.4108   14.8054 C.ar    1  UNL1        0.0015
     45 C          63.0716   88.1115   13.4247 C.ar    1  UNL1        0.0001
     46 C          62.6004   86.8674   12.9671 C.ar    1  UNL1        0.0012
     47 C          62.1504   85.9528   13.9194 C.ar    1  UNL1        0.0131
     48 H          61.5260   85.1801   17.0118 H       1  UNL1        0.1660
@<TRIPOS>BOND
     1     1     2    2
     2     2     3   am
     3     3    26    1
     4    26    38    1
     5    38    39    1
     6    39    40   ar
     7    40    41   ar
     8    41    42   ar
     9    42    43   ar
    10    43    44   ar
    11    44    45   ar
    12    45    46   ar
    13    46    47   ar
    14    26    27    1
    15    27    28    2
    16    27    29   am
    17    29    31    1
    18    31    32   ar
    19    32    33   ar
    20    33    34   ar
    21    34    35   ar
    22    35    36   ar
    23    36    37    1
    24     2     5    1
    25     5     6   ar
    26     6     7   ar
    27     7     8   ar
    28     8    12    1
    29    12    13    1
    30    13    14    1
    31    14    15    1
    32    15    18    1
    33    18    19   ar
    34    19    20   ar
    35    20    21   ar
    36    21    22    1
    37    21    23   ar
    38    23    24    1
    39    23    25   ar
    40    15    16    1
    41    16    17    1
    42     8     9   ar
    43     9    10   ar
    44    10    11    1
    45    47    39   ar
    46    36    31   ar
    47    10     5   ar
    48    47    42   ar
    49    17    12    1
    50    25    18   ar
    51     3     4    1
    52    41    48    1
    53    29    30    1
@<TRIPOS>MOLECULE
*****
 48 53 0 0 0
SMALL
GASTEIGER

@<TRIPOS>ATOM
      1 O          59.2796   86.5379   11.7711 O.2     1  UNL1       -0.2701
      2 C          59.9384   86.1195   10.7800 C.2     1  UNL1        0.2483
      3 N          60.7251   84.9228   10.9039 N.am    1  UNL1       -0.2945
      4 H          61.1283   84.4904   10.0422 H       1  UNL1        0.1501
      5 C          59.8836   86.8644    9.4990 C.ar    1  UNL1        0.0808
      6 C          59.2065   86.3254    8.3906 C.ar    1  UNL1        0.0080
      7 C          59.1589   87.0205    7.1795 C.ar    1  UNL1        0.0148
      8 C          59.7883   88.2680    7.0503 C.ar    1  UNL1        0.0502
      9 C          60.4732   88.8045    8.1500 C.ar    1  UNL1        0.0443
     10 C          60.5252   88.1116    9.3634 C.ar    1  UNL1        0.1457
     11 F          61.1855   88.6727   10.4083 F       1  UNL1       -0.2040
     12 N          59.7441   88.9884    5.8041 N.pl3   1  UNL1       -0.3040
     13 C          58.4818   89.5792    5.3434 C.3     1  UNL1        0.1122
     14 C          58.7451   90.9305    4.6781 C.3     1  UNL1        0.1122
     15 N          59.8387   90.8070    3.7069 N.pl3   1  UNL1       -0.3040
     16 C          61.1011   90.2159    4.1676 C.3     1  UNL1        0.1122
     17 C          60.8378   88.8647    4.8330 C.3     1  UNL1        0.1122
     18 C          59.7945   91.5279    2.4611 C.ar    1  UNL1        0.0488
     19 C          60.6862   92.5861    2.2276 C.ar    1  UNL1        0.0154
     20 C          60.6506   93.2867    1.0194 C.ar    1  UNL1        0.0135
     21 C          59.7256   92.9396    0.0291 C.ar    1  UNL1        0.0683
     22 CL         59.7113   93.8446   -1.4784 Cl      1  UNL1       -0.0814
     23 C          58.8298   91.8804    0.2523 C.ar    1  UNL1        0.0694
     24 CL         57.6498   91.4130   -0.9649 Cl      1  UNL1       -0.0813
     25 C          58.8679   91.1795    1.4636 C.ar    1  UNL1        0.0268
     26 C          60.8639   84.2139   12.1791 C.3     1  UNL1        0.1535
     27 C          61.1850   85.1977   13.2745 C.2     1  UNL1        0.2444
     28 O          60.3111   85.4557   14.1462 O.2     1  UNL1       -0.2730
     29 N          62.4813   85.8131   13.3401 N.am    1  UNL1       -0.2807
     30 H          63.2664   85.3562   12.8236 H       1  UNL1        0.1550
     31 C          62.7713   86.9878   14.1171 C.ar    1  UNL1        0.0813
     32 C          63.1569   88.1923   13.5036 C.ar    1  UNL1        0.0376
     33 C          63.4599   89.3029   14.2945 C.ar    1  UNL1        0.1003
     34 N          63.3940   89.2149   15.6490 N.ar    1  UNL1       -0.2399
     35 C          63.0402   88.0595   16.2709 C.ar    1  UNL1        0.1297
     36 C          62.7308   86.9234   15.5184 C.ar    1  UNL1        0.1725
     37 F          62.3790   85.7749   16.1494 F       1  UNL1       -0.2012
     38 C          59.5755   83.4314   12.4972 C.3     1  UNL1        0.0569
     39 C          58.7807   83.1421   11.2559 C.ar    1  UNL1       -0.0017
     40 C          57.5234   83.6493   10.9408 C.ar    1  UNL1        0.0681
     41 N          57.0712   83.1069    9.7873 N.ar    1  UNL1       -0.3523
     42 C          58.0272   82.2547    9.3778 C.ar    1  UNL1        0.0563
     43 C          58.0066   81.4429    8.2446 C.ar    1  UNL1        0.0170
     44 C          59.1127   80.6034    8.0169 C.ar    1  UNL1        0.0015
     45 C          60.2002   80.5917    8.9188 C.ar    1  UNL1        0.0001
     46 C          60.1924   81.4201   10.0559 C.ar    1  UNL1        0.0012
     47 C          59.0845   82.2450   10.2513 C.ar    1  UNL1        0.0131
     48 H          56.1567   83.3005    9.3221 H       1  UNL1        0.1660
@<TRIPOS>BOND
     1     1     2    2
     2     2     3   am
     3     3    26    1
     4    26    38    1
     5    38    39    1
     6    39    40   ar
     7    40    41   ar
     8    41    42   ar
     9    42    43   ar
    10    43    44   ar
    11    44    45   ar
    12    45    46   ar
    13    46    47   ar
    14    26    27    1
    15    27    28    2
    16    27    29   am
    17    29    31    1
    18    31    32   ar
    19    32    33   ar
    20    33    34   ar
    21    34    35   ar
    22    35    36   ar
    23    36    37    1
    24     2     5    1
    25     5     6   ar
    26     6     7   ar
    27     7     8   ar
    28     8    12    1
    29    12    13    1
    30    13    14    1
    31    14    15    1
    32    15    18    1
    33    18    19   ar
    34    19    20   ar
    35    20    21   ar
    36    21    22    1
    37    21    23   ar
    38    23    24    1
    39    23    25   ar
    40    15    16    1
    41    16    17    1
    42     8     9   ar
    43     9    10   ar
    44    10    11    1
    45    47    39   ar
    46    36    31   ar
    47    10     5   ar
    48    47    42   ar
    49    17    12    1
    50    25    18   ar
    51     3     4    1
    52    41    48    1
    53    29    30    1
@<TRIPOS>MOLECULE
*****
 48 53 0 0 0
SMALL
GASTEIGER

@<TRIPOS>ATOM
      1 O          61.2747   85.1643   10.7244 O.2     1  UNL1       -0.2701
      2 C          60.8270   86.3436   10.7444 C.2     1  UNL1        0.2483
      3 N          60.5446   86.9749   12.0045 N.am    1  UNL1       -0.2945
      4 H          60.3383   87.9992   12.0227 H       1  UNL1        0.1501
      5 C          60.6075   87.0636    9.4668 C.ar    1  UNL1        0.0808
      6 C          59.7419   86.5361    8.4920 C.ar    1  UNL1        0.0080
      7 C          59.5382   87.2074    7.2838 C.ar    1  UNL1        0.0148
      8 C          60.1965   88.4191    7.0237 C.ar    1  UNL1        0.0502
      9 C          61.0684   88.9435    7.9887 C.ar    1  UNL1        0.0443
     10 C          61.2769   88.2741    9.1985 C.ar    1  UNL1        0.1457
     11 F          62.1171   88.8232   10.1124 F       1  UNL1       -0.2040
     12 N          59.9919   89.1148    5.7795 N.pl3   1  UNL1       -0.3040
     13 C          58.6750   89.6820    5.4648 C.3     1  UNL1        0.1122
     14 C          58.8372   91.0232    4.7486 C.3     1  UNL1        0.1122
     15 N          59.8069   90.8936    3.6544 N.pl3   1  UNL1       -0.3040
     16 C          61.1237   90.3262    3.9690 C.3     1  UNL1        0.1122
     17 C          60.9617   88.9851    4.6852 C.3     1  UNL1        0.1122
     18 C          59.6022   91.5899    2.4105 C.ar    1  UNL1        0.0488
     19 C          60.2087   92.8366    2.1931 C.ar    1  UNL1        0.0154
     20 C          60.0169   93.5150    0.9870 C.ar    1  UNL1        0.0135
     21 C          59.2185   92.9575   -0.0173 C.ar    1  UNL1        0.0683
     22 CL         59.0009   93.8414   -1.5218 Cl      1  UNL1       -0.0814
     23 C          58.6085   91.7089    0.1897 C.ar    1  UNL1        0.0694
     24 CL         57.5954   90.9737   -1.0454 Cl      1  UNL1       -0.0813
     25 C          58.8026   91.0308    1.3990 C.ar    1  UNL1        0.0268
     26 C          60.6727   86.2593   13.2770 C.3     1  UNL1        0.1535
     27 C          61.3875   87.1291   14.2787 C.2     1  UNL1        0.2444
     28 O          60.8695   87.3152   15.4133 O.2     1  UNL1       -0.2730
     29 N          62.6575   87.7164   13.9541 N.am    1  UNL1       -0.2807
     30 H          63.2020   87.2996   13.1656 H       1  UNL1        0.1550
     31 C          63.2451   88.8071   14.6841 C.ar    1  UNL1        0.0813
     32 C          62.6819   89.2684   15.8866 C.ar    1  UNL1        0.0376
     33 C          63.2644   90.3503   16.5506 C.ar    1  UNL1        0.1003
     34 N          64.3615   90.9604   16.0301 N.ar    1  UNL1       -0.2399
     35 C          64.9184   90.5473   14.8613 C.ar    1  UNL1        0.1297
     36 C          64.3668   89.4700   14.1629 C.ar    1  UNL1        0.1725
     37 F          64.9306   89.0658   12.9967 F       1  UNL1       -0.2012
     38 C          59.2835   85.8426   13.7966 C.3     1  UNL1        0.0569
     39 C          58.6451   84.8119   12.9097 C.ar    1  UNL1       -0.0017
     40 C          57.4510   84.9488   12.2079 C.ar    1  UNL1        0.0681
     41 N          57.1349   83.7912   11.5840 N.ar    1  UNL1       -0.3523
     42 C          58.1132   82.9227   11.8946 C.ar    1  UNL1        0.0563
     43 C          58.2158   81.5892   11.5010 C.ar    1  UNL1        0.0170
     44 C          59.3204   80.8503   11.9634 C.ar    1  UNL1        0.0015
     45 C          60.2843   81.4529   12.8023 C.ar    1  UNL1        0.0001
     46 C          60.1536   82.8003   13.1854 C.ar    1  UNL1        0.0012
     47 C          59.0510   83.5080   12.7065 C.ar    1  UNL1        0.0131
     48 H          56.2917   83.6083   10.9959 H       1  UNL1        0.1660
@<TRIPOS>BOND
     1     1     2    2
     2     2     3   am
     3     3    26    1
     4    26    38    1
     5    38    39    1
     6    39    40   ar
     7    40    41   ar
     8    41    42   ar
     9    42    43   ar
    10    43    44   ar
    11    44    45   ar
    12    45    46   ar
    13    46    47   ar
    14    26    27    1
    15    27    28    2
    16    27    29   am
    17    29    31    1
    18    31    32   ar
    19    32    33   ar
    20    33    34   ar
    21    34    35   ar
    22    35    36   ar
    23    36    37    1
    24     2     5    1
    25     5     6   ar
    26     6     7   ar
    27     7     8   ar
    28     8    12    1
    29    12    13    1
    30    13    14    1
    31    14    15    1
    32    15    18    1
    33    18    19   ar
    34    19    20   ar
    35    20    21   ar
    36    21    22    1
    37    21    23   ar
    38    23    24    1
    39    23    25   ar
    40    15    16    1
    41    16    17    1
    42     8     9   ar
    43     9    10   ar
    44    10    11    1
    45    47    39   ar
    46    36    31   ar
    47    10     5   ar
    48    47    42   ar
    49    17    12    1
    50    25    18   ar
    51     3     4    1
    52    41    48    1
    53    29    30    1
