@<TRIPOS>MOLECULE
*****
 59 63 0 0 0
SMALL
GASTEIGER

@<TRIPOS>ATOM
      1 C         -19.6210   -9.5961  -10.1810 C.ar    1  UNL1        0.0993
      2 C         -18.3584   -9.9832   -9.7146 C.ar    1  UNL1        0.0235
      3 C         -17.9883  -11.3396   -9.6777 C.ar    1  UNL1        0.0548
      4 C         -18.9088  -12.3023  -10.1293 C.ar    1  UNL1        0.0077
      5 C         -20.1661  -11.9185  -10.6014 C.ar    1  UNL1        0.0390
      6 C         -20.5306  -10.5702  -10.6402 C.ar    1  UNL1        0.1598
      7 C         -16.6879  -11.7663   -9.0988 C.2     1  UNL1        0.2458
      8 O         -16.4413  -11.5115   -7.8889 O.2     1  UNL1       -0.2701
      9 N         -15.7082  -12.4579   -9.8975 N.am    1  UNL1       -0.3040
     10 H         -16.0533  -13.0000  -10.7214 H       1  UNL1        0.1496
     11 C         -14.2544  -12.4282   -9.6435 C.3     1  UNL1        0.0572
     12 C         -13.6768  -11.0430   -9.9967 C.3     1  UNL1        0.0196
     13 C         -13.9679  -12.7648   -8.1681 C.3     1  UNL1        0.0196
     14 C         -13.5674  -13.4840  -10.5337 C.3     1  UNL1        0.0196
     15 N         -20.0059   -8.2257  -10.0745 N.pl3   1  UNL1       -0.2120
     16 H         -19.3101   -7.4954  -10.3440 H       1  UNL1        0.1738
     17 S         -21.2347   -7.7733   -8.9454 S.O2    1  UNL1        0.0745
     18 O         -20.8142   -6.5447   -8.1893 O.2     1  UNL1       -0.1499
     19 O         -21.4216   -8.8874   -7.9541 O.2     1  UNL1       -0.1499
     20 C         -25.1498   -7.2829  -11.3023 C.ar    1  UNL1       -0.0216
     21 C         -25.0513   -8.1713  -10.2130 C.ar    1  UNL1       -0.0028
     22 C         -23.8615   -8.2789   -9.4913 C.ar    1  UNL1        0.0207
     23 C         -22.7441   -7.5046   -9.8298 C.ar    1  UNL1        0.1356
     24 C         -22.8322   -6.6143  -10.9213 C.ar    1  UNL1        0.0762
     25 CL        -21.4713   -5.6335  -11.4553 Cl      1  UNL1       -0.0809
     26 C         -24.0287   -6.5097  -11.6404 C.ar    1  UNL1        0.0085
     27 C         -27.2986   -5.9300  -14.2598 C.3     1  UNL1        0.0003
     28 C         -26.2018   -6.7856  -13.6263 C.3     1  UNL1        0.0044
     29 C         -26.6514   -8.1873  -13.2177 C.3     1  UNL1        0.0047
     30 C         -26.4006   -7.1243  -12.1509 C.3     1  UNL1        0.0224
     31 O         -21.8165  -10.2384  -11.0912 O.3     1  UNL1       -0.4513
     32 C         -22.1239   -9.7626  -12.3749 C.ar    1  UNL1        0.1580
     33 C         -21.1958   -9.0178  -13.1232 C.ar    1  UNL1        0.0677
     34 C         -21.5244   -8.5534  -14.3995 C.ar    1  UNL1        0.1398
     35 F         -20.6069   -7.8406  -15.1011 F       1  UNL1       -0.2044
     36 C         -22.7884   -8.8312  -14.9489 C.ar    1  UNL1        0.0175
     37 C         -23.7012   -9.6045  -14.2145 C.ar    1  UNL1        0.0130
     38 C         -23.3715  -10.0683  -12.9366 C.ar    1  UNL1        0.0919
     39 CL        -24.5416  -11.0234  -12.0394 Cl      1  UNL1       -0.0791
     40 C         -23.1424   -8.3686  -16.3364 C.3     1  UNL1        0.1382
     41 C         -23.4759   -9.5441  -17.1965 C.2     1  UNL1        0.3234
     42 O         -23.4654   -9.4247  -18.4519 O.2     1  UNL1       -0.2497
     43 O         -23.8530  -10.7481  -16.5910 O.3     1  UNL1       -0.4215
     44 C         -23.2162  -12.0021  -16.8362 C.3     1  UNL1        0.3207
     45 O         -24.2159  -12.9933  -17.0779 O.3     1  UNL1       -0.3070
     46 C         -24.4938  -13.8754  -15.9942 C.3     1  UNL1        0.2456
     47 C         -23.2304  -14.6337  -15.4773 C.3     1  UNL1        0.1781
     48 O         -23.1309  -15.9044  -16.0728 O.3     1  UNL1       -0.3790
     49 C         -21.9260  -13.8410  -15.7067 C.3     1  UNL1        0.1733
     50 O         -20.9548  -14.1811  -14.7472 O.3     1  UNL1       -0.3793
     51 C         -22.2182  -12.3362  -15.6970 C.3     1  UNL1        0.2106
     52 O         -21.0315  -11.5913  -15.8231 O.3     1  UNL1       -0.3766
     53 H         -23.1080  -15.7734  -17.0572 H       1  UNL1        0.2106
     54 H         -21.2770  -13.8635  -13.8630 H       1  UNL1        0.2105
     55 H         -20.5878  -11.8657  -16.6681 H       1  UNL1        0.2107
     56 C         -25.2866  -13.2175  -14.8822 C.2     1  UNL1        0.3439
     57 O         -25.3745  -13.7468  -13.7441 O.2     1  UNL1       -0.2475
     58 O         -25.8949  -11.9829  -15.0950 O.3     1  UNL1       -0.4785
     59 H         -25.8102  -11.4993  -15.9810 H       1  UNL1        0.2951
@<TRIPOS>BOND
     1    27    28    1
     2    28    29    1
     3    29    30    1
     4    30    20    1
     5    20    21   ar
     6    21    22   ar
     7    22    23   ar
     8    23    17    1
     9    17    18    2
    10    17    19    2
    11    17    15    1
    12    15     1    1
    13     1     2   ar
    14     2     3   ar
    15     3     7    1
    16     7     8    2
    17     7     9   am
    18     9    11    1
    19    11    12    1
    20    11    13    1
    21    11    14    1
    22     3     4   ar
    23     4     5   ar
    24     5     6   ar
    25     6    31    1
    26    31    32    1
    27    32    33   ar
    28    33    34   ar
    29    34    35    1
    30    34    36   ar
    31    36    40    1
    32    40    41    1
    33    41    42    2
    34    41    43    1
    35    43    44    1
    36    44    45    1
    37    45    46    1
    38    46    56    1
    39    56    57    2
    40    56    58    1
    41    46    47    1
    42    47    48    1
    43    47    49    1
    44    49    50    1
    45    49    51    1
    46    51    52    1
    47    36    37   ar
    48    37    38   ar
    49    38    39    1
    50    23    24   ar
    51    24    25    1
    52    24    26   ar
    53    30    28    1
    54    26    20   ar
    55     6     1   ar
    56    38    32   ar
    57    51    44    1
    58    15    16    1
    59     9    10    1
    60    58    59    1
    61    48    53    1
    62    50    54    1
    63    52    55    1
@<TRIPOS>MOLECULE
*****
 59 63 0 0 0
SMALL
GASTEIGER

@<TRIPOS>ATOM
      1 C         -20.0130   -8.4799   -8.9224 C.ar    1  UNL1        0.0993
      2 C         -19.8765   -8.4166   -7.5299 C.ar    1  UNL1        0.0235
      3 C         -18.9110   -9.1931   -6.8643 C.ar    1  UNL1        0.0548
      4 C         -18.0755  -10.0290   -7.6264 C.ar    1  UNL1        0.0077
      5 C         -18.2048  -10.0890   -9.0159 C.ar    1  UNL1        0.0390
      6 C         -19.1624   -9.3144   -9.6756 C.ar    1  UNL1        0.1598
      7 C         -18.8211   -9.2022   -5.3810 C.2     1  UNL1        0.2458
      8 O         -18.7275  -10.3056   -4.7782 O.2     1  UNL1       -0.2701
      9 N         -18.8451   -7.9753   -4.6259 N.am    1  UNL1       -0.3040
     10 H         -18.5239   -7.1057   -5.1082 H       1  UNL1        0.1496
     11 C         -19.3164   -7.8638   -3.2315 C.3     1  UNL1        0.0572
     12 C         -20.7334   -8.4560   -3.0957 C.3     1  UNL1        0.0196
     13 C         -18.3425   -8.5891   -2.2841 C.3     1  UNL1        0.0196
     14 C         -19.3713   -6.3735   -2.8375 C.3     1  UNL1        0.0196
     15 N         -21.0920   -7.7810   -9.5428 N.pl3   1  UNL1       -0.2120
     16 H         -20.9235   -6.8041   -9.8703 H       1  UNL1        0.1738
     17 S         -22.7202   -8.2213   -9.1626 S.O2    1  UNL1        0.0745
     18 O         -23.0668   -7.7674   -7.7727 O.2     1  UNL1       -0.1499
     19 O         -22.8444   -9.7186   -9.2067 O.2     1  UNL1       -0.1499
     20 C         -25.5233   -6.1676  -12.1705 C.ar    1  UNL1       -0.0216
     21 C         -24.2438   -5.6516  -11.8841 C.ar    1  UNL1       -0.0028
     22 C         -23.3969   -6.3110  -10.9919 C.ar    1  UNL1        0.0207
     23 C         -23.7972   -7.4994  -10.3673 C.ar    1  UNL1        0.1356
     24 C         -25.0783   -8.0222  -10.6455 C.ar    1  UNL1        0.0762
     25 CL        -25.6924   -9.4821   -9.8770 Cl      1  UNL1       -0.0809
     26 C         -25.9226   -7.3571  -11.5425 C.ar    1  UNL1        0.0085
     27 C         -26.7264   -4.5443  -15.5041 C.3     1  UNL1        0.0003
     28 C         -26.2963   -5.7062  -14.6087 C.3     1  UNL1        0.0044
     29 C         -27.4475   -6.4141  -13.8965 C.3     1  UNL1        0.0047
     30 C         -26.5114   -5.4983  -13.1115 C.3     1  UNL1        0.0224
     31 O         -19.2755   -9.4350  -11.0683 O.3     1  UNL1       -0.4513
     32 C         -20.4836   -9.4548  -11.7815 C.ar    1  UNL1        0.1580
     33 C         -20.9128   -8.3444  -12.5292 C.ar    1  UNL1        0.0677
     34 C         -22.1204   -8.3867  -13.2309 C.ar    1  UNL1        0.1398
     35 F         -22.5075   -7.3014  -13.9481 F       1  UNL1       -0.2044
     36 C         -22.9168   -9.5449  -13.1978 C.ar    1  UNL1        0.0175
     37 C         -22.4701  -10.6649  -12.4791 C.ar    1  UNL1        0.0130
     38 C         -21.2613  -10.6213  -11.7763 C.ar    1  UNL1        0.0919
     39 CL        -20.7372  -12.0365  -10.8770 Cl      1  UNL1       -0.0791
     40 C         -24.2015   -9.6173  -13.9780 C.3     1  UNL1        0.1382
     41 C         -23.9145   -9.9675  -15.4021 C.2     1  UNL1        0.3234
     42 O         -23.2138   -9.1927  -16.1086 O.2     1  UNL1       -0.2497
     43 O         -24.4792  -11.1259  -15.9474 O.3     1  UNL1       -0.4215
     44 C         -23.7225  -12.2437  -16.4124 C.3     1  UNL1        0.3207
     45 O         -24.6063  -13.3420  -16.6423 O.3     1  UNL1       -0.3070
     46 C         -24.6132  -14.3564  -15.6418 C.3     1  UNL1        0.2456
     47 C         -23.2017  -14.9687  -15.3755 C.3     1  UNL1        0.1781
     48 O         -23.0185  -16.1473  -16.1215 O.3     1  UNL1       -0.3790
     49 C         -22.0575  -13.9755  -15.6705 C.3     1  UNL1        0.1733
     50 O         -20.9268  -14.2618  -14.8835 O.3     1  UNL1       -0.3793
     51 C         -22.5415  -12.5376  -15.4510 C.3     1  UNL1        0.2106
     52 O         -21.4924  -11.6188  -15.6353 O.3     1  UNL1       -0.3766
     53 H         -23.1492  -15.9192  -17.0794 H       1  UNL1        0.2106
     54 H         -21.1630  -14.0821  -13.9357 H       1  UNL1        0.2105
     55 H         -21.1373  -11.7420  -16.5545 H       1  UNL1        0.2107
     56 C         -25.3247  -13.9325  -14.3721 C.2     1  UNL1        0.3439
     57 O         -25.2051  -14.5922  -13.3074 O.2     1  UNL1       -0.2475
     58 O         -26.0901  -12.7691  -14.3562 O.3     1  UNL1       -0.4785
     59 H         -26.1752  -12.1829  -15.1780 H       1  UNL1        0.2951
@<TRIPOS>BOND
     1    27    28    1
     2    28    29    1
     3    29    30    1
     4    30    20    1
     5    20    21   ar
     6    21    22   ar
     7    22    23   ar
     8    23    17    1
     9    17    18    2
    10    17    19    2
    11    17    15    1
    12    15     1    1
    13     1     2   ar
    14     2     3   ar
    15     3     7    1
    16     7     8    2
    17     7     9   am
    18     9    11    1
    19    11    12    1
    20    11    13    1
    21    11    14    1
    22     3     4   ar
    23     4     5   ar
    24     5     6   ar
    25     6    31    1
    26    31    32    1
    27    32    33   ar
    28    33    34   ar
    29    34    35    1
    30    34    36   ar
    31    36    40    1
    32    40    41    1
    33    41    42    2
    34    41    43    1
    35    43    44    1
    36    44    45    1
    37    45    46    1
    38    46    56    1
    39    56    57    2
    40    56    58    1
    41    46    47    1
    42    47    48    1
    43    47    49    1
    44    49    50    1
    45    49    51    1
    46    51    52    1
    47    36    37   ar
    48    37    38   ar
    49    38    39    1
    50    23    24   ar
    51    24    25    1
    52    24    26   ar
    53    30    28    1
    54    26    20   ar
    55     6     1   ar
    56    38    32   ar
    57    51    44    1
    58    15    16    1
    59     9    10    1
    60    58    59    1
    61    48    53    1
    62    50    54    1
    63    52    55    1
@<TRIPOS>MOLECULE
*****
 59 63 0 0 0
SMALL
GASTEIGER

@<TRIPOS>ATOM
      1 C         -26.9957   -4.5095  -15.9984 C.ar    1  UNL1        0.0993
      2 C         -28.3415   -4.2430  -15.7172 C.ar    1  UNL1        0.0235
      3 C         -29.1866   -3.6898  -16.6960 C.ar    1  UNL1        0.0548
      4 C         -28.6558   -3.4182  -17.9697 C.ar    1  UNL1        0.0077
      5 C         -27.3157   -3.6894  -18.2551 C.ar    1  UNL1        0.0390
      6 C         -26.4786   -4.2420  -17.2823 C.ar    1  UNL1        0.1598
      7 C         -30.5900   -3.3180  -16.3789 C.2     1  UNL1        0.2458
      8 O         -31.0928   -2.2976  -16.9227 O.2     1  UNL1       -0.2701
      9 N         -31.3778   -4.0993  -15.4598 N.am    1  UNL1       -0.3040
     10 H         -31.1225   -5.1054  -15.3400 H       1  UNL1        0.1496
     11 C         -32.4991   -3.5662  -14.6612 C.3     1  UNL1        0.0572
     12 C         -32.0681   -2.2842  -13.9210 C.3     1  UNL1        0.0196
     13 C         -33.7064   -3.2754  -15.5722 C.3     1  UNL1        0.0196
     14 C         -32.9135   -4.6185  -13.6124 C.3     1  UNL1        0.0196
     15 N         -26.1418   -4.9424  -14.9396 N.pl3   1  UNL1       -0.2120
     16 H         -25.1314   -5.0972  -15.1526 H       1  UNL1        0.1738
     17 S         -26.8151   -5.8151  -13.6075 S.O2    1  UNL1        0.0745
     18 O         -28.1071   -6.4646  -14.0159 O.2     1  UNL1       -0.1499
     19 O         -27.1116   -4.8520  -12.4923 O.2     1  UNL1       -0.1499
     20 C         -23.8949   -9.0064  -12.0550 C.ar    1  UNL1       -0.0216
     21 C         -25.0818   -9.3582  -12.7281 C.ar    1  UNL1       -0.0028
     22 C         -25.9370   -8.3709  -13.2200 C.ar    1  UNL1        0.0207
     23 C         -25.6326   -7.0128  -13.0604 C.ar    1  UNL1        0.1356
     24 C         -24.4475   -6.6508  -12.3847 C.ar    1  UNL1        0.0762
     25 CL        -23.9995   -4.9737  -12.0915 Cl      1  UNL1       -0.0809
     26 C         -23.5930   -7.6455  -11.8949 C.ar    1  UNL1        0.0085
     27 C         -21.2074  -11.8282  -12.1514 C.3     1  UNL1        0.0003
     28 C         -21.7160  -10.3973  -12.3250 C.3     1  UNL1        0.0044
     29 C         -21.5354   -9.5095  -11.0949 C.3     1  UNL1        0.0047
     30 C         -22.9243  -10.0199  -11.4714 C.3     1  UNL1        0.0224
     31 O         -25.1326   -4.4648  -17.6073 O.3     1  UNL1       -0.4513
     32 C         -24.4623   -5.6901  -17.4744 C.ar    1  UNL1        0.1580
     33 C         -23.7229   -6.0008  -16.3199 C.ar    1  UNL1        0.0677
     34 C         -23.0626   -7.2274  -16.2102 C.ar    1  UNL1        0.1398
     35 F         -22.3599   -7.5023  -15.0820 F       1  UNL1       -0.2044
     36 C         -23.1354   -8.1653  -17.2551 C.ar    1  UNL1        0.0175
     37 C         -23.9027   -7.8676  -18.3924 C.ar    1  UNL1        0.0130
     38 C         -24.5627   -6.6391  -18.5016 C.ar    1  UNL1        0.0919
     39 CL        -25.5046   -6.2935  -19.9437 Cl      1  UNL1       -0.0791
     40 C         -22.4596   -9.5044  -17.1351 C.3     1  UNL1        0.1382
     41 C         -23.0716  -10.2864  -16.0185 C.2     1  UNL1        0.3234
     42 O         -24.1217   -9.8657  -15.4612 O.2     1  UNL1       -0.2497
     43 O         -22.4337  -11.4481  -15.5688 O.3     1  UNL1       -0.4215
     44 C         -22.6042  -12.7360  -16.1608 C.3     1  UNL1        0.3207
     45 O         -23.8927  -12.8005  -16.7739 O.3     1  UNL1       -0.3070
     46 C         -24.8914  -13.5153  -16.0518 C.3     1  UNL1        0.2456
     47 C         -24.4804  -14.9855  -15.7230 C.3     1  UNL1        0.1781
     48 O         -24.9892  -15.8749  -16.6869 O.3     1  UNL1       -0.3790
     49 C         -22.9520  -15.1619  -15.5985 C.3     1  UNL1        0.1733
     50 O         -22.6368  -16.2284  -14.7367 O.3     1  UNL1       -0.3793
     51 C         -22.3098  -13.8527  -15.1255 C.3     1  UNL1        0.2106
     52 O         -20.9264  -14.0127  -14.9267 O.3     1  UNL1       -0.3766
     53 H         -24.6482  -15.5838  -17.5733 H       1  UNL1        0.2106
     54 H         -22.9250  -15.9742  -13.8208 H       1  UNL1        0.2105
     55 H         -20.5288  -14.3189  -15.7836 H       1  UNL1        0.2107
     56 C         -25.4049  -12.7588  -14.8427 C.2     1  UNL1        0.3439
     57 O         -25.2158  -13.1904  -13.6760 O.2     1  UNL1       -0.2475
     58 O         -26.0583  -11.5401  -15.0078 O.3     1  UNL1       -0.4785
     59 H         -26.1903  -11.1330  -15.9259 H       1  UNL1        0.2951
@<TRIPOS>BOND
     1    27    28    1
     2    28    29    1
     3    29    30    1
     4    30    20    1
     5    20    21   ar
     6    21    22   ar
     7    22    23   ar
     8    23    17    1
     9    17    18    2
    10    17    19    2
    11    17    15    1
    12    15     1    1
    13     1     2   ar
    14     2     3   ar
    15     3     7    1
    16     7     8    2
    17     7     9   am
    18     9    11    1
    19    11    12    1
    20    11    13    1
    21    11    14    1
    22     3     4   ar
    23     4     5   ar
    24     5     6   ar
    25     6    31    1
    26    31    32    1
    27    32    33   ar
    28    33    34   ar
    29    34    35    1
    30    34    36   ar
    31    36    40    1
    32    40    41    1
    33    41    42    2
    34    41    43    1
    35    43    44    1
    36    44    45    1
    37    45    46    1
    38    46    56    1
    39    56    57    2
    40    56    58    1
    41    46    47    1
    42    47    48    1
    43    47    49    1
    44    49    50    1
    45    49    51    1
    46    51    52    1
    47    36    37   ar
    48    37    38   ar
    49    38    39    1
    50    23    24   ar
    51    24    25    1
    52    24    26   ar
    53    30    28    1
    54    26    20   ar
    55     6     1   ar
    56    38    32   ar
    57    51    44    1
    58    15    16    1
    59     9    10    1
    60    58    59    1
    61    48    53    1
    62    50    54    1
    63    52    55    1
@<TRIPOS>MOLECULE
*****
 59 63 0 0 0
SMALL
GASTEIGER

@<TRIPOS>ATOM
      1 C         -24.9947   -6.8836  -14.3357 C.ar    1  UNL1        0.0993
      2 C         -26.0084   -6.0024  -14.7328 C.ar    1  UNL1        0.0235
      3 C         -27.3462   -6.2291  -14.3625 C.ar    1  UNL1        0.0548
      4 C         -27.6466   -7.3547  -13.5748 C.ar    1  UNL1        0.0077
      5 C         -26.6367   -8.2314  -13.1716 C.ar    1  UNL1        0.0390
      6 C         -25.3078   -8.0027  -13.5378 C.ar    1  UNL1        0.1598
      7 C         -28.4396   -5.3520  -14.8560 C.2     1  UNL1        0.2458
      8 O         -29.6262   -5.5931  -14.5049 O.2     1  UNL1       -0.2701
      9 N         -28.1650   -4.2397  -15.7298 N.am    1  UNL1       -0.3040
     10 H         -27.2102   -3.8174  -15.6876 H       1  UNL1        0.1496
     11 C         -29.1319   -3.6787  -16.6940 C.3     1  UNL1        0.0572
     12 C         -29.8830   -4.8121  -17.4209 C.3     1  UNL1        0.0196
     13 C         -30.1302   -2.7580  -15.9675 C.3     1  UNL1        0.0196
     14 C         -28.3681   -2.8478  -17.7453 C.3     1  UNL1        0.0196
     15 N         -23.6751   -6.6922  -14.8451 N.pl3   1  UNL1       -0.2120
     16 H         -23.1363   -5.8595  -14.5190 H       1  UNL1        0.1738
     17 S         -23.2532   -7.3581  -16.3839 S.O2    1  UNL1        0.0745
     18 O         -22.1500   -6.5526  -17.0102 O.2     1  UNL1       -0.1499
     19 O         -24.4501   -7.2899  -17.2905 O.2     1  UNL1       -0.1499
     20 C         -22.2030  -11.7812  -15.7090 C.ar    1  UNL1       -0.0216
     21 C         -23.2656  -11.3958  -16.5504 C.ar    1  UNL1       -0.0028
     22 C         -23.5449  -10.0455  -16.7664 C.ar    1  UNL1        0.0207
     23 C         -22.7741   -9.0467  -16.1574 C.ar    1  UNL1        0.1356
     24 C         -21.7097   -9.4230  -15.3104 C.ar    1  UNL1        0.0762
     25 CL        -20.7132   -8.2457  -14.4619 Cl      1  UNL1       -0.0809
     26 C         -21.4335  -10.7790  -15.0988 C.ar    1  UNL1        0.0085
     27 C         -22.9153  -15.5172  -14.8550 C.3     1  UNL1        0.0003
     28 C         -22.8893  -14.2874  -15.7624 C.3     1  UNL1        0.0044
     29 C         -21.6204  -14.1488  -16.6017 C.3     1  UNL1        0.0047
     30 C         -21.8495  -13.2279  -15.4057 C.3     1  UNL1        0.0224
     31 O         -24.3351   -8.9300  -13.1363 O.3     1  UNL1       -0.4513
     32 C         -23.3113   -8.6764  -12.2110 C.ar    1  UNL1        0.1580
     33 C         -23.0189   -7.3709  -11.7795 C.ar    1  UNL1        0.0677
     34 C         -21.9939   -7.1423  -10.8577 C.ar    1  UNL1        0.1398
     35 F         -21.7367   -5.8717  -10.4554 F       1  UNL1       -0.2044
     36 C         -21.2468   -8.2196  -10.3499 C.ar    1  UNL1        0.0175
     37 C         -21.5630   -9.5258  -10.7554 C.ar    1  UNL1        0.0130
     38 C         -22.5888   -9.7536  -11.6788 C.ar    1  UNL1        0.0919
     39 CL        -22.9507  -11.3997  -12.1743 Cl      1  UNL1       -0.0791
     40 C         -20.1646   -7.9917   -9.3295 C.3     1  UNL1        0.1382
     41 C         -20.6404   -8.4158   -7.9779 C.2     1  UNL1        0.3234
     42 O         -21.8705   -8.3698   -7.7041 O.2     1  UNL1       -0.2497
     43 O         -19.7023   -8.8033   -7.0144 O.3     1  UNL1       -0.4215
     44 C         -19.4841   -8.1114   -5.7848 C.3     1  UNL1        0.3207
     45 O         -18.0796   -7.9421   -5.5879 O.3     1  UNL1       -0.3070
     46 C         -17.4693   -8.8309   -4.6565 C.3     1  UNL1        0.2456
     47 C         -18.1263   -8.7859   -3.2406 C.3     1  UNL1        0.1781
     48 O         -17.4222   -7.9145   -2.3896 O.3     1  UNL1       -0.3790
     49 C         -19.6161   -8.3851   -3.2889 C.3     1  UNL1        0.1733
     50 O         -20.3197   -8.9298   -2.1990 O.3     1  UNL1       -0.3793
     51 C         -20.2324   -8.8175   -4.6243 C.3     1  UNL1        0.2106
     52 O         -21.6102   -8.5352   -4.6586 O.3     1  UNL1       -0.3766
     53 H         -17.4088   -7.0198   -2.8209 H       1  UNL1        0.2106
     54 H         -20.3324   -9.9169   -2.3085 H       1  UNL1        0.2105
     55 H         -21.7253   -7.5603   -4.5087 H       1  UNL1        0.2107
     56 C         -17.3156  -10.2399   -5.1942 C.2     1  UNL1        0.3439
     57 O         -17.3267  -11.2353   -4.4246 O.2     1  UNL1       -0.2475
     58 O         -17.2062  -10.4553   -6.5657 O.3     1  UNL1       -0.4785
     59 H         -17.2400   -9.6865   -7.2244 H       1  UNL1        0.2951
@<TRIPOS>BOND
     1    27    28    1
     2    28    29    1
     3    29    30    1
     4    30    20    1
     5    20    21   ar
     6    21    22   ar
     7    22    23   ar
     8    23    17    1
     9    17    18    2
    10    17    19    2
    11    17    15    1
    12    15     1    1
    13     1     2   ar
    14     2     3   ar
    15     3     7    1
    16     7     8    2
    17     7     9   am
    18     9    11    1
    19    11    12    1
    20    11    13    1
    21    11    14    1
    22     3     4   ar
    23     4     5   ar
    24     5     6   ar
    25     6    31    1
    26    31    32    1
    27    32    33   ar
    28    33    34   ar
    29    34    35    1
    30    34    36   ar
    31    36    40    1
    32    40    41    1
    33    41    42    2
    34    41    43    1
    35    43    44    1
    36    44    45    1
    37    45    46    1
    38    46    56    1
    39    56    57    2
    40    56    58    1
    41    46    47    1
    42    47    48    1
    43    47    49    1
    44    49    50    1
    45    49    51    1
    46    51    52    1
    47    36    37   ar
    48    37    38   ar
    49    38    39    1
    50    23    24   ar
    51    24    25    1
    52    24    26   ar
    53    30    28    1
    54    26    20   ar
    55     6     1   ar
    56    38    32   ar
    57    51    44    1
    58    15    16    1
    59     9    10    1
    60    58    59    1
    61    48    53    1
    62    50    54    1
    63    52    55    1
@<TRIPOS>MOLECULE
*****
 59 63 0 0 0
SMALL
GASTEIGER

@<TRIPOS>ATOM
      1 C         -27.1594   -6.8321  -14.2150 C.ar    1  UNL1        0.0993
      2 C         -28.2876   -6.0688  -14.5406 C.ar    1  UNL1        0.0235
      3 C         -28.1577   -4.8447  -15.2210 C.ar    1  UNL1        0.0548
      4 C         -26.8706   -4.4051  -15.5786 C.ar    1  UNL1        0.0077
      5 C         -25.7442   -5.1677  -15.2612 C.ar    1  UNL1        0.0390
      6 C         -25.8756   -6.3851  -14.5881 C.ar    1  UNL1        0.1598
      7 C         -29.3397   -3.9846  -15.4883 C.2     1  UNL1        0.2458
      8 O         -29.1641   -2.8290  -15.9610 O.2     1  UNL1       -0.2701
      9 N         -30.6757   -4.4477  -15.2110 N.am    1  UNL1       -0.3040
     10 H         -30.8386   -5.4798  -15.2135 H       1  UNL1        0.1496
     11 C         -31.8162   -3.5639  -14.8994 C.3     1  UNL1        0.0572
     12 C         -31.3642   -2.4073  -13.9856 C.3     1  UNL1        0.0196
     13 C         -32.4263   -3.0086  -16.2000 C.3     1  UNL1        0.0196
     14 C         -32.8946   -4.3790  -14.1564 C.3     1  UNL1        0.0196
     15 N         -27.3240   -7.9974  -13.4071 N.pl3   1  UNL1       -0.2120
     16 H         -27.9910   -8.7323  -13.7313 H       1  UNL1        0.1738
     17 S         -27.0056   -7.9069  -11.7101 S.O2    1  UNL1        0.0745
     18 O         -28.1823   -8.4297  -10.9354 O.2     1  UNL1       -0.1499
     19 O         -26.7999   -6.4680  -11.3275 O.2     1  UNL1       -0.1499
     20 C         -23.0822  -10.1217  -10.8021 C.ar    1  UNL1       -0.0216
     21 C         -23.6094   -9.1620   -9.9152 C.ar    1  UNL1       -0.0028
     22 C         -24.8197   -8.5263  -10.1962 C.ar    1  UNL1        0.0207
     23 C         -25.5374   -8.8312  -11.3601 C.ar    1  UNL1        0.1356
     24 C         -25.0157   -9.7888  -12.2561 C.ar    1  UNL1        0.0762
     25 CL        -25.8167  -10.2069  -13.7669 Cl      1  UNL1       -0.0809
     26 C         -23.8021  -10.4242  -11.9680 C.ar    1  UNL1        0.0085
     27 C         -20.2959  -12.7530  -11.5142 C.3     1  UNL1        0.0003
     28 C         -21.1096  -11.4905  -11.7973 C.3     1  UNL1        0.0044
     29 C         -20.5187  -10.2124  -11.2048 C.3     1  UNL1        0.0047
     30 C         -21.7619  -10.8406  -10.5794 C.3     1  UNL1        0.0224
     31 O         -24.7122   -7.0975  -14.2625 O.3     1  UNL1       -0.4513
     32 C         -23.7821   -6.7198  -13.2823 C.ar    1  UNL1        0.1580
     33 C         -24.0556   -5.6849  -12.3711 C.ar    1  UNL1        0.0677
     34 C         -23.1135   -5.3253  -11.4037 C.ar    1  UNL1        0.1398
     35 F         -23.4065   -4.3253  -10.5340 F       1  UNL1       -0.2044
     36 C         -21.8822   -6.0000  -11.3311 C.ar    1  UNL1        0.0175
     37 C         -21.6249   -7.0562  -12.2192 C.ar    1  UNL1        0.0130
     38 C         -22.5683   -7.4150  -13.1878 C.ar    1  UNL1        0.0919
     39 CL        -22.2095   -8.7336  -14.2917 Cl      1  UNL1       -0.0791
     40 C         -20.8736   -5.6477  -10.2714 C.3     1  UNL1        0.1382
     41 C         -21.1087   -6.4737   -9.0486 C.2     1  UNL1        0.3234
     42 O         -22.2853   -6.6577   -8.6337 O.2     1  UNL1       -0.2497
     43 O         -20.0100   -6.9833   -8.3473 O.3     1  UNL1       -0.4215
     44 C         -19.9268   -8.3188   -7.8495 C.3     1  UNL1        0.3207
     45 O         -20.1929   -8.3107   -6.4461 O.3     1  UNL1       -0.3070
     46 C         -19.0552   -8.4194   -5.5954 C.3     1  UNL1        0.2456
     47 C         -18.1936   -9.6907   -5.8782 C.3     1  UNL1        0.1781
     48 O         -18.5491  -10.7393   -5.0103 O.3     1  UNL1       -0.3790
     49 C         -18.2945  -10.1633   -7.3441 C.3     1  UNL1        0.1733
     50 O         -17.1262  -10.8427   -7.7356 O.3     1  UNL1       -0.3793
     51 C         -18.5803   -8.9689   -8.2616 C.3     1  UNL1        0.2106
     52 O         -18.5959   -9.3629   -9.6120 O.3     1  UNL1       -0.3766
     53 H         -19.5193  -10.9140   -5.1325 H       1  UNL1        0.2106
     54 H         -16.3815  -10.1856   -7.7453 H       1  UNL1        0.2105
     55 H         -19.2866  -10.0689   -9.7155 H       1  UNL1        0.2107
     56 C         -18.2332   -7.1469   -5.5385 C.2     1  UNL1        0.3439
     57 O         -18.0559   -6.5342   -4.4539 O.2     1  UNL1       -0.2475
     58 O         -17.6188   -6.6609   -6.6899 O.3     1  UNL1       -0.4785
     59 H         -17.6964   -7.1483   -7.5745 H       1  UNL1        0.2951
@<TRIPOS>BOND
     1    27    28    1
     2    28    29    1
     3    29    30    1
     4    30    20    1
     5    20    21   ar
     6    21    22   ar
     7    22    23   ar
     8    23    17    1
     9    17    18    2
    10    17    19    2
    11    17    15    1
    12    15     1    1
    13     1     2   ar
    14     2     3   ar
    15     3     7    1
    16     7     8    2
    17     7     9   am
    18     9    11    1
    19    11    12    1
    20    11    13    1
    21    11    14    1
    22     3     4   ar
    23     4     5   ar
    24     5     6   ar
    25     6    31    1
    26    31    32    1
    27    32    33   ar
    28    33    34   ar
    29    34    35    1
    30    34    36   ar
    31    36    40    1
    32    40    41    1
    33    41    42    2
    34    41    43    1
    35    43    44    1
    36    44    45    1
    37    45    46    1
    38    46    56    1
    39    56    57    2
    40    56    58    1
    41    46    47    1
    42    47    48    1
    43    47    49    1
    44    49    50    1
    45    49    51    1
    46    51    52    1
    47    36    37   ar
    48    37    38   ar
    49    38    39    1
    50    23    24   ar
    51    24    25    1
    52    24    26   ar
    53    30    28    1
    54    26    20   ar
    55     6     1   ar
    56    38    32   ar
    57    51    44    1
    58    15    16    1
    59     9    10    1
    60    58    59    1
    61    48    53    1
    62    50    54    1
    63    52    55    1
@<TRIPOS>MOLECULE
*****
 59 63 0 0 0
SMALL
GASTEIGER

@<TRIPOS>ATOM
      1 C         -23.9585   -7.5210  -14.3163 C.ar    1  UNL1        0.0993
      2 C         -24.7481   -6.5981  -15.0137 C.ar    1  UNL1        0.0235
      3 C         -24.5349   -6.3565  -16.3828 C.ar    1  UNL1        0.0548
      4 C         -23.5178   -7.0689  -17.0429 C.ar    1  UNL1        0.0077
      5 C         -22.7333   -7.9949  -16.3515 C.ar    1  UNL1        0.0390
      6 C         -22.9488   -8.2358  -14.9921 C.ar    1  UNL1        0.1598
      7 C         -25.3051   -5.3132  -17.1084 C.2     1  UNL1        0.2458
      8 O         -24.7499   -4.6821  -18.0481 O.2     1  UNL1       -0.2701
      9 N         -26.6678   -5.0103  -16.7514 N.am    1  UNL1       -0.3040
     10 H         -27.2237   -5.7636  -16.2874 H       1  UNL1        0.1496
     11 C         -27.3168   -3.7032  -16.9738 C.3     1  UNL1        0.0572
     12 C         -26.4865   -2.5757  -16.3285 C.3     1  UNL1        0.0196
     13 C         -27.4840   -3.4453  -18.4830 C.3     1  UNL1        0.0196
     14 C         -28.7126   -3.7174  -16.3173 C.3     1  UNL1        0.0196
     15 N         -24.1174   -7.6361  -12.9024 N.pl3   1  UNL1       -0.2120
     16 H         -23.2851   -7.4621  -12.2966 H       1  UNL1        0.1738
     17 S         -25.3631   -8.6530  -12.2671 S.O2    1  UNL1        0.0745
     18 O         -26.7129   -8.0650  -12.5674 O.2     1  UNL1       -0.1499
     19 O         -25.2136   -8.7340  -10.7737 O.2     1  UNL1       -0.1499
     20 C         -25.1257  -12.8587  -14.1051 C.ar    1  UNL1       -0.0216
     21 C         -25.7077  -11.7812  -14.8022 C.ar    1  UNL1       -0.0028
     22 C         -25.7386  -10.5054  -14.2372 C.ar    1  UNL1        0.0207
     23 C         -25.1888  -10.2676  -12.9708 C.ar    1  UNL1        0.1356
     24 C         -24.6065  -11.3413  -12.2637 C.ar    1  UNL1        0.0762
     25 CL        -23.9319  -11.1560  -10.6482 Cl      1  UNL1       -0.0809
     26 C         -24.5772  -12.6184  -12.8362 C.ar    1  UNL1        0.0085
     27 C         -25.1220  -15.6345  -16.8419 C.3     1  UNL1        0.0003
     28 C         -24.5226  -14.4707  -16.0527 C.3     1  UNL1        0.0044
     29 C         -23.6882  -14.8909  -14.8439 C.3     1  UNL1        0.0047
     30 C         -25.0727  -14.2798  -14.6412 C.3     1  UNL1        0.0224
     31 O         -22.1130   -9.1504  -14.3349 O.3     1  UNL1       -0.4513
     32 C         -21.5091   -8.9391  -13.0862 C.ar    1  UNL1        0.1580
     33 C         -21.3570   -7.6469  -12.5538 C.ar    1  UNL1        0.0677
     34 C         -20.7515   -7.4606  -11.3083 C.ar    1  UNL1        0.1398
     35 F         -20.6220   -6.2020  -10.8170 F       1  UNL1       -0.2044
     36 C         -20.2915   -8.5673  -10.5734 C.ar    1  UNL1        0.0175
     37 C         -20.4755   -9.8593  -11.0907 C.ar    1  UNL1        0.0130
     38 C         -21.0811  -10.0448  -12.3380 C.ar    1  UNL1        0.0919
     39 CL        -21.2851  -11.6744  -12.9617 Cl      1  UNL1       -0.0791
     40 C         -19.6707   -8.3842   -9.2149 C.3     1  UNL1        0.1382
     41 C         -20.7206   -8.4850   -8.1564 C.2     1  UNL1        0.3234
     42 O         -21.9186   -8.7068   -8.4817 O.2     1  UNL1       -0.2497
     43 O         -20.3650   -8.2726   -6.8197 O.3     1  UNL1       -0.4215
     44 C         -19.1068   -8.6442   -6.2566 C.3     1  UNL1        0.3207
     45 O         -19.3158   -9.6688   -5.2836 O.3     1  UNL1       -0.3070
     46 C         -19.2752   -9.2526   -3.9216 C.3     1  UNL1        0.2456
     47 C         -17.9421   -8.5369   -3.5356 C.3     1  UNL1        0.1781
     48 O         -17.0364   -9.4444   -2.9564 O.3     1  UNL1       -0.3790
     49 C         -17.2803   -7.8255   -4.7349 C.3     1  UNL1        0.1733
     50 O         -16.5054   -6.7319   -4.3067 O.3     1  UNL1       -0.3793
     51 C         -18.3506   -7.3913   -5.7429 C.3     1  UNL1        0.2106
     52 O         -17.7787   -6.6687   -6.8058 O.3     1  UNL1       -0.3766
     53 H         -16.8879  -10.1780   -3.6095 H       1  UNL1        0.2106
     54 H         -17.1231   -6.0497   -3.9332 H       1  UNL1        0.2105
     55 H         -17.0949   -7.2474   -7.2346 H       1  UNL1        0.2107
     56 C         -20.5078   -8.4767   -3.5014 C.2     1  UNL1        0.3439
     57 O         -20.5029   -7.7550   -2.4707 O.2     1  UNL1       -0.2475
     58 O         -21.6583   -8.5166   -4.2851 O.3     1  UNL1       -0.4785
     59 H         -21.6905   -9.0471   -5.1474 H       1  UNL1        0.2951
@<TRIPOS>BOND
     1    27    28    1
     2    28    29    1
     3    29    30    1
     4    30    20    1
     5    20    21   ar
     6    21    22   ar
     7    22    23   ar
     8    23    17    1
     9    17    18    2
    10    17    19    2
    11    17    15    1
    12    15     1    1
    13     1     2   ar
    14     2     3   ar
    15     3     7    1
    16     7     8    2
    17     7     9   am
    18     9    11    1
    19    11    12    1
    20    11    13    1
    21    11    14    1
    22     3     4   ar
    23     4     5   ar
    24     5     6   ar
    25     6    31    1
    26    31    32    1
    27    32    33   ar
    28    33    34   ar
    29    34    35    1
    30    34    36   ar
    31    36    40    1
    32    40    41    1
    33    41    42    2
    34    41    43    1
    35    43    44    1
    36    44    45    1
    37    45    46    1
    38    46    56    1
    39    56    57    2
    40    56    58    1
    41    46    47    1
    42    47    48    1
    43    47    49    1
    44    49    50    1
    45    49    51    1
    46    51    52    1
    47    36    37   ar
    48    37    38   ar
    49    38    39    1
    50    23    24   ar
    51    24    25    1
    52    24    26   ar
    53    30    28    1
    54    26    20   ar
    55     6     1   ar
    56    38    32   ar
    57    51    44    1
    58    15    16    1
    59     9    10    1
    60    58    59    1
    61    48    53    1
    62    50    54    1
    63    52    55    1
@<TRIPOS>MOLECULE
*****
 59 63 0 0 0
SMALL
GASTEIGER

@<TRIPOS>ATOM
      1 C         -20.2142   -8.5326   -9.2857 C.ar    1  UNL1        0.0993
      2 C         -19.8547   -8.4342   -7.9356 C.ar    1  UNL1        0.0235
      3 C         -18.8879   -9.2933   -7.3828 C.ar    1  UNL1        0.0548
      4 C         -18.2794  -10.2488   -8.2161 C.ar    1  UNL1        0.0077
      5 C         -18.6310  -10.3446   -9.5645 C.ar    1  UNL1        0.0390
      6 C         -19.5894   -9.4881  -10.1125 C.ar    1  UNL1        0.1598
      7 C         -18.5678   -9.2580   -5.9321 C.2     1  UNL1        0.2458
      8 O         -18.0672  -10.2797   -5.3886 O.2     1  UNL1       -0.2701
      9 N         -18.8251   -8.0815   -5.1411 N.am    1  UNL1       -0.3040
     10 H         -18.8475   -7.1622   -5.6372 H       1  UNL1        0.1496
     11 C         -19.0838   -8.0945   -3.6878 C.3     1  UNL1        0.0572
     12 C         -18.0042   -8.9187   -2.9584 C.3     1  UNL1        0.0196
     13 C         -19.1139   -6.6543   -3.1427 C.3     1  UNL1        0.0196
     14 C         -20.4557   -8.7499   -3.4279 C.3     1  UNL1        0.0196
     15 N         -21.2938   -7.7356   -9.7724 N.pl3   1  UNL1       -0.2120
     16 H         -21.0874   -6.7585  -10.0769 H       1  UNL1        0.1738
     17 S         -22.9067   -8.0821   -9.2549 S.O2    1  UNL1        0.0745
     18 O         -23.1533   -7.4847   -7.8984 O.2     1  UNL1       -0.1499
     19 O         -23.0749   -9.5716   -9.1440 O.2     1  UNL1       -0.1499
     20 C         -25.8235   -6.2318  -12.2867 C.ar    1  UNL1       -0.0216
     21 C         -24.4919   -5.7844  -12.1771 C.ar    1  UNL1       -0.0028
     22 C         -23.6147   -6.3840  -11.2720 C.ar    1  UNL1        0.0207
     23 C         -24.0362   -7.4440  -10.4589 C.ar    1  UNL1        0.1356
     24 C         -25.3692   -7.8970  -10.5593 C.ar    1  UNL1        0.0762
     25 CL        -26.0085   -9.1895   -9.5494 Cl      1  UNL1       -0.0809
     26 C         -26.2438   -7.2926  -11.4700 C.ar    1  UNL1        0.0085
     27 C         -27.0651   -4.4866  -15.5436 C.3     1  UNL1        0.0003
     28 C         -26.5249   -5.6573  -14.7224 C.3     1  UNL1        0.0044
     29 C         -27.6021   -6.5751  -14.1470 C.3     1  UNL1        0.0047
     30 C         -26.8447   -5.6177  -13.2300 C.3     1  UNL1        0.0224
     31 O         -19.9322   -9.6461  -11.4633 O.3     1  UNL1       -0.4513
     32 C         -21.2346   -9.8382  -11.9484 C.ar    1  UNL1        0.1580
     33 C         -22.0543  -10.8712  -11.4614 C.ar    1  UNL1        0.0677
     34 C         -23.3480  -11.0440  -11.9603 C.ar    1  UNL1        0.1398
     35 F         -24.1187  -12.0471  -11.4683 F       1  UNL1       -0.2044
     36 C         -23.8435  -10.1813  -12.9537 C.ar    1  UNL1        0.0175
     37 C         -23.0364   -9.1290  -13.4139 C.ar    1  UNL1        0.0130
     38 C         -21.7411   -8.9573  -12.9145 C.ar    1  UNL1        0.0919
     39 CL        -20.7529   -7.6375  -13.5208 Cl      1  UNL1       -0.0791
     40 C         -25.2474  -10.3333  -13.4738 C.3     1  UNL1        0.1382
     41 C         -25.2964  -11.4175  -14.5009 C.2     1  UNL1        0.3234
     42 O         -26.1958  -11.4028  -15.3847 O.2     1  UNL1       -0.2497
     43 O         -24.3743  -12.4678  -14.4294 O.3     1  UNL1       -0.4215
     44 C         -23.9021  -13.1977  -15.5619 C.3     1  UNL1        0.3207
     45 O         -23.0835  -14.2783  -15.1119 O.3     1  UNL1       -0.3070
     46 C         -21.6769  -14.0876  -15.2341 C.3     1  UNL1        0.2456
     47 C         -21.2236  -13.7627  -16.6926 C.3     1  UNL1        0.1781
     48 O         -20.8048  -14.9293  -17.3581 O.3     1  UNL1       -0.3790
     49 C         -22.3226  -13.0543  -17.5130 C.3     1  UNL1        0.1733
     50 O         -21.7589  -12.2437  -18.5154 O.3     1  UNL1       -0.3793
     51 C         -23.2303  -12.2421  -16.5822 C.3     1  UNL1        0.2106
     52 O         -24.1905  -11.5223  -17.3163 O.3     1  UNL1       -0.3766
     53 H         -21.5610  -15.5732  -17.3394 H       1  UNL1        0.2106
     54 H         -21.2753  -11.5001  -18.0685 H       1  UNL1        0.2105
     55 H         -24.7154  -12.1733  -17.8519 H       1  UNL1        0.2107
     56 C         -21.1184  -13.1193  -14.2102 C.2     1  UNL1        0.3439
     57 O         -20.9973  -11.8943  -14.4707 O.2     1  UNL1       -0.2475
     58 O         -20.7726  -13.5706  -12.9389 O.3     1  UNL1       -0.4785
     59 H         -20.8980  -14.5395  -12.6713 H       1  UNL1        0.2951
@<TRIPOS>BOND
     1    27    28    1
     2    28    29    1
     3    29    30    1
     4    30    20    1
     5    20    21   ar
     6    21    22   ar
     7    22    23   ar
     8    23    17    1
     9    17    18    2
    10    17    19    2
    11    17    15    1
    12    15     1    1
    13     1     2   ar
    14     2     3   ar
    15     3     7    1
    16     7     8    2
    17     7     9   am
    18     9    11    1
    19    11    12    1
    20    11    13    1
    21    11    14    1
    22     3     4   ar
    23     4     5   ar
    24     5     6   ar
    25     6    31    1
    26    31    32    1
    27    32    33   ar
    28    33    34   ar
    29    34    35    1
    30    34    36   ar
    31    36    40    1
    32    40    41    1
    33    41    42    2
    34    41    43    1
    35    43    44    1
    36    44    45    1
    37    45    46    1
    38    46    56    1
    39    56    57    2
    40    56    58    1
    41    46    47    1
    42    47    48    1
    43    47    49    1
    44    49    50    1
    45    49    51    1
    46    51    52    1
    47    36    37   ar
    48    37    38   ar
    49    38    39    1
    50    23    24   ar
    51    24    25    1
    52    24    26   ar
    53    30    28    1
    54    26    20   ar
    55     6     1   ar
    56    38    32   ar
    57    51    44    1
    58    15    16    1
    59     9    10    1
    60    58    59    1
    61    48    53    1
    62    50    54    1
    63    52    55    1
@<TRIPOS>MOLECULE
*****
 59 63 0 0 0
SMALL
GASTEIGER

@<TRIPOS>ATOM
      1 C         -25.1081   -6.8348  -14.4048 C.ar    1  UNL1        0.0993
      2 C         -26.0882   -5.9100  -14.7864 C.ar    1  UNL1        0.0235
      3 C         -27.4395   -6.1133  -14.4535 C.ar    1  UNL1        0.0548
      4 C         -27.7878   -7.2607  -13.7188 C.ar    1  UNL1        0.0077
      5 C         -26.8115   -8.1812  -13.3309 C.ar    1  UNL1        0.0390
      6 C         -25.4691   -7.9758  -13.6599 C.ar    1  UNL1        0.1598
      7 C         -28.4973   -5.1863  -14.9333 C.2     1  UNL1        0.2458
      8 O         -29.6699   -5.3086  -14.4864 O.2     1  UNL1       -0.2701
      9 N         -28.2047   -4.1593  -15.9006 N.am    1  UNL1       -0.3040
     10 H         -27.2205   -3.8125  -15.9532 H       1  UNL1        0.1496
     11 C         -29.1946   -3.5879  -16.8347 C.3     1  UNL1        0.0572
     12 C         -28.4860   -2.7669  -17.9306 C.3     1  UNL1        0.0196
     13 C         -30.0337   -4.7125  -17.4698 C.3     1  UNL1        0.0196
     14 C         -30.1371   -2.6484  -16.0548 C.3     1  UNL1        0.0196
     15 N         -23.7728   -6.6606  -14.8786 N.pl3   1  UNL1       -0.2120
     16 H         -23.2384   -5.8254  -14.5518 H       1  UNL1        0.1738
     17 S         -23.3105   -7.3567  -16.3922 S.O2    1  UNL1        0.0745
     18 O         -22.1823   -6.5710  -16.9987 O.2     1  UNL1       -0.1499
     19 O         -24.4790   -7.2953  -17.3355 O.2     1  UNL1       -0.1499
     20 C         -22.3116  -11.7713  -15.5941 C.ar    1  UNL1       -0.0216
     21 C         -23.4030  -11.3969  -16.4029 C.ar    1  UNL1       -0.0028
     22 C         -23.6671  -10.0503  -16.6583 C.ar    1  UNL1        0.0207
     23 C         -22.8524   -9.0448  -16.1219 C.ar    1  UNL1        0.1356
     24 C         -21.7588   -9.4100  -15.3079 C.ar    1  UNL1        0.0762
     25 CL        -20.7048   -8.2215  -14.5492 Cl      1  UNL1       -0.0809
     26 C         -21.4981  -10.7622  -15.0567 C.ar    1  UNL1        0.0085
     27 C         -23.0429  -15.5428  -14.9341 C.3     1  UNL1        0.0003
     28 C         -22.8936  -14.2955  -15.8050 C.3     1  UNL1        0.0044
     29 C         -21.4989  -14.1027  -16.3979 C.3     1  UNL1        0.0047
     30 C         -21.9713  -13.2122  -15.2511 C.3     1  UNL1        0.0224
     31 O         -24.5313   -8.9457  -13.2767 O.3     1  UNL1       -0.4513
     32 C         -23.4901   -8.7433  -12.3583 C.ar    1  UNL1        0.1580
     33 C         -23.0855   -7.4511  -11.9806 C.ar    1  UNL1        0.0677
     34 C         -22.0452   -7.2738  -11.0647 C.ar    1  UNL1        0.1398
     35 F         -21.6787   -6.0146  -10.7149 F       1  UNL1       -0.2044
     36 C         -21.3950   -8.3896  -10.5089 C.ar    1  UNL1        0.0175
     37 C         -21.8233   -9.6793  -10.8607 C.ar    1  UNL1        0.0130
     38 C         -22.8644   -9.8558  -11.7782 C.ar    1  UNL1        0.0919
     39 CL        -23.3678  -11.4836  -12.2059 Cl      1  UNL1       -0.0791
     40 C         -20.2978   -8.2138   -9.4941 C.3     1  UNL1        0.1382
     41 C         -20.8847   -8.0776   -8.1267 C.2     1  UNL1        0.3234
     42 O         -22.1015   -8.3496   -7.9374 O.2     1  UNL1       -0.2497
     43 O         -20.0852   -7.5921   -7.0858 O.3     1  UNL1       -0.4215
     44 C         -18.9065   -8.2427   -6.6106 C.3     1  UNL1        0.3207
     45 O         -19.2792   -9.4338   -5.9161 O.3     1  UNL1       -0.3070
     46 C         -19.2497   -9.3610   -4.4935 C.3     1  UNL1        0.2456
     47 C         -17.8591   -8.9317   -3.9273 C.3     1  UNL1        0.1781
     48 O         -17.0948  -10.0577   -3.5706 O.3     1  UNL1       -0.3790
     49 C         -17.0647   -8.0458   -4.9104 C.3     1  UNL1        0.1733
     50 O         -16.1846   -7.1920   -4.2203 O.3     1  UNL1       -0.3793
     51 C         -18.0297   -7.2533   -5.7995 C.3     1  UNL1        0.2106
     52 O         -17.3291   -6.3776   -6.6488 O.3     1  UNL1       -0.3766
     53 H         -17.0062  -10.6283   -4.3789 H       1  UNL1        0.2106
     54 H         -16.7324   -6.5453   -3.7025 H       1  UNL1        0.2105
     55 H         -16.7009   -6.9198   -7.1944 H       1  UNL1        0.2107
     56 C         -20.3983   -8.5573   -3.9167 C.2     1  UNL1        0.3439
     57 O         -20.2553   -7.8779   -2.8673 O.2     1  UNL1       -0.2475
     58 O         -21.6256   -8.5234   -4.5740 O.3     1  UNL1       -0.4785
     59 H         -21.7702   -9.0175   -5.4463 H       1  UNL1        0.2951
@<TRIPOS>BOND
     1    27    28    1
     2    28    29    1
     3    29    30    1
     4    30    20    1
     5    20    21   ar
     6    21    22   ar
     7    22    23   ar
     8    23    17    1
     9    17    18    2
    10    17    19    2
    11    17    15    1
    12    15     1    1
    13     1     2   ar
    14     2     3   ar
    15     3     7    1
    16     7     8    2
    17     7     9   am
    18     9    11    1
    19    11    12    1
    20    11    13    1
    21    11    14    1
    22     3     4   ar
    23     4     5   ar
    24     5     6   ar
    25     6    31    1
    26    31    32    1
    27    32    33   ar
    28    33    34   ar
    29    34    35    1
    30    34    36   ar
    31    36    40    1
    32    40    41    1
    33    41    42    2
    34    41    43    1
    35    43    44    1
    36    44    45    1
    37    45    46    1
    38    46    56    1
    39    56    57    2
    40    56    58    1
    41    46    47    1
    42    47    48    1
    43    47    49    1
    44    49    50    1
    45    49    51    1
    46    51    52    1
    47    36    37   ar
    48    37    38   ar
    49    38    39    1
    50    23    24   ar
    51    24    25    1
    52    24    26   ar
    53    30    28    1
    54    26    20   ar
    55     6     1   ar
    56    38    32   ar
    57    51    44    1
    58    15    16    1
    59     9    10    1
    60    58    59    1
    61    48    53    1
    62    50    54    1
    63    52    55    1
@<TRIPOS>MOLECULE
*****
 59 63 0 0 0
SMALL
GASTEIGER

@<TRIPOS>ATOM
      1 C         -23.5877   -7.4888  -14.0692 C.ar    1  UNL1        0.0993
      2 C         -24.4771   -6.7203  -14.8309 C.ar    1  UNL1        0.0235
      3 C         -24.2391   -6.4855  -16.1970 C.ar    1  UNL1        0.0548
      4 C         -23.0934   -7.0472  -16.7883 C.ar    1  UNL1        0.0077
      5 C         -22.2084   -7.8197  -16.0327 C.ar    1  UNL1        0.0390
      6 C         -22.4483   -8.0545  -14.6764 C.ar    1  UNL1        0.1598
      7 C         -25.1268   -5.5959  -16.9901 C.2     1  UNL1        0.2458
      8 O         -24.7458   -5.2023  -18.1257 O.2     1  UNL1       -0.2701
      9 N         -26.4068   -5.1745  -16.4802 N.am    1  UNL1       -0.3040
     10 H         -26.8713   -5.7898  -15.7749 H       1  UNL1        0.1496
     11 C         -27.0877   -3.9236  -16.8682 C.3     1  UNL1        0.0572
     12 C         -28.5328   -3.9110  -16.3310 C.3     1  UNL1        0.0196
     13 C         -26.3087   -2.7084  -16.3309 C.3     1  UNL1        0.0196
     14 C         -27.1393   -3.8364  -18.4073 C.3     1  UNL1        0.0196
     15 N         -23.7939   -7.5891  -12.6603 N.pl3   1  UNL1       -0.2120
     16 H         -22.9705   -7.4628  -12.0309 H       1  UNL1        0.1738
     17 S         -25.1159   -8.5276  -12.0594 S.O2    1  UNL1        0.0745
     18 O         -26.4190   -7.8618  -12.4007 O.2     1  UNL1       -0.1499
     19 O         -25.0151   -8.6111  -10.5621 O.2     1  UNL1       -0.1499
     20 C         -25.0669  -12.7295  -13.9210 C.ar    1  UNL1       -0.0216
     21 C         -25.3203  -11.5817  -14.6981 C.ar    1  UNL1       -0.0028
     22 C         -25.2972  -10.3128  -14.1171 C.ar    1  UNL1        0.0207
     23 C         -25.0173  -10.1527  -12.7537 C.ar    1  UNL1        0.1356
     24 C         -24.7653  -11.2967  -11.9666 C.ar    1  UNL1        0.0762
     25 CL        -24.4507  -11.2053  -10.2369 Cl      1  UNL1       -0.0809
     26 C         -24.7885  -12.5665  -12.5554 C.ar    1  UNL1        0.0085
     27 C         -25.2454  -15.4696  -16.6876 C.3     1  UNL1        0.0003
     28 C         -24.5753  -14.3480  -15.8942 C.3     1  UNL1        0.0044
     29 C         -23.7480  -14.8253  -14.7019 C.3     1  UNL1        0.0047
     30 C         -25.0957  -14.1451  -14.4732 C.3     1  UNL1        0.0224
     31 O         -21.5126   -8.8086  -13.9531 O.3     1  UNL1       -0.4513
     32 C         -21.3084   -8.7275  -12.5674 C.ar    1  UNL1        0.1580
     33 C         -21.1589   -7.4893  -11.9188 C.ar    1  UNL1        0.0677
     34 C         -20.9556   -7.4330  -10.5375 C.ar    1  UNL1        0.1398
     35 F         -20.8190   -6.2233   -9.9373 F       1  UNL1       -0.2044
     36 C         -20.9022   -8.6176   -9.7821 C.ar    1  UNL1        0.0175
     37 C         -21.0864   -9.8512  -10.4262 C.ar    1  UNL1        0.0130
     38 C         -21.2891   -9.9066  -11.8092 C.ar    1  UNL1        0.0919
     39 CL        -21.5041  -11.4677  -12.5856 Cl      1  UNL1       -0.0791
     40 C         -20.7202   -8.5701   -8.2892 C.3     1  UNL1        0.1382
     41 C         -19.3673   -9.0885   -7.9234 C.2     1  UNL1        0.3234
     42 O         -18.6174   -9.5674   -8.8172 O.2     1  UNL1       -0.2497
     43 O         -18.9761   -9.0877   -6.5798 O.3     1  UNL1       -0.4215
     44 C         -19.4065   -8.1216   -5.6207 C.3     1  UNL1        0.3207
     45 O         -18.4360   -7.0763   -5.5441 O.3     1  UNL1       -0.3070
     46 C         -17.5630   -7.1176   -4.4189 C.3     1  UNL1        0.2456
     47 C         -18.3188   -7.1249   -3.0525 C.3     1  UNL1        0.1781
     48 O         -18.4188   -5.8229   -2.5290 O.3     1  UNL1       -0.3790
     49 C         -19.7214   -7.7616   -3.1523 C.3     1  UNL1        0.1733
     50 O         -20.1099   -8.3194   -1.9204 O.3     1  UNL1       -0.3793
     51 C         -19.7436   -8.8086   -4.2717 C.3     1  UNL1        0.2106
     52 O         -20.9891   -9.4603   -4.3279 O.3     1  UNL1       -0.3766
     53 H         -18.8815   -5.2622   -3.2059 H       1  UNL1        0.2106
     54 H         -19.5096   -9.0880   -1.7322 H       1  UNL1        0.2105
     55 H         -21.6885   -8.7694   -4.4683 H       1  UNL1        0.2107
     56 C         -16.5139   -8.2070   -4.5218 C.2     1  UNL1        0.3439
     57 O         -15.5494   -8.2604   -3.7156 O.2     1  UNL1       -0.2475
     58 O         -16.6316   -9.1999   -5.4913 O.3     1  UNL1       -0.4785
     59 H         -17.4172   -9.2220   -6.1304 H       1  UNL1        0.2951
@<TRIPOS>BOND
     1    27    28    1
     2    28    29    1
     3    29    30    1
     4    30    20    1
     5    20    21   ar
     6    21    22   ar
     7    22    23   ar
     8    23    17    1
     9    17    18    2
    10    17    19    2
    11    17    15    1
    12    15     1    1
    13     1     2   ar
    14     2     3   ar
    15     3     7    1
    16     7     8    2
    17     7     9   am
    18     9    11    1
    19    11    12    1
    20    11    13    1
    21    11    14    1
    22     3     4   ar
    23     4     5   ar
    24     5     6   ar
    25     6    31    1
    26    31    32    1
    27    32    33   ar
    28    33    34   ar
    29    34    35    1
    30    34    36   ar
    31    36    40    1
    32    40    41    1
    33    41    42    2
    34    41    43    1
    35    43    44    1
    36    44    45    1
    37    45    46    1
    38    46    56    1
    39    56    57    2
    40    56    58    1
    41    46    47    1
    42    47    48    1
    43    47    49    1
    44    49    50    1
    45    49    51    1
    46    51    52    1
    47    36    37   ar
    48    37    38   ar
    49    38    39    1
    50    23    24   ar
    51    24    25    1
    52    24    26   ar
    53    30    28    1
    54    26    20   ar
    55     6     1   ar
    56    38    32   ar
    57    51    44    1
    58    15    16    1
    59     9    10    1
    60    58    59    1
    61    48    53    1
    62    50    54    1
    63    52    55    1
