@<TRIPOS>MOLECULE
*****
 47 53 0 0 0
SMALL
GASTEIGER

@<TRIPOS>ATOM
      1 N          63.8309   90.8963   11.7704 N.am    1  UNL1       -0.0905
      2 C          64.3702   91.8162   10.8988 C.2     1  UNL1        0.4229
      3 O          64.1544   91.7347    9.6573 O.2     1  UNL1       -0.2135
      4 C          65.2035   92.8335   11.3588 C.2     1  UNL1        0.1157
      5 C          65.5534   92.8813   12.6980 C.2     1  UNL1        0.0173
      6 C          64.9927   91.9723   13.5949 C.ar    1  UNL1        0.0828
      7 C          65.3950   91.9800   14.9339 C.ar    1  UNL1        0.1047
      8 N          64.8457   91.1143   15.8166 N.ar    1  UNL1       -0.2434
      9 C          63.8470   90.2672   15.4657 C.ar    1  UNL1        0.0870
     10 C          63.2744   89.4534   16.4479 C.ar    1  UNL1        0.0193
     11 C          62.1641   88.6655   16.1518 C.ar    1  UNL1        0.0016
     12 C          61.5753   88.7229   14.8806 C.ar    1  UNL1        0.0018
     13 C          62.1537   89.5445   13.8965 C.ar    1  UNL1        0.0075
     14 C          63.3531   90.2507   14.1354 C.ar    1  UNL1        0.0810
     15 C          64.0324   91.0297   13.1402 C.ar    1  UNL1        0.2297
     16 C          60.3594   87.9258   14.5688 C.ar    1  UNL1        0.0192
     17 C          60.3820   86.5259   14.6810 C.ar    1  UNL1        0.0989
     18 N          59.2740   85.7911   14.4056 N.ar    1  UNL1       -0.2408
     19 C          58.1079   86.3665   14.0111 C.ar    1  UNL1        0.1151
     20 C          56.9871   85.5663   13.7401 C.ar    1  UNL1        0.1562
     21 C          55.7879   86.1815   13.3298 C.ar    1  UNL1        0.0385
     22 C          55.7155   87.5713   13.1955 C.ar    1  UNL1        0.0032
     23 C          56.8312   88.3661   13.4681 C.ar    1  UNL1        0.0017
     24 C          58.0316   87.7706   13.8783 C.ar    1  UNL1        0.0207
     25 C          59.1657   88.5446   14.1603 C.ar    1  UNL1        0.0031
     26 O          57.1014   84.1745   13.8895 O.3     1  UNL1       -0.4699
     27 C          57.8888   83.3353   13.0514 C.3     1  UNL1        0.2525
     28 C          62.1555   87.3668   10.0683 C.ar    1  UNL1        0.0522
     29 C          62.1126   88.5855    9.3753 C.ar    1  UNL1        0.0206
     30 C          62.6763   89.7357    9.9264 C.ar    1  UNL1        0.0703
     31 C          63.2811   89.6917   11.1889 C.ar    1  UNL1        0.2271
     32 C          63.3180   88.4774   11.8938 C.ar    1  UNL1        0.0742
     33 C          62.7979   87.2965   11.3292 C.ar    1  UNL1        0.0906
     34 C          59.8365   82.6626    7.9804 C.2     1  UNL1        0.2257
     35 O          60.5224   81.6292    7.7465 O.2     1  UNL1       -0.2749
     36 N          60.4584   83.8029    8.6047 N.am    1  UNL1       -0.2760
     37 C          59.7719   84.5300    9.6828 C.3     1  UNL1        0.1148
     38 C          60.0979   86.0213    9.6027 C.3     1  UNL1        0.1123
     39 N          61.5454   86.2062    9.4810 N.pl3   1  UNL1       -0.3041
     40 C          62.2335   85.4952    8.4000 C.3     1  UNL1        0.1123
     41 C          61.9070   84.0019    8.4631 C.3     1  UNL1        0.1148
     42 C          57.9320   81.3822    6.9456 C.3     1  UNL1        0.0101
     43 C          58.3694   82.6715    7.6379 C.3     1  UNL1        0.0853
     44 C          62.9065   85.9896   12.0872 C.3     1  UNL1        0.4199
     45 F          61.6489   85.4863   12.3671 F       1  UNL1       -0.1658
     46 F          63.5892   86.1961   13.2707 F       1  UNL1       -0.1658
     47 F          63.5854   85.0360   11.3477 F       1  UNL1       -0.1658
@<TRIPOS>BOND
     1    42    43    1
     2    43    34    1
     3    34    35    2
     4    34    36   am
     5    36    37    1
     6    37    38    1
     7    38    39    1
     8    39    28    1
     9    28    29   ar
    10    29    30   ar
    11    30    31   ar
    12    31     1    1
    13     1     2    1
    14     2     3    2
    15     2     4    1
    16     4     5    2
    17     5     6    1
    18     6     7   ar
    19     7     8   ar
    20     8     9   ar
    21     9    10   ar
    22    10    11   ar
    23    11    12   ar
    24    12    16    1
    25    16    17   ar
    26    17    18   ar
    27    18    19   ar
    28    19    20   ar
    29    20    26    1
    30    26    27    1
    31    20    21   ar
    32    21    22   ar
    33    22    23   ar
    34    23    24   ar
    35    24    25   ar
    36    12    13   ar
    37    13    14   ar
    38    14    15   ar
    39    31    32   ar
    40    32    33   ar
    41    33    44    1
    42    44    45    1
    43    44    46    1
    44    44    47    1
    45    39    40    1
    46    40    41    1
    47    41    36    1
    48    33    28   ar
    49    15     1    1
    50    15     6   ar
    51    14     9   ar
    52    25    16   ar
    53    24    19   ar
@<TRIPOS>MOLECULE
*****
 47 53 0 0 0
SMALL
GASTEIGER

@<TRIPOS>ATOM
      1 N          63.6230   87.8103   13.5696 N.am    1  UNL1       -0.0905
      2 C          64.5461   87.8122   14.5918 C.2     1  UNL1        0.4229
      3 O          64.8988   86.7341   15.1467 O.2     1  UNL1       -0.2135
      4 C          65.0808   89.0066   15.0697 C.2     1  UNL1        0.1157
      5 C          64.6283   90.2130   14.5618 C.2     1  UNL1        0.0173
      6 C          63.7144   90.2237   13.5084 C.ar    1  UNL1        0.0828
      7 C          63.2095   91.4403   13.0395 C.ar    1  UNL1        0.1047
      8 N          62.3354   91.4640   12.0071 N.ar    1  UNL1       -0.2434
      9 C          61.9738   90.3372   11.3457 C.ar    1  UNL1        0.0870
     10 C          61.1250   90.4452   10.2399 C.ar    1  UNL1        0.0193
     11 C          60.8352   89.3268    9.4612 C.ar    1  UNL1        0.0016
     12 C          61.4362   88.0924    9.7456 C.ar    1  UNL1        0.0018
     13 C          62.2909   87.9891   10.8578 C.ar    1  UNL1        0.0075
     14 C          62.4960   89.0765   11.7352 C.ar    1  UNL1        0.0810
     15 C          63.2845   88.9989   12.9315 C.ar    1  UNL1        0.2297
     16 C          61.1749   86.9042    8.8908 C.ar    1  UNL1        0.0192
     17 C          59.9822   86.1763    9.0349 C.ar    1  UNL1        0.0989
     18 N          59.7323   85.0947    8.2532 N.ar    1  UNL1       -0.2408
     19 C          60.6127   84.6691    7.3097 C.ar    1  UNL1        0.1151
     20 C          60.3098   83.5471    6.5227 C.ar    1  UNL1        0.1562
     21 C          61.2366   83.1198    5.5515 C.ar    1  UNL1        0.0385
     22 C          62.4420   83.8056    5.3736 C.ar    1  UNL1        0.0032
     23 C          62.7405   84.9234    6.1560 C.ar    1  UNL1        0.0017
     24 C          61.8293   85.3626    7.1259 C.ar    1  UNL1        0.0207
     25 C          62.1027   86.4825    7.9233 C.ar    1  UNL1        0.0031
     26 O          59.0872   82.8881    6.7318 O.3     1  UNL1       -0.4699
     27 C          58.9291   81.7121    7.5182 C.3     1  UNL1        0.2525
     28 C          61.4259   84.1968   13.0444 C.ar    1  UNL1        0.0522
     29 C          61.1516   85.0508   14.1226 C.ar    1  UNL1        0.0206
     30 C          61.8600   86.2411   14.2834 C.ar    1  UNL1        0.0703
     31 C          62.8673   86.5926   13.3760 C.ar    1  UNL1        0.2271
     32 C          63.1553   85.7370   12.3000 C.ar    1  UNL1        0.0742
     33 C          62.4148   84.5565   12.0957 C.ar    1  UNL1        0.0906
     34 C          58.6834   79.3144   12.3313 C.2     1  UNL1        0.2257
     35 O          57.9880   79.0852   11.3031 O.2     1  UNL1       -0.2749
     36 N          59.4420   80.5366   12.4191 N.am    1  UNL1       -0.2760
     37 C          60.8238   80.5225   12.9218 C.3     1  UNL1        0.1148
     38 C          61.1125   81.8035   13.7042 C.3     1  UNL1        0.1123
     39 N          60.6923   82.9675   12.9214 N.pl3   1  UNL1       -0.3041
     40 C          59.3122   82.9941   12.4292 C.3     1  UNL1        0.1123
     41 C          59.0074   81.7119   11.6524 C.3     1  UNL1        0.1148
     42 C          58.6527   78.9247   14.8181 C.3     1  UNL1        0.0101
     43 C          58.7387   78.2878   13.4325 C.3     1  UNL1        0.0853
     44 C          62.7074   83.6843   10.8923 C.3     1  UNL1        0.4199
     45 F          63.2534   82.4774   11.2903 F       1  UNL1       -0.1658
     46 F          63.5952   84.3329   10.0553 F       1  UNL1       -0.1658
     47 F          61.5524   83.4083   10.1804 F       1  UNL1       -0.1658
@<TRIPOS>BOND
     1    42    43    1
     2    43    34    1
     3    34    35    2
     4    34    36   am
     5    36    37    1
     6    37    38    1
     7    38    39    1
     8    39    28    1
     9    28    29   ar
    10    29    30   ar
    11    30    31   ar
    12    31     1    1
    13     1     2    1
    14     2     3    2
    15     2     4    1
    16     4     5    2
    17     5     6    1
    18     6     7   ar
    19     7     8   ar
    20     8     9   ar
    21     9    10   ar
    22    10    11   ar
    23    11    12   ar
    24    12    16    1
    25    16    17   ar
    26    17    18   ar
    27    18    19   ar
    28    19    20   ar
    29    20    26    1
    30    26    27    1
    31    20    21   ar
    32    21    22   ar
    33    22    23   ar
    34    23    24   ar
    35    24    25   ar
    36    12    13   ar
    37    13    14   ar
    38    14    15   ar
    39    31    32   ar
    40    32    33   ar
    41    33    44    1
    42    44    45    1
    43    44    46    1
    44    44    47    1
    45    39    40    1
    46    40    41    1
    47    41    36    1
    48    33    28   ar
    49    15     1    1
    50    15     6   ar
    51    14     9   ar
    52    25    16   ar
    53    24    19   ar
@<TRIPOS>MOLECULE
*****
 47 53 0 0 0
SMALL
GASTEIGER

@<TRIPOS>ATOM
      1 N          60.4443   85.4437    9.0354 N.am    1  UNL1       -0.0905
      2 C          60.8992   84.8443    7.8819 C.2     1  UNL1        0.4229
      3 O          62.0150   85.1633    7.3839 O.2     1  UNL1       -0.2135
      4 C          60.1212   83.9037    7.2105 C.2     1  UNL1        0.1157
      5 C          58.8449   83.6176    7.6660 C.2     1  UNL1        0.0173
      6 C          58.3833   84.1973    8.8475 C.ar    1  UNL1        0.0828
      7 C          57.0728   83.9587    9.2722 C.ar    1  UNL1        0.1047
      8 N          56.6194   84.5019   10.4253 N.ar    1  UNL1       -0.2434
      9 C          57.4221   85.2272   11.2424 C.ar    1  UNL1        0.0870
     10 C          56.9072   85.6945   12.4554 C.ar    1  UNL1        0.0193
     11 C          57.7371   86.3321   13.3751 C.ar    1  UNL1        0.0016
     12 C          59.1093   86.4621   13.1177 C.ar    1  UNL1        0.0018
     13 C          59.6230   85.9887   11.8970 C.ar    1  UNL1        0.0075
     14 C          58.7793   85.4571   10.8971 C.ar    1  UNL1        0.0810
     15 C          59.2386   85.0440    9.6020 C.ar    1  UNL1        0.2297
     16 C          60.0136   87.0944   14.1143 C.ar    1  UNL1        0.0192
     17 C          60.2746   88.4734   14.0595 C.ar    1  UNL1        0.0989
     18 N          61.0931   89.0600   14.9702 N.ar    1  UNL1       -0.2408
     19 C          61.6924   88.3508   15.9622 C.ar    1  UNL1        0.1151
     20 C          62.5286   89.0010   16.8831 C.ar    1  UNL1        0.1562
     21 C          63.1429   88.2477   17.9029 C.ar    1  UNL1        0.0385
     22 C          62.9214   86.8704   17.9966 C.ar    1  UNL1        0.0032
     23 C          62.0870   86.2256   17.0807 C.ar    1  UNL1        0.0017
     24 C          61.4672   86.9599   16.0608 C.ar    1  UNL1        0.0207
     25 C          60.6235   86.3384   15.1298 C.ar    1  UNL1        0.0031
     26 O          62.7227   90.3861   16.7551 O.3     1  UNL1       -0.4699
     27 C          63.9265   90.9928   16.2974 C.3     1  UNL1        0.2525
     28 C          62.4959   88.9380   10.3552 C.ar    1  UNL1        0.0522
     29 C          63.2084   87.7981    9.9549 C.ar    1  UNL1        0.0206
     30 C          62.5359   86.6615    9.5073 C.ar    1  UNL1        0.0703
     31 C          61.1361   86.6386    9.4656 C.ar    1  UNL1        0.2271
     32 C          60.4154   87.7724    9.8755 C.ar    1  UNL1        0.0742
     33 C          61.0810   88.9451   10.2822 C.ar    1  UNL1        0.0906
     34 C          65.5723   93.2980   12.1972 C.2     1  UNL1        0.2257
     35 O          66.3061   93.2102   13.2203 O.2     1  UNL1       -0.2749
     36 N          64.8842   92.1281   11.7127 N.am    1  UNL1       -0.2760
     37 C          64.8454   91.8279   10.2737 C.3     1  UNL1        0.1148
     38 C          63.5098   91.1813    9.9067 C.3     1  UNL1        0.1123
     39 N          63.2198   90.0839   10.8319 N.pl3   1  UNL1       -0.3041
     40 C          63.2432   90.3799   12.2670 C.3     1  UNL1        0.1123
     41 C          64.5719   91.0371   12.6455 C.3     1  UNL1        0.1148
     42 C          66.6698   94.8921   10.5872 C.3     1  UNL1        0.0101
     43 C          65.4594   94.6166   11.4771 C.3     1  UNL1        0.0853
     44 C          60.2780   90.1725   10.6606 C.3     1  UNL1        0.4199
     45 F          59.1530   89.8121   11.3802 F       1  UNL1       -0.1658
     46 F          59.8920   90.8441    9.5164 F       1  UNL1       -0.1658
     47 F          61.0216   91.0351   11.4480 F       1  UNL1       -0.1658
@<TRIPOS>BOND
     1    42    43    1
     2    43    34    1
     3    34    35    2
     4    34    36   am
     5    36    37    1
     6    37    38    1
     7    38    39    1
     8    39    28    1
     9    28    29   ar
    10    29    30   ar
    11    30    31   ar
    12    31     1    1
    13     1     2    1
    14     2     3    2
    15     2     4    1
    16     4     5    2
    17     5     6    1
    18     6     7   ar
    19     7     8   ar
    20     8     9   ar
    21     9    10   ar
    22    10    11   ar
    23    11    12   ar
    24    12    16    1
    25    16    17   ar
    26    17    18   ar
    27    18    19   ar
    28    19    20   ar
    29    20    26    1
    30    26    27    1
    31    20    21   ar
    32    21    22   ar
    33    22    23   ar
    34    23    24   ar
    35    24    25   ar
    36    12    13   ar
    37    13    14   ar
    38    14    15   ar
    39    31    32   ar
    40    32    33   ar
    41    33    44    1
    42    44    45    1
    43    44    46    1
    44    44    47    1
    45    39    40    1
    46    40    41    1
    47    41    36    1
    48    33    28   ar
    49    15     1    1
    50    15     6   ar
    51    14     9   ar
    52    25    16   ar
    53    24    19   ar
@<TRIPOS>MOLECULE
*****
 47 53 0 0 0
SMALL
GASTEIGER

@<TRIPOS>ATOM
      1 N          62.8816   83.2897   12.9128 N.am    1  UNL1       -0.0905
      2 C          63.0595   81.9932   12.4834 C.2     1  UNL1        0.4229
      3 O          63.0300   81.7095   11.2533 O.2     1  UNL1       -0.2135
      4 C          63.2320   80.9552   13.3965 C.2     1  UNL1        0.1157
      5 C          63.1531   81.2155   14.7545 C.2     1  UNL1        0.0173
      6 C          63.0004   82.5274   15.2023 C.ar    1  UNL1        0.0828
      7 C          62.8564   82.7822   16.5694 C.ar    1  UNL1        0.1047
      8 N          62.7246   84.0521   17.0168 N.ar    1  UNL1       -0.2434
      9 C          62.7990   85.1190   16.1836 C.ar    1  UNL1        0.0870
     10 C          62.7301   86.4061   16.7253 C.ar    1  UNL1        0.0193
     11 C          62.9304   87.5232   15.9171 C.ar    1  UNL1        0.0016
     12 C          63.2585   87.3664   14.5629 C.ar    1  UNL1        0.0018
     13 C          63.3286   86.0696   14.0230 C.ar    1  UNL1        0.0075
     14 C          63.0024   84.9308   14.7918 C.ar    1  UNL1        0.0810
     15 C          62.9704   83.5958   14.2667 C.ar    1  UNL1        0.2297
     16 C          63.5251   88.5496   13.7029 C.ar    1  UNL1        0.0192
     17 C          64.4086   89.5533   14.1329 C.ar    1  UNL1        0.0989
     18 N          64.6636   90.6332   13.3505 N.ar    1  UNL1       -0.2408
     19 C          64.0823   90.7938   12.1329 C.ar    1  UNL1        0.1151
     20 C          64.3786   91.9257   11.3576 C.ar    1  UNL1        0.1562
     21 C          63.7638   92.0753   10.0989 C.ar    1  UNL1        0.0385
     22 C          62.8708   91.1080    9.6280 C.ar    1  UNL1        0.0032
     23 C          62.5791   89.9811   10.3999 C.ar    1  UNL1        0.0017
     24 C          63.1826   89.8160   11.6538 C.ar    1  UNL1        0.0207
     25 C          62.9094   88.6937   12.4480 C.ar    1  UNL1        0.0031
     26 O          65.2827   92.8724   11.8664 O.3     1  UNL1       -0.4699
     27 C          66.0901   93.7284   11.0651 C.3     1  UNL1        0.2525
     28 C          61.3127   86.0314   10.0524 C.ar    1  UNL1        0.0522
     29 C          60.7660   85.9512   11.3415 C.ar    1  UNL1        0.0206
     30 C          61.2915   85.0655   12.2816 C.ar    1  UNL1        0.0703
     31 C          62.3655   84.2319   11.9448 C.ar    1  UNL1        0.2271
     32 C          62.9110   84.2986   10.6522 C.ar    1  UNL1        0.0742
     33 C          62.4242   85.2232    9.7078 C.ar    1  UNL1        0.0906
     34 C          58.8468   89.6658    6.5058 C.2     1  UNL1        0.2257
     35 O          57.6398   89.5420    6.1582 O.2     1  UNL1       -0.2749
     36 N          59.3996   88.7688    7.4890 N.am    1  UNL1       -0.2760
     37 C          60.2580   89.2811    8.5674 C.3     1  UNL1        0.1148
     38 C          61.3403   88.2575    8.9100 C.3     1  UNL1        0.1123
     39 N          60.7325   86.9391    9.1016 N.pl3   1  UNL1       -0.3041
     40 C          59.8871   86.4167    8.0246 C.3     1  UNL1        0.1123
     41 C          58.8052   87.4369    7.6652 C.3     1  UNL1        0.1148
     42 C          58.8558   91.6929    5.0132 C.3     1  UNL1        0.0101
     43 C          59.6783   90.7745    5.9149 C.3     1  UNL1        0.0853
     44 C          63.0724   85.3145    8.3418 C.3     1  UNL1        0.4199
     45 F          63.9082   84.2330    8.1293 F       1  UNL1       -0.1658
     46 F          63.8060   86.4822    8.2545 F       1  UNL1       -0.1658
     47 F          62.1221   85.3150    7.3349 F       1  UNL1       -0.1658
@<TRIPOS>BOND
     1    42    43    1
     2    43    34    1
     3    34    35    2
     4    34    36   am
     5    36    37    1
     6    37    38    1
     7    38    39    1
     8    39    28    1
     9    28    29   ar
    10    29    30   ar
    11    30    31   ar
    12    31     1    1
    13     1     2    1
    14     2     3    2
    15     2     4    1
    16     4     5    2
    17     5     6    1
    18     6     7   ar
    19     7     8   ar
    20     8     9   ar
    21     9    10   ar
    22    10    11   ar
    23    11    12   ar
    24    12    16    1
    25    16    17   ar
    26    17    18   ar
    27    18    19   ar
    28    19    20   ar
    29    20    26    1
    30    26    27    1
    31    20    21   ar
    32    21    22   ar
    33    22    23   ar
    34    23    24   ar
    35    24    25   ar
    36    12    13   ar
    37    13    14   ar
    38    14    15   ar
    39    31    32   ar
    40    32    33   ar
    41    33    44    1
    42    44    45    1
    43    44    46    1
    44    44    47    1
    45    39    40    1
    46    40    41    1
    47    41    36    1
    48    33    28   ar
    49    15     1    1
    50    15     6   ar
    51    14     9   ar
    52    25    16   ar
    53    24    19   ar
@<TRIPOS>MOLECULE
*****
 47 53 0 0 0
SMALL
GASTEIGER

@<TRIPOS>ATOM
      1 N          60.0985   83.1644    8.4350 N.am    1  UNL1       -0.0905
      2 C          60.1317   83.0665    7.0616 C.2     1  UNL1        0.4229
      3 O          60.8147   83.8742    6.3720 O.2     1  UNL1       -0.2135
      4 C          59.3780   82.1026    6.3954 C.2     1  UNL1        0.1157
      5 C          58.5291   81.2775    7.1142 C.2     1  UNL1        0.0173
      6 C          58.5067   81.3484    8.5068 C.ar    1  UNL1        0.0828
      7 C          57.6037   80.5612    9.2278 C.ar    1  UNL1        0.1047
      8 N          57.5846   80.6091   10.5797 N.ar    1  UNL1       -0.2434
      9 C          58.4723   81.3522   11.2851 C.ar    1  UNL1        0.0870
     10 C          58.4429   81.2951   12.6818 C.ar    1  UNL1        0.0193
     11 C          59.4190   81.9439   13.4350 C.ar    1  UNL1        0.0016
     12 C          60.4732   82.6147   12.7987 C.ar    1  UNL1        0.0018
     13 C          60.4996   82.6678   11.3935 C.ar    1  UNL1        0.0075
     14 C          59.4523   82.1290   10.6142 C.ar    1  UNL1        0.0810
     15 C          59.3853   82.2350    9.1848 C.ar    1  UNL1        0.2297
     16 C          61.5486   83.2668   13.5917 C.ar    1  UNL1        0.0192
     17 C          61.2776   83.7678   14.8756 C.ar    1  UNL1        0.0989
     18 N          62.2558   84.3578   15.6095 N.ar    1  UNL1       -0.2408
     19 C          63.5246   84.4925   15.1425 C.ar    1  UNL1        0.1151
     20 C          64.5038   85.1070   15.9385 C.ar    1  UNL1        0.1562
     21 C          65.8131   85.2395   15.4354 C.ar    1  UNL1        0.0385
     22 C          66.1327   84.7638   14.1602 C.ar    1  UNL1        0.0032
     23 C          65.1575   84.1504   13.3705 C.ar    1  UNL1        0.0017
     24 C          63.8505   84.0095   13.8558 C.ar    1  UNL1        0.0207
     25 C          62.8531   83.3960   13.0853 C.ar    1  UNL1        0.0031
     26 O          64.1418   85.5689   17.2145 O.3     1  UNL1       -0.4699
     27 C          63.0975   86.5026   17.4680 C.3     1  UNL1        0.2525
     28 C          61.6542   86.7290   10.1767 C.ar    1  UNL1        0.0522
     29 C          62.4125   85.9933    9.2543 C.ar    1  UNL1        0.0206
     30 C          61.8952   84.8363    8.6726 C.ar    1  UNL1        0.0703
     31 C          60.6141   84.3850    9.0142 C.ar    1  UNL1        0.2271
     32 C          59.8532   85.1104    9.9456 C.ar    1  UNL1        0.0742
     33 C          60.3416   86.3078   10.5037 C.ar    1  UNL1        0.0906
     34 C          63.6570   91.4022   12.6298 C.2     1  UNL1        0.2257
     35 O          63.1898   92.5449   12.3669 O.2     1  UNL1       -0.2749
     36 N          63.0451   90.2330   12.0506 N.am    1  UNL1       -0.2760
     37 C          62.8075   89.0333   12.8671 C.3     1  UNL1        0.1148
     38 C          62.9869   87.7748   12.0184 C.3     1  UNL1        0.1123
     39 N          62.2265   87.9040   10.7736 N.pl3   1  UNL1       -0.3041
     40 C          62.4689   89.0906    9.9484 C.3     1  UNL1        0.1123
     41 C          62.3021   90.3576   10.7895 C.3     1  UNL1        0.1148
     42 C          65.9621   92.2286   13.2137 C.3     1  UNL1        0.0101
     43 C          64.8228   91.2779   13.5760 C.3     1  UNL1        0.0853
     44 C          59.4739   87.1007   11.4591 C.3     1  UNL1        0.4199
     45 F          59.9669   87.0116   12.7484 F       1  UNL1       -0.1658
     46 F          58.1830   86.6087   11.4292 F       1  UNL1       -0.1658
     47 F          59.4425   88.4410   11.1132 F       1  UNL1       -0.1658
@<TRIPOS>BOND
     1    42    43    1
     2    43    34    1
     3    34    35    2
     4    34    36   am
     5    36    37    1
     6    37    38    1
     7    38    39    1
     8    39    28    1
     9    28    29   ar
    10    29    30   ar
    11    30    31   ar
    12    31     1    1
    13     1     2    1
    14     2     3    2
    15     2     4    1
    16     4     5    2
    17     5     6    1
    18     6     7   ar
    19     7     8   ar
    20     8     9   ar
    21     9    10   ar
    22    10    11   ar
    23    11    12   ar
    24    12    16    1
    25    16    17   ar
    26    17    18   ar
    27    18    19   ar
    28    19    20   ar
    29    20    26    1
    30    26    27    1
    31    20    21   ar
    32    21    22   ar
    33    22    23   ar
    34    23    24   ar
    35    24    25   ar
    36    12    13   ar
    37    13    14   ar
    38    14    15   ar
    39    31    32   ar
    40    32    33   ar
    41    33    44    1
    42    44    45    1
    43    44    46    1
    44    44    47    1
    45    39    40    1
    46    40    41    1
    47    41    36    1
    48    33    28   ar
    49    15     1    1
    50    15     6   ar
    51    14     9   ar
    52    25    16   ar
    53    24    19   ar
@<TRIPOS>MOLECULE
*****
 47 53 0 0 0
SMALL
GASTEIGER

@<TRIPOS>ATOM
      1 N          62.8963   82.9747   12.7316 N.am    1  UNL1       -0.0905
      2 C          63.0784   81.6819   12.2929 C.2     1  UNL1        0.4229
      3 O          62.9972   81.3981   11.0651 O.2     1  UNL1       -0.2135
      4 C          63.3124   80.6471   13.1958 C.2     1  UNL1        0.1157
      5 C          63.2917   80.9054   14.5563 C.2     1  UNL1        0.0173
      6 C          63.1354   82.2141   15.0122 C.ar    1  UNL1        0.0828
      7 C          63.0502   82.4658   16.3848 C.ar    1  UNL1        0.1047
      8 N          62.9155   83.7329   16.8393 N.ar    1  UNL1       -0.2434
      9 C          62.9313   84.8012   16.0048 C.ar    1  UNL1        0.0870
     10 C          62.8635   86.0867   16.5506 C.ar    1  UNL1        0.0193
     11 C          63.0052   87.2075   15.7353 C.ar    1  UNL1        0.0016
     12 C          63.2730   87.0573   14.3672 C.ar    1  UNL1        0.0018
     13 C          63.3423   85.7622   13.8231 C.ar    1  UNL1        0.0075
     14 C          63.0735   84.6172   14.6048 C.ar    1  UNL1        0.0810
     15 C          63.0421   83.2821   14.0802 C.ar    1  UNL1        0.2297
     16 C          63.4774   88.2455   13.4971 C.ar    1  UNL1        0.0192
     17 C          62.8574   88.3174   12.2388 C.ar    1  UNL1        0.0989
     18 N          63.0326   89.4022   11.4414 N.ar    1  UNL1       -0.2408
     19 C          63.8074   90.4537   11.8158 C.ar    1  UNL1        0.1151
     20 C          63.9569   91.5554   10.9591 C.ar    1  UNL1        0.1562
     21 C          64.7664   92.6348   11.3644 C.ar    1  UNL1        0.0385
     22 C          65.4116   92.6090   12.6045 C.ar    1  UNL1        0.0032
     23 C          65.2596   91.5129   13.4567 C.ar    1  UNL1        0.0017
     24 C          64.4572   90.4312   13.0698 C.ar    1  UNL1        0.0207
     25 C          64.2858   89.3197   13.9064 C.ar    1  UNL1        0.0031
     26 O          63.2898   91.5426    9.7232 O.3     1  UNL1       -0.4699
     27 C          61.9480   91.1056    9.5354 C.3     1  UNL1        0.2525
     28 C          61.2305   85.7659    9.9757 C.ar    1  UNL1        0.0522
     29 C          62.4986   85.2097    9.7525 C.ar    1  UNL1        0.0206
     30 C          63.0350   84.2838   10.6465 C.ar    1  UNL1        0.0703
     31 C          62.3184   83.9074   11.7896 C.ar    1  UNL1        0.2271
     32 C          61.0526   84.4686   12.0256 C.ar    1  UNL1        0.0742
     33 C          60.4761   85.3666   11.1065 C.ar    1  UNL1        0.0906
     34 C          59.0165   89.6262    6.5024 C.2     1  UNL1        0.2257
     35 O          57.8351   89.5319    6.0683 O.2     1  UNL1       -0.2749
     36 N          59.5000   88.6672    7.4634 N.am    1  UNL1       -0.2760
     37 C          60.2858   89.1071    8.6259 C.3     1  UNL1        0.1148
     38 C          61.3402   88.0573    8.9763 C.3     1  UNL1        0.1123
     39 N          60.7175   86.7337    9.0459 N.pl3   1  UNL1       -0.3041
     40 C          59.9446   86.2837    7.8850 C.3     1  UNL1        0.1123
     41 C          58.8918   87.3311    7.5177 C.3     1  UNL1        0.1148
     42 C          59.1799   91.6518    5.0167 C.3     1  UNL1        0.0101
     43 C          59.8885   90.7634    6.0372 C.3     1  UNL1        0.0853
     44 C          59.0840   85.9086   11.3572 C.3     1  UNL1        0.4199
     45 F          59.0953   87.2917   11.3551 F       1  UNL1       -0.1658
     46 F          58.6250   85.4579   12.5801 F       1  UNL1       -0.1658
     47 F          58.2003   85.4943   10.3752 F       1  UNL1       -0.1658
@<TRIPOS>BOND
     1    42    43    1
     2    43    34    1
     3    34    35    2
     4    34    36   am
     5    36    37    1
     6    37    38    1
     7    38    39    1
     8    39    28    1
     9    28    29   ar
    10    29    30   ar
    11    30    31   ar
    12    31     1    1
    13     1     2    1
    14     2     3    2
    15     2     4    1
    16     4     5    2
    17     5     6    1
    18     6     7   ar
    19     7     8   ar
    20     8     9   ar
    21     9    10   ar
    22    10    11   ar
    23    11    12   ar
    24    12    16    1
    25    16    17   ar
    26    17    18   ar
    27    18    19   ar
    28    19    20   ar
    29    20    26    1
    30    26    27    1
    31    20    21   ar
    32    21    22   ar
    33    22    23   ar
    34    23    24   ar
    35    24    25   ar
    36    12    13   ar
    37    13    14   ar
    38    14    15   ar
    39    31    32   ar
    40    32    33   ar
    41    33    44    1
    42    44    45    1
    43    44    46    1
    44    44    47    1
    45    39    40    1
    46    40    41    1
    47    41    36    1
    48    33    28   ar
    49    15     1    1
    50    15     6   ar
    51    14     9   ar
    52    25    16   ar
    53    24    19   ar
@<TRIPOS>MOLECULE
*****
 47 53 0 0 0
SMALL
GASTEIGER

@<TRIPOS>ATOM
      1 N          62.9457   83.0246   12.6017 N.am    1  UNL1       -0.0905
      2 C          63.1520   81.7448   12.1365 C.2     1  UNL1        0.4229
      3 O          63.0778   81.4852   10.9029 O.2     1  UNL1       -0.2135
      4 C          63.4035   80.6958   13.0181 C.2     1  UNL1        0.1157
      5 C          63.3760   80.9253   14.3836 C.2     1  UNL1        0.0173
      6 C          63.1951   82.2212   14.8664 C.ar    1  UNL1        0.0828
      7 C          63.1032   82.4426   16.2438 C.ar    1  UNL1        0.1047
      8 N          62.9447   83.6973   16.7243 N.ar    1  UNL1       -0.2434
      9 C          62.9423   84.7829   15.9122 C.ar    1  UNL1        0.0870
     10 C          62.8503   86.0552   16.4845 C.ar    1  UNL1        0.0193
     11 C          62.9727   87.1952   15.6930 C.ar    1  UNL1        0.0016
     12 C          63.2453   87.0784   14.3226 C.ar    1  UNL1        0.0018
     13 C          63.3390   85.7965   13.7517 C.ar    1  UNL1        0.0075
     14 C          63.0899   84.6307   14.5090 C.ar    1  UNL1        0.0810
     15 C          63.0837   83.3064   13.9567 C.ar    1  UNL1        0.2297
     16 C          63.4293   88.2881   13.4778 C.ar    1  UNL1        0.0192
     17 C          64.2717   89.3282   13.9037 C.ar    1  UNL1        0.0989
     18 N          64.4512   90.4328   13.1349 N.ar    1  UNL1       -0.2408
     19 C          63.8311   90.5840   11.9354 C.ar    1  UNL1        0.1151
     20 C          64.0494   91.7425   11.1737 C.ar    1  UNL1        0.1562
     21 C          63.3952   91.8818    9.9338 C.ar    1  UNL1        0.0385
     22 C          62.5404   90.8782    9.4680 C.ar    1  UNL1        0.0032
     23 C          62.3263   89.7250   10.2263 C.ar    1  UNL1        0.0017
     24 C          62.9699   89.5698   11.4614 C.ar    1  UNL1        0.0207
     25 C          62.7746   88.4218   12.2416 C.ar    1  UNL1        0.0031
     26 O          64.9174   92.7254   11.6767 O.3     1  UNL1       -0.4699
     27 C          65.9683   93.3312   10.9315 C.3     1  UNL1        0.2525
     28 C          61.2386   85.8394    9.8954 C.ar    1  UNL1        0.0522
     29 C          62.4411   85.1873    9.5855 C.ar    1  UNL1        0.0206
     30 C          62.9894   84.2540   10.4646 C.ar    1  UNL1        0.0703
     31 C          62.3523   83.9661   11.6782 C.ar    1  UNL1        0.2271
     32 C          61.1536   84.6235   12.0005 C.ar    1  UNL1        0.0742
     33 C          60.5612   85.5310   11.1009 C.ar    1  UNL1        0.0906
     34 C          58.9801   89.7183    6.4718 C.2     1  UNL1        0.2257
     35 O          57.7892   89.6328    6.0625 O.2     1  UNL1       -0.2749
     36 N          59.4768   88.7551    7.4218 N.am    1  UNL1       -0.2760
     37 C          60.2899   89.1884    8.5678 C.3     1  UNL1        0.1148
     38 C          61.3438   88.1308    8.8954 C.3     1  UNL1        0.1123
     39 N          60.7133   86.8117    8.9772 N.pl3   1  UNL1       -0.3041
     40 C          59.9129   86.3681    7.8325 C.3     1  UNL1        0.1123
     41 C          58.8602   87.4234    7.4880 C.3     1  UNL1        0.1148
     42 C          59.1226   91.7514    4.9941 C.3     1  UNL1        0.0101
     43 C          59.8503   90.8495    5.9891 C.3     1  UNL1        0.0853
     44 C          59.2370   86.1787   11.4494 C.3     1  UNL1        0.4199
     45 F          59.3610   87.5563   11.4647 F       1  UNL1       -0.1658
     46 F          58.8222   85.7441   12.6937 F       1  UNL1       -0.1658
     47 F          58.2612   85.8552   10.5220 F       1  UNL1       -0.1658
@<TRIPOS>BOND
     1    42    43    1
     2    43    34    1
     3    34    35    2
     4    34    36   am
     5    36    37    1
     6    37    38    1
     7    38    39    1
     8    39    28    1
     9    28    29   ar
    10    29    30   ar
    11    30    31   ar
    12    31     1    1
    13     1     2    1
    14     2     3    2
    15     2     4    1
    16     4     5    2
    17     5     6    1
    18     6     7   ar
    19     7     8   ar
    20     8     9   ar
    21     9    10   ar
    22    10    11   ar
    23    11    12   ar
    24    12    16    1
    25    16    17   ar
    26    17    18   ar
    27    18    19   ar
    28    19    20   ar
    29    20    26    1
    30    26    27    1
    31    20    21   ar
    32    21    22   ar
    33    22    23   ar
    34    23    24   ar
    35    24    25   ar
    36    12    13   ar
    37    13    14   ar
    38    14    15   ar
    39    31    32   ar
    40    32    33   ar
    41    33    44    1
    42    44    45    1
    43    44    46    1
    44    44    47    1
    45    39    40    1
    46    40    41    1
    47    41    36    1
    48    33    28   ar
    49    15     1    1
    50    15     6   ar
    51    14     9   ar
    52    25    16   ar
    53    24    19   ar
@<TRIPOS>MOLECULE
*****
 47 53 0 0 0
SMALL
GASTEIGER

@<TRIPOS>ATOM
      1 N          60.9402   82.1925   12.8000 N.am    1  UNL1       -0.0905
      2 C          60.7579   81.4723   13.9597 C.2     1  UNL1        0.4229
      3 O          60.8425   82.0318   15.0886 O.2     1  UNL1       -0.2135
      4 C          60.5199   80.1002   13.9189 C.2     1  UNL1        0.1157
      5 C          60.5368   79.4365   12.7035 C.2     1  UNL1        0.0173
      6 C          60.6932   80.1583   11.5204 C.ar    1  UNL1        0.0828
      7 C          60.7747   79.4815   10.2997 C.ar    1  UNL1        0.1047
      8 N          60.9095   80.1720    9.1442 N.ar    1  UNL1       -0.2434
      9 C          60.8975   81.5273    9.1113 C.ar    1  UNL1        0.0870
     10 C          60.9652   82.1743    7.8737 C.ar    1  UNL1        0.0193
     11 C          60.8273   83.5583    7.7927 C.ar    1  UNL1        0.0016
     12 C          60.5635   84.3111    8.9459 C.ar    1  UNL1        0.0018
     13 C          60.4943   83.6556   10.1883 C.ar    1  UNL1        0.0075
     14 C          60.7594   82.2739   10.3102 C.ar    1  UNL1        0.0810
     15 C          60.7907   81.5747   11.5629 C.ar    1  UNL1        0.2297
     16 C          60.3632   85.7821    8.8646 C.ar    1  UNL1        0.0192
     17 C          60.6715   86.6009    9.9635 C.ar    1  UNL1        0.0989
     18 N          60.4988   87.9459    9.8950 N.ar    1  UNL1       -0.2408
     19 C          60.0235   88.5550    8.7773 C.ar    1  UNL1        0.1151
     20 C          59.8642   89.9493    8.7518 C.ar    1  UNL1        0.1562
     21 C          59.3676   90.5619    7.5844 C.ar    1  UNL1        0.0385
     22 C          59.0386   89.7906    6.4656 C.ar    1  UNL1        0.0032
     23 C          59.2001   88.4036    6.4920 C.ar    1  UNL1        0.0017
     24 C          59.6939   87.7780    7.6447 C.ar    1  UNL1        0.0207
     25 C          59.8678   86.3882    7.6976 C.ar    1  UNL1        0.0031
     26 O          60.2086   90.6874    9.8960 O.3     1  UNL1       -0.4699
     27 C          59.5457   90.5848   11.1517 C.3     1  UNL1        0.2525
     28 C          62.6838   86.0552   13.2480 C.ar    1  UNL1        0.0522
     29 C          63.4491   84.9735   12.7882 C.ar    1  UNL1        0.0206
     30 C          62.8728   83.7142   12.6261 C.ar    1  UNL1        0.0703
     31 C          61.5221   83.5095   12.9353 C.ar    1  UNL1        0.2271
     32 C          60.7521   84.5854   13.4069 C.ar    1  UNL1        0.0742
     33 C          61.3068   85.8743   13.5280 C.ar    1  UNL1        0.0906
     34 C          64.9383   91.1644   14.0729 C.2     1  UNL1        0.2257
     35 O          64.4000   92.2112   13.6176 O.2     1  UNL1       -0.2749
     36 N          64.2711   89.8964   13.9186 N.am    1  UNL1       -0.2760
     37 C          64.2113   88.9437   15.0371 C.3     1  UNL1        0.1148
     38 C          64.2800   87.5099   14.5117 C.3     1  UNL1        0.1123
     39 N          63.3149   87.3338   13.4246 N.pl3   1  UNL1       -0.3041
     40 C          63.3781   88.2715   12.3002 C.3     1  UNL1        0.1123
     41 C          63.3204   89.7114   12.8140 C.3     1  UNL1        0.1148
     42 C          66.3716   92.5645   15.5969 C.3     1  UNL1        0.0101
     43 C          66.2517   91.2644   14.8044 C.3     1  UNL1        0.0853
     44 C          60.4359   87.0279   13.9812 C.3     1  UNL1        0.4199
     45 F          60.9468   87.5963   15.1341 F       1  UNL1       -0.1658
     46 F          59.1546   86.5724   14.2261 F       1  UNL1       -0.1658
     47 F          60.3742   88.0188   13.0161 F       1  UNL1       -0.1658
@<TRIPOS>BOND
     1    42    43    1
     2    43    34    1
     3    34    35    2
     4    34    36   am
     5    36    37    1
     6    37    38    1
     7    38    39    1
     8    39    28    1
     9    28    29   ar
    10    29    30   ar
    11    30    31   ar
    12    31     1    1
    13     1     2    1
    14     2     3    2
    15     2     4    1
    16     4     5    2
    17     5     6    1
    18     6     7   ar
    19     7     8   ar
    20     8     9   ar
    21     9    10   ar
    22    10    11   ar
    23    11    12   ar
    24    12    16    1
    25    16    17   ar
    26    17    18   ar
    27    18    19   ar
    28    19    20   ar
    29    20    26    1
    30    26    27    1
    31    20    21   ar
    32    21    22   ar
    33    22    23   ar
    34    23    24   ar
    35    24    25   ar
    36    12    13   ar
    37    13    14   ar
    38    14    15   ar
    39    31    32   ar
    40    32    33   ar
    41    33    44    1
    42    44    45    1
    43    44    46    1
    44    44    47    1
    45    39    40    1
    46    40    41    1
    47    41    36    1
    48    33    28   ar
    49    15     1    1
    50    15     6   ar
    51    14     9   ar
    52    25    16   ar
    53    24    19   ar
@<TRIPOS>MOLECULE
*****
 47 53 0 0 0
SMALL
GASTEIGER

@<TRIPOS>ATOM
      1 N          59.5952   81.7934   12.6373 N.am    1  UNL1       -0.0905
      2 C          59.0502   81.0919   13.6898 C.2     1  UNL1        0.4229
      3 O          58.8494   81.6504   14.8044 O.2     1  UNL1       -0.2135
      4 C          58.7480   79.7376   13.5658 C.2     1  UNL1        0.1157
      5 C          59.0639   79.0682   12.3952 C.2     1  UNL1        0.0173
      6 C          59.5908   79.7728   11.3131 C.ar    1  UNL1        0.0828
      7 C          59.9690   79.0862   10.1554 C.ar    1  UNL1        0.1047
      8 N          60.4655   79.7611    9.0932 N.ar    1  UNL1       -0.2434
      9 C          60.5479   81.1143    9.0761 C.ar    1  UNL1        0.0870
     10 C          61.0004   81.7496    7.9157 C.ar    1  UNL1        0.0193
     11 C          60.9775   83.1392    7.8176 C.ar    1  UNL1        0.0016
     12 C          60.4482   83.9128    8.8604 C.ar    1  UNL1        0.0018
     13 C          59.9924   83.2692   10.0249 C.ar    1  UNL1        0.0075
     14 C          60.1258   81.8739   10.1980 C.ar    1  UNL1        0.0810
     15 C          59.7606   81.1804   11.3998 C.ar    1  UNL1        0.2297
     16 C          60.3710   85.3932    8.7456 C.ar    1  UNL1        0.0192
     17 C          59.4272   85.9895    7.8932 C.ar    1  UNL1        0.0989
     18 N          59.3450   87.3407    7.7883 N.ar    1  UNL1       -0.2408
     19 C          60.1620   88.1687    8.4906 C.ar    1  UNL1        0.1151
     20 C          60.0382   89.5599    8.3521 C.ar    1  UNL1        0.1562
     21 C          60.8963   90.4016    9.0869 C.ar    1  UNL1        0.0385
     22 C          61.8579   89.8577    9.9437 C.ar    1  UNL1        0.0032
     23 C          61.9779   88.4731   10.0821 C.ar    1  UNL1        0.0017
     24 C          61.1318   87.6213    9.3595 C.ar    1  UNL1        0.0207
     25 C          61.2292   86.2283    9.4812 C.ar    1  UNL1        0.0031
     26 O          59.0578   90.0654    7.4826 O.3     1  UNL1       -0.4699
     27 C          59.2231   90.2072    6.0758 C.3     1  UNL1        0.2525
     28 C          61.3609   85.5480   13.6102 C.ar    1  UNL1        0.0522
     29 C          62.0734   84.3536   13.7919 C.ar    1  UNL1        0.0206
     30 C          61.5003   83.1272   13.4571 C.ar    1  UNL1        0.0703
     31 C          60.1968   83.0714   12.9476 C.ar    1  UNL1        0.2271
     32 C          59.4730   84.2624   12.7734 C.ar    1  UNL1        0.0742
     33 C          60.0561   85.5122   13.0595 C.ar    1  UNL1        0.0906
     34 C          63.5713   90.5670   14.9484 C.2     1  UNL1        0.2257
     35 O          63.9714   91.3753   14.0654 O.2     1  UNL1       -0.2749
     36 N          62.9254   89.3416   14.5510 N.am    1  UNL1       -0.2760
     37 C          61.7166   88.8757   15.2467 C.3     1  UNL1        0.1148
     38 C          61.7033   87.3486   15.3137 C.3     1  UNL1        0.1123
     39 N          61.9734   86.7921   13.9864 N.pl3   1  UNL1       -0.3041
     40 C          63.1839   87.2418   13.2936 C.3     1  UNL1        0.1123
     41 C          63.2142   88.7700   13.2288 C.3     1  UNL1        0.1148
     42 C          64.5611   92.1900   16.5987 C.3     1  UNL1        0.0101
     43 C          63.7415   90.9159   16.4041 C.3     1  UNL1        0.0853
     44 C          59.2727   86.7833   12.8041 C.3     1  UNL1        0.4199
     45 F          58.6611   87.2168   13.9665 F       1  UNL1       -0.1658
     46 F          58.3093   86.5480   11.8419 F       1  UNL1       -0.1658
     47 F          60.0995   87.8011   12.3599 F       1  UNL1       -0.1658
@<TRIPOS>BOND
     1    42    43    1
     2    43    34    1
     3    34    35    2
     4    34    36   am
     5    36    37    1
     6    37    38    1
     7    38    39    1
     8    39    28    1
     9    28    29   ar
    10    29    30   ar
    11    30    31   ar
    12    31     1    1
    13     1     2    1
    14     2     3    2
    15     2     4    1
    16     4     5    2
    17     5     6    1
    18     6     7   ar
    19     7     8   ar
    20     8     9   ar
    21     9    10   ar
    22    10    11   ar
    23    11    12   ar
    24    12    16    1
    25    16    17   ar
    26    17    18   ar
    27    18    19   ar
    28    19    20   ar
    29    20    26    1
    30    26    27    1
    31    20    21   ar
    32    21    22   ar
    33    22    23   ar
    34    23    24   ar
    35    24    25   ar
    36    12    13   ar
    37    13    14   ar
    38    14    15   ar
    39    31    32   ar
    40    32    33   ar
    41    33    44    1
    42    44    45    1
    43    44    46    1
    44    44    47    1
    45    39    40    1
    46    40    41    1
    47    41    36    1
    48    33    28   ar
    49    15     1    1
    50    15     6   ar
    51    14     9   ar
    52    25    16   ar
    53    24    19   ar
