@<TRIPOS>MOLECULE
*****
 39 43 0 0 0
SMALL
GASTEIGER

@<TRIPOS>ATOM
      1 C         -22.5718   -8.5528  -10.1936 C.2     1  UNL1        0.2506
      2 O         -23.7310   -8.9795   -9.9403 O.2     1  UNL1       -0.2699
      3 N         -22.3132   -7.8621  -11.4325 N.am    1  UNL1       -0.2679
      4 C         -21.4108   -6.7067  -11.4526 C.3     1  UNL1        0.1412
      5 C         -20.0617   -7.1094  -12.0404 C.3     1  UNL1        0.2268
      6 O         -20.2063   -8.1352  -13.0201 O.3     1  UNL1       -0.4738
      7 C         -21.0750   -8.0212  -14.1077 C.ar    1  UNL1        0.1391
      8 C         -20.5167   -7.9979  -15.3866 C.ar    1  UNL1        0.0368
      9 C         -21.3229   -7.8463  -16.5106 C.ar    1  UNL1        0.0061
     10 C         -22.7137   -7.7392  -16.3794 C.ar    1  UNL1        0.0340
     11 C         -23.2964   -7.8272  -15.0941 C.ar    1  UNL1        0.1391
     12 C         -22.4813   -7.9389  -13.9439 C.ar    1  UNL1        0.0656
     13 C         -23.1679   -8.1331  -12.5965 C.3     1  UNL1        0.1266
     14 C         -23.5392   -7.5159  -17.5904 C.ar    1  UNL1        0.0044
     15 C         -24.2034   -6.2739  -17.7844 C.ar    1  UNL1        0.0017
     16 C         -24.9878   -6.0489  -18.9312 C.ar    1  UNL1        0.0206
     17 C         -25.0912   -7.0814  -19.8578 C.ar    1  UNL1        0.0985
     18 N         -25.7815   -7.0860  -21.0123 N.ar    1  UNL1       -0.2241
     19 C         -25.5374   -8.3291  -21.5051 C.ar    1  UNL1        0.1750
     20 N         -24.7360   -9.0783  -20.7101 N.ar    1  UNL1       -0.3349
     21 C         -24.4636   -8.2747  -19.6755 C.ar    1  UNL1        0.0757
     22 C         -23.6794   -8.5402  -18.5567 C.ar    1  UNL1        0.0186
     23 H         -24.4082  -10.0566  -20.8708 H       1  UNL1        0.1675
     24 C         -20.3120   -9.4550   -9.5207 C.ar    1  UNL1        0.0503
     25 C         -19.3038   -9.5602   -8.5405 C.ar    1  UNL1        0.0328
     26 C         -19.4841   -9.0165   -7.2629 C.ar    1  UNL1        0.1069
     27 C         -20.6745   -8.3532   -6.9528 C.ar    1  UNL1        0.0186
     28 C         -21.6787   -8.2309   -7.9120 C.ar    1  UNL1        0.0071
     29 C         -21.5029   -8.7594   -9.1987 C.ar    1  UNL1        0.0667
     30 S         -18.2028   -9.1505   -6.0626 S.O2    1  UNL1        0.0105
     31 C         -18.9246   -9.4118   -4.4588 C.3     1  UNL1        0.1816
     32 O         -17.3005  -10.3046   -6.3990 O.2     1  UNL1       -0.1686
     33 O         -17.3871   -7.8881   -6.0499 O.2     1  UNL1       -0.1686
     34 N         -20.1565  -10.0739  -10.8181 N.pl3   1  UNL1       -0.3325
     35 H         -19.7933   -9.5068  -11.6162 H       1  UNL1        0.1468
     36 C         -21.4004  -11.5780  -12.3061 C.3     1  UNL1        0.0229
     37 C         -20.4586  -11.4747  -11.1118 C.3     1  UNL1        0.0871
     38 O         -24.6884   -7.8184  -14.9447 O.3     1  UNL1       -0.4716
     39 C         -25.3747   -6.7216  -14.3525 C.3     1  UNL1        0.2525
@<TRIPOS>BOND
     1    36    37    1
     2    37    34    1
     3    34    24    1
     4    24    25   ar
     5    25    26   ar
     6    26    30    1
     7    30    31    1
     8    30    32    2
     9    30    33    2
    10    26    27   ar
    11    27    28   ar
    12    28    29   ar
    13    29     1    1
    14     1     2    2
    15     1     3   am
    16     3     4    1
    17     4     5    1
    18     5     6    1
    19     6     7    1
    20     7     8   ar
    21     8     9   ar
    22     9    10   ar
    23    10    14    1
    24    14    15   ar
    25    15    16   ar
    26    16    17   ar
    27    17    18   ar
    28    18    19   ar
    29    19    20   ar
    30    20    21   ar
    31    21    22   ar
    32    10    11   ar
    33    11    38    1
    34    38    39    1
    35    11    12   ar
    36    12    13    1
    37    29    24   ar
    38    13     3    1
    39    12     7   ar
    40    22    14   ar
    41    21    17   ar
    42    34    35    1
    43    20    23    1
@<TRIPOS>MOLECULE
*****
 39 43 0 0 0
SMALL
GASTEIGER

@<TRIPOS>ATOM
      1 C         -21.7715   -8.3444   -9.3540 C.2     1  UNL1        0.2506
      2 O         -22.5592   -8.2856   -8.3711 O.2     1  UNL1       -0.2699
      3 N         -22.0848   -7.6384  -10.5714 N.am    1  UNL1       -0.2679
      4 C         -21.0190   -6.9741  -11.3281 C.3     1  UNL1        0.1412
      5 C         -20.6587   -7.8026  -12.5576 C.3     1  UNL1        0.2268
      6 O         -21.7914   -8.5083  -13.0597 O.3     1  UNL1       -0.4738
      7 C         -22.9971   -7.8750  -13.3691 C.ar    1  UNL1        0.1391
      8 C         -23.4143   -7.8850  -14.7009 C.ar    1  UNL1        0.0368
      9 C         -24.5856   -7.2383  -15.0829 C.ar    1  UNL1        0.0061
     10 C         -25.3809   -6.5858  -14.1317 C.ar    1  UNL1        0.0340
     11 C         -25.0028   -6.6245  -12.7698 C.ar    1  UNL1        0.1391
     12 C         -23.7926   -7.2434  -12.3793 C.ar    1  UNL1        0.0656
     13 C         -23.4889   -7.3439  -10.8886 C.3     1  UNL1        0.1266
     14 C         -26.5894   -5.8532  -14.5795 C.ar    1  UNL1        0.0044
     15 C         -26.4628   -4.6007  -15.2403 C.ar    1  UNL1        0.0017
     16 C         -27.6024   -3.8967  -15.6725 C.ar    1  UNL1        0.0206
     17 C         -28.8474   -4.4665  -15.4264 C.ar    1  UNL1        0.0985
     18 N         -30.0570   -3.9734  -15.7474 N.ar    1  UNL1       -0.2241
     19 C         -30.9059   -4.9239  -15.2744 C.ar    1  UNL1        0.1750
     20 N         -30.2748   -5.9668  -14.6832 N.ar    1  UNL1       -0.3349
     21 C         -28.9763   -5.6616  -14.7889 C.ar    1  UNL1        0.0757
     22 C         -27.8771   -6.3905  -14.3442 C.ar    1  UNL1        0.0186
     23 H         -30.7053   -6.8123  -14.2472 H       1  UNL1        0.1675
     24 C         -19.6619   -8.9726   -8.1178 C.ar    1  UNL1        0.0503
     25 C         -18.5245   -9.8011   -8.0263 C.ar    1  UNL1        0.0328
     26 C         -18.2375  -10.7401   -9.0244 C.ar    1  UNL1        0.1069
     27 C         -19.0906  -10.8668  -10.1240 C.ar    1  UNL1        0.0186
     28 C         -20.2251  -10.0631  -10.2268 C.ar    1  UNL1        0.0071
     29 C         -20.5294   -9.1293   -9.2261 C.ar    1  UNL1        0.0667
     30 S         -16.8177  -11.7714   -8.8778 S.O2    1  UNL1        0.0105
     31 C         -16.4030  -11.9601   -7.1592 C.3     1  UNL1        0.1816
     32 O         -17.0979  -13.1216   -9.4759 O.2     1  UNL1       -0.1686
     33 O         -15.6625  -11.1494   -9.6110 O.2     1  UNL1       -0.1686
     34 N         -19.9242   -7.9559   -7.1238 N.pl3   1  UNL1       -0.3325
     35 H         -20.7077   -7.2820   -7.2743 H       1  UNL1        0.1468
     36 C         -19.8273   -8.5921   -4.7553 C.3     1  UNL1        0.0229
     37 C         -19.1721   -7.7974   -5.8792 C.3     1  UNL1        0.0871
     38 O         -25.8284   -6.0625  -11.7886 O.3     1  UNL1       -0.4716
     39 C         -26.8328   -6.8215  -11.1254 C.3     1  UNL1        0.2525
@<TRIPOS>BOND
     1    36    37    1
     2    37    34    1
     3    34    24    1
     4    24    25   ar
     5    25    26   ar
     6    26    30    1
     7    30    31    1
     8    30    32    2
     9    30    33    2
    10    26    27   ar
    11    27    28   ar
    12    28    29   ar
    13    29     1    1
    14     1     2    2
    15     1     3   am
    16     3     4    1
    17     4     5    1
    18     5     6    1
    19     6     7    1
    20     7     8   ar
    21     8     9   ar
    22     9    10   ar
    23    10    14    1
    24    14    15   ar
    25    15    16   ar
    26    16    17   ar
    27    17    18   ar
    28    18    19   ar
    29    19    20   ar
    30    20    21   ar
    31    21    22   ar
    32    10    11   ar
    33    11    38    1
    34    38    39    1
    35    11    12   ar
    36    12    13    1
    37    29    24   ar
    38    13     3    1
    39    12     7   ar
    40    22    14   ar
    41    21    17   ar
    42    34    35    1
    43    20    23    1
@<TRIPOS>MOLECULE
*****
 39 43 0 0 0
SMALL
GASTEIGER

@<TRIPOS>ATOM
      1 C         -22.0129   -8.5324   -9.5703 C.2     1  UNL1        0.2506
      2 O         -22.8254   -8.4998   -8.6067 O.2     1  UNL1       -0.2699
      3 N         -22.2759   -7.7628  -10.7608 N.am    1  UNL1       -0.2679
      4 C         -21.1744   -7.0910  -11.4571 C.3     1  UNL1        0.1412
      5 C         -20.8006   -7.8700  -12.7146 C.3     1  UNL1        0.2268
      6 O         -21.9357   -8.5229  -13.2788 O.3     1  UNL1       -0.4738
      7 C         -23.1171   -7.8459  -13.5894 C.ar    1  UNL1        0.1391
      8 C         -23.4979   -7.7834  -14.9306 C.ar    1  UNL1        0.0368
      9 C         -24.6426   -7.0903  -15.3121 C.ar    1  UNL1        0.0061
     10 C         -25.4478   -6.4632  -14.3522 C.ar    1  UNL1        0.0340
     11 C         -25.1080   -6.5748  -12.9842 C.ar    1  UNL1        0.1391
     12 C         -23.9240   -7.2413  -12.5920 C.ar    1  UNL1        0.0656
     13 C         -23.6635   -7.4187  -11.1003 C.3     1  UNL1        0.1266
     14 C         -26.6258   -5.6804  -14.7963 C.ar    1  UNL1        0.0044
     15 C         -26.4485   -4.4615  -15.5064 C.ar    1  UNL1        0.0017
     16 C         -27.5589   -3.7106  -15.9356 C.ar    1  UNL1        0.0206
     17 C         -28.8263   -4.2005  -15.6369 C.ar    1  UNL1        0.0985
     18 N         -30.0152   -3.6520  -15.9454 N.ar    1  UNL1       -0.2241
     19 C         -30.9019   -4.5358  -15.4159 C.ar    1  UNL1        0.1750
     20 N         -30.3133   -5.5906  -14.8024 N.ar    1  UNL1       -0.3349
     21 C         -29.0034   -5.3628  -14.9522 C.ar    1  UNL1        0.0757
     22 C         -27.9343   -6.1358  -14.5086 C.ar    1  UNL1        0.0186
     23 H         -30.7777   -6.3945  -14.3244 H       1  UNL1        0.1675
     24 C         -20.5415  -10.4441  -10.3147 C.ar    1  UNL1        0.0503
     25 C         -19.3257  -11.1461  -10.1828 C.ar    1  UNL1        0.0328
     26 C         -18.3970  -10.7956   -9.1955 C.ar    1  UNL1        0.1069
     27 C         -18.6707   -9.7316   -8.3318 C.ar    1  UNL1        0.0186
     28 C         -19.8631   -9.0196   -8.4532 C.ar    1  UNL1        0.0071
     29 C         -20.7938   -9.3533   -9.4473 C.ar    1  UNL1        0.0667
     30 S         -16.8806  -11.6808   -9.0622 S.O2    1  UNL1        0.0105
     31 C         -16.5175  -11.9700   -7.3459 C.3     1  UNL1        0.1816
     32 O         -16.9880  -12.9973   -9.7795 O.2     1  UNL1       -0.1686
     33 O         -15.7712  -10.8809   -9.6855 O.2     1  UNL1       -0.1686
     34 N         -21.5317  -10.8464  -11.2883 N.pl3   1  UNL1       -0.3325
     35 H         -22.4585  -10.3653  -11.3057 H       1  UNL1        0.1468
     36 C         -22.4540  -11.8593  -13.3248 C.3     1  UNL1        0.0229
     37 C         -21.3327  -11.8913  -12.2925 C.3     1  UNL1        0.0871
     38 O         -25.9464   -6.0386  -11.9995 O.3     1  UNL1       -0.4716
     39 C         -26.9144   -6.8316  -11.3221 C.3     1  UNL1        0.2525
@<TRIPOS>BOND
     1    36    37    1
     2    37    34    1
     3    34    24    1
     4    24    25   ar
     5    25    26   ar
     6    26    30    1
     7    30    31    1
     8    30    32    2
     9    30    33    2
    10    26    27   ar
    11    27    28   ar
    12    28    29   ar
    13    29     1    1
    14     1     2    2
    15     1     3   am
    16     3     4    1
    17     4     5    1
    18     5     6    1
    19     6     7    1
    20     7     8   ar
    21     8     9   ar
    22     9    10   ar
    23    10    14    1
    24    14    15   ar
    25    15    16   ar
    26    16    17   ar
    27    17    18   ar
    28    18    19   ar
    29    19    20   ar
    30    20    21   ar
    31    21    22   ar
    32    10    11   ar
    33    11    38    1
    34    38    39    1
    35    11    12   ar
    36    12    13    1
    37    29    24   ar
    38    13     3    1
    39    12     7   ar
    40    22    14   ar
    41    21    17   ar
    42    34    35    1
    43    20    23    1
@<TRIPOS>MOLECULE
*****
 39 43 0 0 0
SMALL
GASTEIGER

@<TRIPOS>ATOM
      1 C         -26.4065   -5.6291  -15.1499 C.2     1  UNL1        0.2506
      2 O         -25.8202   -5.8044  -16.2523 O.2     1  UNL1       -0.2699
      3 N         -25.7435   -5.9774  -13.9179 N.am    1  UNL1       -0.2679
      4 C         -25.8989   -5.1244  -12.7356 C.3     1  UNL1        0.1412
      5 C         -26.8664   -5.7719  -11.7495 C.3     1  UNL1        0.2268
      6 O         -26.7962   -7.1947  -11.8098 O.3     1  UNL1       -0.4738
      7 C         -25.5955   -7.8960  -11.6791 C.ar    1  UNL1        0.1391
      8 C         -25.4531   -8.7427  -10.5787 C.ar    1  UNL1        0.0368
      9 C         -24.2673   -9.4396  -10.3680 C.ar    1  UNL1        0.0061
     10 C         -23.2029   -9.3227  -11.2716 C.ar    1  UNL1        0.0340
     11 C         -23.3591   -8.5191  -12.4245 C.ar    1  UNL1        0.1391
     12 C         -24.5450   -7.7748  -12.6240 C.ar    1  UNL1        0.0656
     13 C         -24.6971   -7.0088  -13.9335 C.3     1  UNL1        0.1266
     14 C         -21.9310  -10.0287  -10.9861 C.ar    1  UNL1        0.0044
     15 C         -21.6712  -11.2988  -11.5700 C.ar    1  UNL1        0.0017
     16 C         -20.4664  -11.9779  -11.3088 C.ar    1  UNL1        0.0206
     17 C         -19.5489  -11.3660  -10.4608 C.ar    1  UNL1        0.0985
     18 N         -18.3465  -11.8299  -10.0756 N.ar    1  UNL1       -0.2241
     19 C         -17.8903  -10.8443   -9.2581 C.ar    1  UNL1        0.1750
     20 N         -18.7528   -9.8078   -9.1272 N.ar    1  UNL1       -0.3349
     21 C         -19.7937  -10.1538   -9.8935 C.ar    1  UNL1        0.0757
     22 C         -20.9712   -9.4482  -10.1236 C.ar    1  UNL1        0.0186
     23 H         -18.6303   -8.9404   -8.5589 H       1  UNL1        0.1675
     24 C         -28.1404   -4.0361  -16.0607 C.ar    1  UNL1        0.0503
     25 C         -29.4727   -3.5744  -16.0470 C.ar    1  UNL1        0.0328
     26 C         -30.4004   -4.0842  -15.1306 C.ar    1  UNL1        0.1069
     27 C         -30.0073   -5.0693  -14.2205 C.ar    1  UNL1        0.0186
     28 C         -28.6969   -5.5450  -14.2256 C.ar    1  UNL1        0.0071
     29 C         -27.7635   -5.0514  -15.1482 C.ar    1  UNL1        0.0667
     30 S         -32.0612   -3.4994  -15.1447 S.O2    1  UNL1        0.0105
     31 C         -32.3130   -2.4107  -13.7617 C.3     1  UNL1        0.1816
     32 O         -32.3348   -2.7564  -16.4224 O.2     1  UNL1       -0.1686
     33 O         -33.0082   -4.6627  -15.0510 O.2     1  UNL1       -0.1686
     34 N         -27.1634   -3.4636  -16.9597 N.pl3   1  UNL1       -0.3325
     35 H         -26.3322   -2.9690  -16.5658 H       1  UNL1        0.1468
     36 C         -28.3124   -2.5957  -18.9473 C.3     1  UNL1        0.0229
     37 C         -27.2346   -3.5356  -18.4190 C.3     1  UNL1        0.0871
     38 O         -22.3471   -8.4605  -13.3902 O.3     1  UNL1       -0.4716
     39 C         -21.2280   -7.5920  -13.2556 C.3     1  UNL1        0.2525
@<TRIPOS>BOND
     1    36    37    1
     2    37    34    1
     3    34    24    1
     4    24    25   ar
     5    25    26   ar
     6    26    30    1
     7    30    31    1
     8    30    32    2
     9    30    33    2
    10    26    27   ar
    11    27    28   ar
    12    28    29   ar
    13    29     1    1
    14     1     2    2
    15     1     3   am
    16     3     4    1
    17     4     5    1
    18     5     6    1
    19     6     7    1
    20     7     8   ar
    21     8     9   ar
    22     9    10   ar
    23    10    14    1
    24    14    15   ar
    25    15    16   ar
    26    16    17   ar
    27    17    18   ar
    28    18    19   ar
    29    19    20   ar
    30    20    21   ar
    31    21    22   ar
    32    10    11   ar
    33    11    38    1
    34    38    39    1
    35    11    12   ar
    36    12    13    1
    37    29    24   ar
    38    13     3    1
    39    12     7   ar
    40    22    14   ar
    41    21    17   ar
    42    34    35    1
    43    20    23    1
@<TRIPOS>MOLECULE
*****
 39 43 0 0 0
SMALL
GASTEIGER

@<TRIPOS>ATOM
      1 C         -26.5928   -7.8542  -12.4347 C.2     1  UNL1        0.2506
      2 O         -27.1675   -8.1758  -11.3594 O.2     1  UNL1       -0.2699
      3 N         -25.3364   -8.4652  -12.7907 N.am    1  UNL1       -0.2679
      4 C         -25.0637   -8.8197  -14.1871 C.3     1  UNL1        0.1412
      5 C         -24.1087   -7.8033  -14.8057 C.3     1  UNL1        0.2268
      6 O         -23.2061   -7.2790  -13.8343 O.3     1  UNL1       -0.4738
      7 C         -22.4166   -8.0954  -13.0215 C.ar    1  UNL1        0.1391
      8 C         -21.0311   -8.0159  -13.1697 C.ar    1  UNL1        0.0368
      9 C         -20.1889   -8.8305  -12.4190 C.ar    1  UNL1        0.0061
     10 C         -20.7169   -9.7285  -11.4821 C.ar    1  UNL1        0.0340
     11 C         -22.1152   -9.7714  -11.2764 C.ar    1  UNL1        0.1391
     12 C         -22.9802   -8.9774  -12.0646 C.ar    1  UNL1        0.0656
     13 C         -24.4672   -8.9892  -11.7282 C.3     1  UNL1        0.1266
     14 C         -19.7974  -10.6266  -10.7434 C.ar    1  UNL1        0.0044
     15 C         -19.7363  -12.0100  -11.0656 C.ar    1  UNL1        0.0017
     16 C         -18.8656  -12.8723  -10.3732 C.ar    1  UNL1        0.0206
     17 C         -18.0768  -12.3245   -9.3668 C.ar    1  UNL1        0.0985
     18 N         -17.1844  -12.9567   -8.5835 N.ar    1  UNL1       -0.2241
     19 C         -16.7173  -11.9567   -7.7899 C.ar    1  UNL1        0.1750
     20 N         -17.2798  -10.7521   -8.0505 N.ar    1  UNL1       -0.3349
     21 C         -18.1347  -11.0029   -9.0487 C.ar    1  UNL1        0.0757
     22 C         -18.9813  -10.1153   -9.7065 C.ar    1  UNL1        0.0186
     23 H         -17.0878   -9.8402   -7.5794 H       1  UNL1        0.1675
     24 C         -26.5691   -5.6766  -13.7118 C.ar    1  UNL1        0.0503
     25 C         -27.2172   -4.8031  -14.6091 C.ar    1  UNL1        0.0328
     26 C         -28.5061   -5.0824  -15.0793 C.ar    1  UNL1        0.1069
     27 C         -29.1599   -6.2451  -14.6625 C.ar    1  UNL1        0.0186
     28 C         -28.5312   -7.1255  -13.7833 C.ar    1  UNL1        0.0071
     29 C         -27.2352   -6.8625  -13.3173 C.ar    1  UNL1        0.0667
     30 S         -29.2864   -3.9808  -16.2100 S.O2    1  UNL1        0.0105
     31 C         -28.0609   -3.2870  -17.2954 C.3     1  UNL1        0.1816
     32 O         -30.3136   -4.7188  -17.0222 O.2     1  UNL1       -0.1686
     33 O         -29.9717   -2.8789  -15.4516 O.2     1  UNL1       -0.1686
     34 N         -25.2664   -5.3573  -13.1719 N.pl3   1  UNL1       -0.3325
     35 H         -24.4374   -5.3448  -13.8069 H       1  UNL1        0.1468
     36 C         -23.5065   -4.9673  -11.5062 C.3     1  UNL1        0.0229
     37 C         -25.0066   -5.0236  -11.7715 C.3     1  UNL1        0.0871
     38 O         -22.6604  -10.5906  -10.2805 O.3     1  UNL1       -0.4716
     39 C         -23.0527  -10.0750   -9.0136 C.3     1  UNL1        0.2525
@<TRIPOS>BOND
     1    36    37    1
     2    37    34    1
     3    34    24    1
     4    24    25   ar
     5    25    26   ar
     6    26    30    1
     7    30    31    1
     8    30    32    2
     9    30    33    2
    10    26    27   ar
    11    27    28   ar
    12    28    29   ar
    13    29     1    1
    14     1     2    2
    15     1     3   am
    16     3     4    1
    17     4     5    1
    18     5     6    1
    19     6     7    1
    20     7     8   ar
    21     8     9   ar
    22     9    10   ar
    23    10    14    1
    24    14    15   ar
    25    15    16   ar
    26    16    17   ar
    27    17    18   ar
    28    18    19   ar
    29    19    20   ar
    30    20    21   ar
    31    21    22   ar
    32    10    11   ar
    33    11    38    1
    34    38    39    1
    35    11    12   ar
    36    12    13    1
    37    29    24   ar
    38    13     3    1
    39    12     7   ar
    40    22    14   ar
    41    21    17   ar
    42    34    35    1
    43    20    23    1
@<TRIPOS>MOLECULE
*****
 39 43 0 0 0
SMALL
GASTEIGER

@<TRIPOS>ATOM
      1 C         -20.3130   -8.4433  -10.3373 C.2     1  UNL1        0.2506
      2 O         -19.6728   -7.7356  -11.1614 O.2     1  UNL1       -0.2699
      3 N         -21.6880   -8.7887  -10.5998 N.am    1  UNL1       -0.2679
      4 C         -22.1851  -10.1256  -10.2604 C.3     1  UNL1        0.1412
      5 C         -23.0251  -10.0618   -8.9884 C.3     1  UNL1        0.2268
      6 O         -23.7014   -8.8117   -8.8736 O.3     1  UNL1       -0.4738
      7 C         -24.5107   -8.2970   -9.8887 C.ar    1  UNL1        0.1391
      8 C         -25.8710   -8.1390   -9.6192 C.ar    1  UNL1        0.0368
      9 C         -26.7391   -7.6688  -10.5998 C.ar    1  UNL1        0.0061
     10 C         -26.2580   -7.3217  -11.8691 C.ar    1  UNL1        0.0340
     11 C         -24.8720   -7.4155  -12.1333 C.ar    1  UNL1        0.1391
     12 C         -23.9896   -7.9320  -11.1562 C.ar    1  UNL1        0.0656
     13 C         -22.4956   -7.9131  -11.4600 C.3     1  UNL1        0.1266
     14 C         -27.2171   -6.8835  -12.9111 C.ar    1  UNL1        0.0044
     15 C         -28.2907   -7.7318  -13.2973 C.ar    1  UNL1        0.0017
     16 C         -29.2094   -7.3261  -14.2835 C.ar    1  UNL1        0.0206
     17 C         -29.0256   -6.0754  -14.8643 C.ar    1  UNL1        0.0985
     18 N         -29.7741   -5.4917  -15.8174 N.ar    1  UNL1       -0.2241
     19 C         -29.1471   -4.3006  -16.0067 C.ar    1  UNL1        0.1750
     20 N         -28.0578   -4.1317  -15.2190 N.ar    1  UNL1       -0.3349
     21 C         -27.9967   -5.2612  -14.5042 C.ar    1  UNL1        0.0757
     22 C         -27.0654   -5.6226  -13.5350 C.ar    1  UNL1        0.0186
     23 H         -27.4165   -3.3086  -15.1807 H       1  UNL1        0.1675
     24 C         -18.8652  -10.1116   -9.1149 C.ar    1  UNL1        0.0503
     25 C         -18.1823  -10.4725   -7.9352 C.ar    1  UNL1        0.0328
     26 C         -18.2771   -9.6859   -6.7808 C.ar    1  UNL1        0.1069
     27 C         -19.0516   -8.5228   -6.7954 C.ar    1  UNL1        0.0186
     28 C         -19.7262   -8.1448   -7.9554 C.ar    1  UNL1        0.0071
     29 C         -19.6269   -8.9176   -9.1210 C.ar    1  UNL1        0.0667
     30 S         -17.4026  -10.1530   -5.3255 S.O2    1  UNL1        0.0105
     31 C         -16.8316   -8.6921   -4.4883 C.3     1  UNL1        0.1816
     32 O         -18.3046  -10.9334   -4.4107 O.2     1  UNL1       -0.1686
     33 O         -16.2283  -11.0149   -5.6955 O.2     1  UNL1       -0.1686
     34 N         -18.8241  -10.9569  -10.2872 N.pl3   1  UNL1       -0.3325
     35 H         -18.7811  -10.5184  -11.2340 H       1  UNL1        0.1468
     36 C         -19.7379  -12.9772  -11.3394 C.3     1  UNL1        0.0229
     37 C         -18.8206  -12.4194  -10.2570 C.3     1  UNL1        0.0871
     38 O         -24.3536   -6.9856  -13.3607 O.3     1  UNL1       -0.4716
     39 C         -24.0706   -7.8950  -14.4179 C.3     1  UNL1        0.2525
@<TRIPOS>BOND
     1    36    37    1
     2    37    34    1
     3    34    24    1
     4    24    25   ar
     5    25    26   ar
     6    26    30    1
     7    30    31    1
     8    30    32    2
     9    30    33    2
    10    26    27   ar
    11    27    28   ar
    12    28    29   ar
    13    29     1    1
    14     1     2    2
    15     1     3   am
    16     3     4    1
    17     4     5    1
    18     5     6    1
    19     6     7    1
    20     7     8   ar
    21     8     9   ar
    22     9    10   ar
    23    10    14    1
    24    14    15   ar
    25    15    16   ar
    26    16    17   ar
    27    17    18   ar
    28    18    19   ar
    29    19    20   ar
    30    20    21   ar
    31    21    22   ar
    32    10    11   ar
    33    11    38    1
    34    38    39    1
    35    11    12   ar
    36    12    13    1
    37    29    24   ar
    38    13     3    1
    39    12     7   ar
    40    22    14   ar
    41    21    17   ar
    42    34    35    1
    43    20    23    1
@<TRIPOS>MOLECULE
*****
 39 43 0 0 0
SMALL
GASTEIGER

@<TRIPOS>ATOM
      1 C         -26.0874   -5.5759  -12.7071 C.2     1  UNL1        0.2506
      2 O         -26.5291   -5.0760  -11.6371 O.2     1  UNL1       -0.2699
      3 N         -25.0853   -6.6114  -12.6586 N.am    1  UNL1       -0.2679
      4 C         -25.1436   -7.7321  -13.6022 C.3     1  UNL1        0.1412
      5 C         -24.0995   -7.5447  -14.6988 C.3     1  UNL1        0.2268
      6 O         -22.9485   -6.8598  -14.2099 O.3     1  UNL1       -0.4738
      7 C         -22.2421   -7.2836  -13.0821 C.ar    1  UNL1        0.1391
      8 C         -20.9216   -7.6993  -13.2597 C.ar    1  UNL1        0.0368
      9 C         -20.1750   -8.1708  -12.1843 C.ar    1  UNL1        0.0061
     10 C         -20.7285   -8.2133  -10.8979 C.ar    1  UNL1        0.0340
     11 C         -22.0429   -7.7338  -10.6940 C.ar    1  UNL1        0.1391
     12 C         -22.8226   -7.2924  -11.7882 C.ar    1  UNL1        0.0656
     13 C         -24.1927   -6.6915  -11.4943 C.3     1  UNL1        0.1266
     14 C         -19.9291   -8.7791   -9.7850 C.ar    1  UNL1        0.0044
     15 C         -19.9329   -8.1506   -8.5098 C.ar    1  UNL1        0.0017
     16 C         -19.1802   -8.6796   -7.4446 C.ar    1  UNL1        0.0206
     17 C         -18.4348   -9.8290   -7.6865 C.ar    1  UNL1        0.0985
     18 N         -17.6496  -10.4985   -6.8236 N.ar    1  UNL1       -0.2241
     19 C         -17.1714  -11.5209   -7.5812 C.ar    1  UNL1        0.1750
     20 N         -17.6249  -11.5061   -8.8577 N.ar    1  UNL1       -0.3349
     21 C         -18.4214  -10.4321   -8.9061 C.ar    1  UNL1        0.0757
     22 C         -19.1497   -9.9428   -9.9866 C.ar    1  UNL1        0.0186
     23 H         -17.4026  -12.1794   -9.6243 H       1  UNL1        0.1675
     24 C         -27.9546   -5.3698  -14.3937 C.ar    1  UNL1        0.0503
     25 C         -28.4231   -4.8242  -15.6066 C.ar    1  UNL1        0.0328
     26 C         -27.5842   -4.0510  -16.4182 C.ar    1  UNL1        0.1069
     27 C         -26.2665   -3.8075  -16.0213 C.ar    1  UNL1        0.0186
     28 C         -25.7886   -4.3305  -14.8206 C.ar    1  UNL1        0.0071
     29 C         -26.6242   -5.0945  -13.9937 C.ar    1  UNL1        0.0667
     30 S         -28.1996   -3.3706  -17.9212 S.O2    1  UNL1        0.0105
     31 C         -29.9291   -3.7533  -18.0752 C.3     1  UNL1        0.1816
     32 O         -28.0152   -1.8788  -17.9248 O.2     1  UNL1       -0.1686
     33 O         -27.4478   -3.9524  -19.0853 O.2     1  UNL1       -0.1686
     34 N         -28.7971   -6.2244  -13.5872 N.pl3   1  UNL1       -0.3325
     35 H         -29.5748   -5.8018  -13.0330 H       1  UNL1        0.1468
     36 C         -28.5415   -8.1079  -12.0345 C.3     1  UNL1        0.0229
     37 C         -28.6578   -7.6775  -13.4923 C.3     1  UNL1        0.0871
     38 O         -22.5847   -7.6770   -9.4042 O.3     1  UNL1       -0.4716
     39 C         -23.3977   -8.7220   -8.8830 C.3     1  UNL1        0.2525
@<TRIPOS>BOND
     1    36    37    1
     2    37    34    1
     3    34    24    1
     4    24    25   ar
     5    25    26   ar
     6    26    30    1
     7    30    31    1
     8    30    32    2
     9    30    33    2
    10    26    27   ar
    11    27    28   ar
    12    28    29   ar
    13    29     1    1
    14     1     2    2
    15     1     3   am
    16     3     4    1
    17     4     5    1
    18     5     6    1
    19     6     7    1
    20     7     8   ar
    21     8     9   ar
    22     9    10   ar
    23    10    14    1
    24    14    15   ar
    25    15    16   ar
    26    16    17   ar
    27    17    18   ar
    28    18    19   ar
    29    19    20   ar
    30    20    21   ar
    31    21    22   ar
    32    10    11   ar
    33    11    38    1
    34    38    39    1
    35    11    12   ar
    36    12    13    1
    37    29    24   ar
    38    13     3    1
    39    12     7   ar
    40    22    14   ar
    41    21    17   ar
    42    34    35    1
    43    20    23    1
@<TRIPOS>MOLECULE
*****
 39 43 0 0 0
SMALL
GASTEIGER

@<TRIPOS>ATOM
      1 C         -19.4161   -8.6959  -10.9033 C.2     1  UNL1        0.2506
      2 O         -18.3358   -8.4437  -11.5026 O.2     1  UNL1       -0.2699
      3 N         -20.6235   -8.9204  -11.6585 N.am    1  UNL1       -0.2679
      4 C         -21.5747   -9.9507  -11.2302 C.3     1  UNL1        0.1412
      5 C         -22.7790   -9.3001  -10.5563 C.3     1  UNL1        0.2268
      6 O         -23.0568   -8.0172  -11.1132 O.3     1  UNL1       -0.4738
      7 C         -23.2327   -7.8127  -12.4835 C.ar    1  UNL1        0.1391
      8 C         -24.4849   -7.3787  -12.9211 C.ar    1  UNL1        0.0368
      9 C         -24.7384   -7.1941  -14.2768 C.ar    1  UNL1        0.0061
     10 C         -23.7321   -7.4171  -15.2257 C.ar    1  UNL1        0.0340
     11 C         -22.4409   -7.7938  -14.7896 C.ar    1  UNL1        0.1391
     12 C         -22.1868   -8.0242  -13.4176 C.ar    1  UNL1        0.0656
     13 C         -20.7531   -8.3274  -12.9966 C.3     1  UNL1        0.1266
     14 C         -24.0514   -7.2722  -16.6661 C.ar    1  UNL1        0.0044
     15 C         -24.4793   -6.0180  -17.1813 C.ar    1  UNL1        0.0017
     16 C         -24.7829   -5.8671  -18.5474 C.ar    1  UNL1        0.0206
     17 C         -24.6538   -6.9840  -19.3666 C.ar    1  UNL1        0.0985
     18 N         -24.8895   -7.0678  -20.6883 N.ar    1  UNL1       -0.2241
     19 C         -24.6106   -8.3696  -20.9629 C.ar    1  UNL1        0.1750
     20 N         -24.2187   -9.0792  -19.8774 N.ar    1  UNL1       -0.3349
     21 C         -24.2511   -8.1888  -18.8792 C.ar    1  UNL1        0.0757
     22 C         -23.9417   -8.3827  -17.5361 C.ar    1  UNL1        0.0186
     23 H         -23.9528  -10.0881  -19.8334 H       1  UNL1        0.1675
     24 C         -18.6743   -9.7608   -8.7378 C.ar    1  UNL1        0.0503
     25 C         -18.6643   -9.7351   -7.3280 C.ar    1  UNL1        0.0328
     26 C         -19.3938   -8.7711   -6.6217 C.ar    1  UNL1        0.1069
     27 C         -20.1372   -7.8150   -7.3190 C.ar    1  UNL1        0.0186
     28 C         -20.1515   -7.8188   -8.7130 C.ar    1  UNL1        0.0071
     29 C         -19.4134   -8.7710   -9.4303 C.ar    1  UNL1        0.0667
     30 S         -19.3523   -8.7538   -4.8614 S.O2    1  UNL1        0.0105
     31 C         -18.3914   -7.3633   -4.3096 C.3     1  UNL1        0.1816
     32 O         -20.7481   -8.6458   -4.3143 O.2     1  UNL1       -0.1686
     33 O         -18.7337  -10.0274   -4.3573 O.2     1  UNL1       -0.1686
     34 N         -17.9773  -10.7956   -9.4685 N.pl3   1  UNL1       -0.3325
     35 H         -17.7959  -10.6689  -10.4891 H       1  UNL1        0.1468
     36 C         -15.9636  -12.1354   -9.0514 C.3     1  UNL1        0.0229
     37 C         -17.4748  -12.0355   -8.8770 C.3     1  UNL1        0.0871
     38 O         -21.3939   -7.9304  -15.7089 O.3     1  UNL1       -0.4716
     39 C         -20.9918   -9.2008  -16.2081 C.3     1  UNL1        0.2525
@<TRIPOS>BOND
     1    36    37    1
     2    37    34    1
     3    34    24    1
     4    24    25   ar
     5    25    26   ar
     6    26    30    1
     7    30    31    1
     8    30    32    2
     9    30    33    2
    10    26    27   ar
    11    27    28   ar
    12    28    29   ar
    13    29     1    1
    14     1     2    2
    15     1     3   am
    16     3     4    1
    17     4     5    1
    18     5     6    1
    19     6     7    1
    20     7     8   ar
    21     8     9   ar
    22     9    10   ar
    23    10    14    1
    24    14    15   ar
    25    15    16   ar
    26    16    17   ar
    27    17    18   ar
    28    18    19   ar
    29    19    20   ar
    30    20    21   ar
    31    21    22   ar
    32    10    11   ar
    33    11    38    1
    34    38    39    1
    35    11    12   ar
    36    12    13    1
    37    29    24   ar
    38    13     3    1
    39    12     7   ar
    40    22    14   ar
    41    21    17   ar
    42    34    35    1
    43    20    23    1
@<TRIPOS>MOLECULE
*****
 39 43 0 0 0
SMALL
GASTEIGER

@<TRIPOS>ATOM
      1 C         -21.8614   -9.1601  -13.5171 C.2     1  UNL1        0.2506
      2 O         -21.3785   -9.2119  -14.6807 O.2     1  UNL1       -0.2699
      3 N         -23.2168   -8.7104  -13.3189 N.am    1  UNL1       -0.2679
      4 C         -24.0649   -9.3603  -12.3149 C.3     1  UNL1        0.1412
      5 C         -24.1797   -8.4748  -11.0778 C.3     1  UNL1        0.2268
      6 O         -24.1161   -7.0920  -11.4199 O.3     1  UNL1       -0.4738
      7 C         -24.9509   -6.5140  -12.3788 C.ar    1  UNL1        0.1391
      8 C         -25.8518   -5.5368  -11.9530 C.ar    1  UNL1        0.0368
      9 C         -26.7389   -4.9497  -12.8500 C.ar    1  UNL1        0.0061
     10 C         -26.7263   -5.3120  -14.2034 C.ar    1  UNL1        0.0340
     11 C         -25.7743   -6.2530  -14.6590 C.ar    1  UNL1        0.1391
     12 C         -24.8979   -6.8849  -13.7466 C.ar    1  UNL1        0.0656
     13 C         -23.8264   -7.8122  -14.3092 C.3     1  UNL1        0.1266
     14 C         -27.7254   -4.7145  -15.1213 C.ar    1  UNL1        0.0044
     15 C         -29.1101   -4.9843  -14.9451 C.ar    1  UNL1        0.0017
     16 C         -30.0685   -4.4209  -15.8083 C.ar    1  UNL1        0.0206
     17 C         -29.6124   -3.6003  -16.8349 C.ar    1  UNL1        0.0985
     18 N         -30.3436   -2.9642  -17.7677 N.ar    1  UNL1       -0.2241
     19 C         -29.3996   -2.3211  -18.5047 C.ar    1  UNL1        0.1750
     20 N         -28.1349   -2.5340  -18.0681 N.ar    1  UNL1       -0.3349
     21 C         -28.2883   -3.3429  -17.0133 C.ar    1  UNL1        0.0757
     22 C         -27.3073   -3.8794  -16.1844 C.ar    1  UNL1        0.0186
     23 H         -27.2476   -2.1529  -18.4651 H       1  UNL1        0.1675
     24 C         -20.9156  -10.9398  -11.9967 C.ar    1  UNL1        0.0503
     25 C         -20.0464  -11.2788  -10.9394 C.ar    1  UNL1        0.0328
     26 C         -19.3258  -10.2913  -10.2569 C.ar    1  UNL1        0.1069
     27 C         -19.4607   -8.9512  -10.6299 C.ar    1  UNL1        0.0186
     28 C         -20.3079   -8.5980  -11.6791 C.ar    1  UNL1        0.0071
     29 C         -21.0236   -9.5803  -12.3784 C.ar    1  UNL1        0.0667
     30 S         -18.2369  -10.7443   -8.9493 S.O2    1  UNL1        0.0105
     31 C         -18.6145   -9.7752   -7.5072 C.3     1  UNL1        0.1816
     32 O         -18.3979  -12.2037   -8.6272 O.2     1  UNL1       -0.1686
     33 O         -16.8144  -10.4964   -9.3664 O.2     1  UNL1       -0.1686
     34 N         -21.7121  -11.9490  -12.6583 N.pl3   1  UNL1       -0.3325
     35 H         -22.7485  -11.9493  -12.5302 H       1  UNL1        0.1468
     36 C         -21.6557  -12.7886  -14.9639 C.3     1  UNL1        0.0229
     37 C         -21.1736  -12.9914  -13.5319 C.3     1  UNL1        0.0871
     38 O         -25.6781   -6.5613  -16.0213 O.3     1  UNL1       -0.4716
     39 C         -24.7657   -5.8896  -16.8821 C.3     1  UNL1        0.2525
@<TRIPOS>BOND
     1    36    37    1
     2    37    34    1
     3    34    24    1
     4    24    25   ar
     5    25    26   ar
     6    26    30    1
     7    30    31    1
     8    30    32    2
     9    30    33    2
    10    26    27   ar
    11    27    28   ar
    12    28    29   ar
    13    29     1    1
    14     1     2    2
    15     1     3   am
    16     3     4    1
    17     4     5    1
    18     5     6    1
    19     6     7    1
    20     7     8   ar
    21     8     9   ar
    22     9    10   ar
    23    10    14    1
    24    14    15   ar
    25    15    16   ar
    26    16    17   ar
    27    17    18   ar
    28    18    19   ar
    29    19    20   ar
    30    20    21   ar
    31    21    22   ar
    32    10    11   ar
    33    11    38    1
    34    38    39    1
    35    11    12   ar
    36    12    13    1
    37    29    24   ar
    38    13     3    1
    39    12     7   ar
    40    22    14   ar
    41    21    17   ar
    42    34    35    1
    43    20    23    1
