@<TRIPOS>MOLECULE
*****
 53 60 0 0 0
SMALL
GASTEIGER

@<TRIPOS>ATOM
      1 C          62.4577   87.4899   10.7076 C.ar    1  UNL1        0.0043
      2 C          63.1790   86.2851   10.6910 C.ar    1  UNL1        0.0060
      3 C          62.8292   85.2556    9.8208 C.ar    1  UNL1        0.0691
      4 C          61.7520   85.4081    8.9408 C.ar    1  UNL1        0.2270
      5 C          61.0332   86.6138    8.9365 C.ar    1  UNL1        0.0729
      6 C          61.3871   87.6783    9.7890 C.ar    1  UNL1        0.0773
      7 N          61.3632   84.3133    8.0775 N.am    1  UNL1       -0.0905
      8 C          61.9166   84.2851    6.8174 C.2     1  UNL1        0.4229
      9 O          62.9105   85.0085    6.5292 O.2     1  UNL1       -0.2135
     10 C          61.3658   83.4938    5.8153 C.2     1  UNL1        0.1157
     11 C          60.1978   82.7920    6.0579 C.2     1  UNL1        0.0177
     12 C          59.6282   82.7950    7.3361 C.ar    1  UNL1        0.0868
     13 C          58.3981   82.1550    7.5857 C.ar    1  UNL1        0.1162
     14 I          57.2325   81.2136    6.0828 I       1  UNL1       -0.0210
     15 N          57.8864   82.1452    8.8381 N.ar    1  UNL1       -0.2392
     16 C          58.5467   82.6664    9.8989 C.ar    1  UNL1        0.0875
     17 C          57.9860   82.5366   11.1716 C.ar    1  UNL1        0.0193
     18 C          58.7033   82.9254   12.2995 C.ar    1  UNL1        0.0016
     19 C          60.0150   83.4058   12.1744 C.ar    1  UNL1        0.0018
     20 C          60.5666   83.5597   10.8889 C.ar    1  UNL1        0.0075
     21 C          59.8123   83.2774    9.7257 C.ar    1  UNL1        0.0811
     22 C          60.3001   83.4748    8.3925 C.ar    1  UNL1        0.2300
     23 C          60.8206   83.7133   13.3857 C.ar    1  UNL1        0.0192
     24 C          61.7150   82.7635   13.9126 C.ar    1  UNL1        0.0988
     25 N          62.4482   83.0451   15.0216 N.ar    1  UNL1       -0.2438
     26 C          62.3515   84.2395   15.6611 C.ar    1  UNL1        0.0813
     27 C          63.1204   84.4894   16.8039 C.ar    1  UNL1        0.0191
     28 C          63.0182   85.7200   17.4603 C.ar    1  UNL1        0.0015
     29 C          62.1507   86.7043   16.9766 C.ar    1  UNL1        0.0001
     30 C          61.3813   86.4627   15.8346 C.ar    1  UNL1        0.0015
     31 C          61.4741   85.2306   15.1714 C.ar    1  UNL1        0.0177
     32 C          60.7095   84.9582   14.0296 C.ar    1  UNL1        0.0030
     33 C          63.6186   90.4560   13.5955 C.ar    1  UNL1        0.0534
     34 C          63.6076   90.7647   12.2239 C.ar    1  UNL1        0.0045
     35 C          63.2277   89.8033   11.2831 C.ar    1  UNL1        0.0001
     36 C          62.8554   88.5161   11.6971 C.ar    1  UNL1       -0.0000
     37 C          62.8189   88.2197   13.0675 C.ar    1  UNL1        0.0001
     38 C          63.2049   89.1770   14.0086 C.ar    1  UNL1        0.0045
     39 N          65.2690   92.1924   14.4328 N.am    1  UNL1       -0.3024
     40 C          64.0325   91.4767   14.5858 C.2     1  UNL1        0.2458
     41 O          63.2820   91.7290   15.5682 O.2     1  UNL1       -0.2701
     42 H          65.7308   92.1907   13.4953 H       1  UNL1        0.1497
     43 C          69.5845   91.9238   13.9845 C.3     1  UNL1        0.0896
     44 N          68.2503   92.2692   14.4969 N.3     1  UNL1       -0.2714
     45 C          67.9449   93.6886   14.2115 C.3     1  UNL1        0.0738
     46 C          66.6662   94.1727   14.9348 C.3     1  UNL1        0.0369
     47 C          65.8398   93.0094   15.5126 C.3     1  UNL1        0.0746
     48 C          66.7177   92.1440   16.4453 C.3     1  UNL1        0.0369
     49 C          68.1690   92.0011   15.9441 C.3     1  UNL1        0.0738
     50 C          60.5668   88.9551    9.7306 C.3     1  UNL1        0.4188
     51 F          61.3523   90.0266    9.3409 F       1  UNL1       -0.1659
     52 F          60.0257   89.2681   10.9633 F       1  UNL1       -0.1659
     53 F          59.5458   88.8018    8.8119 F       1  UNL1       -0.1659
@<TRIPOS>BOND
     1    43    44    1
     2    44    45    1
     3    45    46    1
     4    46    47    1
     5    47    39    1
     6    39    40   am
     7    40    41    2
     8    40    33    1
     9    33    34   ar
    10    34    35   ar
    11    35    36   ar
    12    36     1    1
    13     1     2   ar
    14     2     3   ar
    15     3     4   ar
    16     4     7    1
    17     7     8    1
    18     8     9    2
    19     8    10    1
    20    10    11    2
    21    11    12    1
    22    12    13   ar
    23    13    14    1
    24    13    15   ar
    25    15    16   ar
    26    16    17   ar
    27    17    18   ar
    28    18    19   ar
    29    19    23    1
    30    23    24   ar
    31    24    25   ar
    32    25    26   ar
    33    26    27   ar
    34    27    28   ar
    35    28    29   ar
    36    29    30   ar
    37    30    31   ar
    38    31    32   ar
    39    19    20   ar
    40    20    21   ar
    41    21    22   ar
    42     4     5   ar
    43     5     6   ar
    44     6    50    1
    45    50    51    1
    46    50    52    1
    47    50    53    1
    48    36    37   ar
    49    37    38   ar
    50    47    48    1
    51    48    49    1
    52    49    44    1
    53    38    33   ar
    54     6     1   ar
    55    22     7    1
    56    22    12   ar
    57    21    16   ar
    58    32    23   ar
    59    31    26   ar
    60    39    42    1
@<TRIPOS>MOLECULE
*****
 53 60 0 0 0
SMALL
GASTEIGER

@<TRIPOS>ATOM
      1 C          62.5963   85.7934   14.4216 C.ar    1  UNL1        0.0043
      2 C          61.3718   85.6280   13.7540 C.ar    1  UNL1        0.0060
      3 C          60.9483   84.3670   13.3417 C.ar    1  UNL1        0.0691
      4 C          61.7369   83.2385   13.5922 C.ar    1  UNL1        0.2270
      5 C          62.9553   83.3887   14.2729 C.ar    1  UNL1        0.0729
      6 C          63.3898   84.6511   14.7232 C.ar    1  UNL1        0.0773
      7 N          61.3135   81.9399   13.1134 N.am    1  UNL1       -0.0905
      8 C          60.7310   81.0956   14.0314 C.2     1  UNL1        0.4229
      9 O          60.3375   81.5269   15.1510 O.2     1  UNL1       -0.2135
     10 C          60.6033   79.7361   13.7680 C.2     1  UNL1        0.1157
     11 C          61.1442   79.2071   12.6090 C.2     1  UNL1        0.0177
     12 C          61.7265   80.0503   11.6561 C.ar    1  UNL1        0.0868
     13 C          62.3543   79.5268   10.5085 C.ar    1  UNL1        0.1162
     14 I          62.5798   77.4506   10.1314 I       1  UNL1       -0.0210
     15 N          62.8803   80.3661    9.5870 N.ar    1  UNL1       -0.2392
     16 C          62.7659   81.7121    9.6782 C.ar    1  UNL1        0.0875
     17 C          63.2618   82.5024    8.6387 C.ar    1  UNL1        0.0193
     18 C          63.0299   83.8749    8.6261 C.ar    1  UNL1        0.0016
     19 C          62.2544   84.4719    9.6307 C.ar    1  UNL1        0.0018
     20 C          61.7788   83.6768   10.6900 C.ar    1  UNL1        0.0075
     21 C          62.1000   82.3019   10.7799 C.ar    1  UNL1        0.0811
     22 C          61.6965   81.4589   11.8666 C.ar    1  UNL1        0.2300
     23 C          61.9119   85.9169    9.5557 C.ar    1  UNL1        0.0192
     24 C          61.0539   86.3995    8.5506 C.ar    1  UNL1        0.0988
     25 N          60.7444   87.7210    8.4817 N.ar    1  UNL1       -0.2438
     26 C          61.2426   88.6214    9.3682 C.ar    1  UNL1        0.0813
     27 C          60.9037   89.9754    9.2605 C.ar    1  UNL1        0.0191
     28 C          61.4187   90.9001   10.1745 C.ar    1  UNL1        0.0015
     29 C          62.2706   90.4754   11.1989 C.ar    1  UNL1        0.0001
     30 C          62.6117   89.1246   11.3141 C.ar    1  UNL1        0.0015
     31 C          62.1032   88.1902   10.4003 C.ar    1  UNL1        0.0177
     32 C          62.4341   86.8317   10.4868 C.ar    1  UNL1        0.0030
     33 C          63.7844   89.7966   15.4450 C.ar    1  UNL1        0.0534
     34 C          62.8167   89.1240   16.2116 C.ar    1  UNL1        0.0045
     35 C          62.4308   87.8214   15.8830 C.ar    1  UNL1        0.0001
     36 C          63.0032   87.1702   14.7806 C.ar    1  UNL1       -0.0000
     37 C          64.0036   87.8204   14.0431 C.ar    1  UNL1        0.0001
     38 C          64.3854   89.1246   14.3658 C.ar    1  UNL1        0.0045
     39 N          65.2891   91.8167   15.1359 N.am    1  UNL1       -0.3024
     40 C          64.1807   91.1808   15.7931 C.2     1  UNL1        0.2458
     41 O          63.5272   91.8124   16.6682 O.2     1  UNL1       -0.2701
     42 H          65.6319   91.4109   14.2359 H       1  UNL1        0.1497
     43 C          69.3701   91.8946   13.6410 C.3     1  UNL1        0.0896
     44 N          68.1279   92.2629   14.3360 N.3     1  UNL1       -0.2714
     45 C          67.4656   93.3870   13.6378 C.3     1  UNL1        0.0738
     46 C          66.2893   93.9748   14.4522 C.3     1  UNL1        0.0369
     47 C          65.8764   93.0707   15.6277 C.3     1  UNL1        0.0746
     48 C          67.0962   92.7833   16.5328 C.3     1  UNL1        0.0369
     49 C          68.4079   92.6158   15.7396 C.3     1  UNL1        0.0738
     50 C          64.7178   84.7404   15.4544 C.3     1  UNL1        0.4188
     51 F          64.5911   85.4858   16.6144 F       1  UNL1       -0.1659
     52 F          65.6856   85.3490   14.6776 F       1  UNL1       -0.1659
     53 F          65.1405   83.4690   15.7933 F       1  UNL1       -0.1659
@<TRIPOS>BOND
     1    43    44    1
     2    44    45    1
     3    45    46    1
     4    46    47    1
     5    47    39    1
     6    39    40   am
     7    40    41    2
     8    40    33    1
     9    33    34   ar
    10    34    35   ar
    11    35    36   ar
    12    36     1    1
    13     1     2   ar
    14     2     3   ar
    15     3     4   ar
    16     4     7    1
    17     7     8    1
    18     8     9    2
    19     8    10    1
    20    10    11    2
    21    11    12    1
    22    12    13   ar
    23    13    14    1
    24    13    15   ar
    25    15    16   ar
    26    16    17   ar
    27    17    18   ar
    28    18    19   ar
    29    19    23    1
    30    23    24   ar
    31    24    25   ar
    32    25    26   ar
    33    26    27   ar
    34    27    28   ar
    35    28    29   ar
    36    29    30   ar
    37    30    31   ar
    38    31    32   ar
    39    19    20   ar
    40    20    21   ar
    41    21    22   ar
    42     4     5   ar
    43     5     6   ar
    44     6    50    1
    45    50    51    1
    46    50    52    1
    47    50    53    1
    48    36    37   ar
    49    37    38   ar
    50    47    48    1
    51    48    49    1
    52    49    44    1
    53    38    33   ar
    54     6     1   ar
    55    22     7    1
    56    22    12   ar
    57    21    16   ar
    58    32    23   ar
    59    31    26   ar
    60    39    42    1
@<TRIPOS>MOLECULE
*****
 53 60 0 0 0
SMALL
GASTEIGER

@<TRIPOS>ATOM
      1 C          62.4467   88.2002   10.1740 C.ar    1  UNL1        0.0043
      2 C          62.5442   89.4168    9.4793 C.ar    1  UNL1        0.0060
      3 C          63.1535   90.5249   10.0627 C.ar    1  UNL1        0.0691
      4 C          63.6859   90.4420   11.3541 C.ar    1  UNL1        0.2270
      5 C          63.6088   89.2267   12.0526 C.ar    1  UNL1        0.0729
      6 C          63.0215   88.0858   11.4709 C.ar    1  UNL1        0.0773
      7 N          64.2698   91.6133   11.9720 N.am    1  UNL1       -0.0905
      8 C          64.6975   92.6153   11.1306 C.2     1  UNL1        0.4229
      9 O          64.3507   92.6350    9.9166 O.2     1  UNL1       -0.2135
     10 C          65.5610   93.6064   11.5845 C.2     1  UNL1        0.1157
     11 C          66.0672   93.5401   12.8710 C.2     1  UNL1        0.0177
     12 C          65.6332   92.5387   13.7468 C.ar    1  UNL1        0.0868
     13 C          66.1939   92.4036   15.0323 C.ar    1  UNL1        0.1162
     14 I          67.7901   93.6014   15.7542 I       1  UNL1       -0.0210
     15 N          65.7326   91.4473   15.8707 N.ar    1  UNL1       -0.2392
     16 C          64.6876   90.6457   15.5569 C.ar    1  UNL1        0.0875
     17 C          64.2191   89.7435   16.5147 C.ar    1  UNL1        0.0193
     18 C          63.0576   89.0118   16.2835 C.ar    1  UNL1        0.0016
     19 C          62.3185   89.2082   15.1078 C.ar    1  UNL1        0.0018
     20 C          62.8078   90.0986   14.1339 C.ar    1  UNL1        0.0075
     21 C          64.0443   90.7653   14.3011 C.ar    1  UNL1        0.0811
     22 C          64.6209   91.6333   13.3169 C.ar    1  UNL1        0.2300
     23 C          61.0197   88.5113   14.9124 C.ar    1  UNL1        0.0192
     24 C          60.7309   87.3236   15.6091 C.ar    1  UNL1        0.0988
     25 N          59.5445   86.6863   15.4269 N.ar    1  UNL1       -0.2438
     26 C          58.5983   87.1617   14.5763 C.ar    1  UNL1        0.0813
     27 C          57.3904   86.4732   14.4125 C.ar    1  UNL1        0.0191
     28 C          56.4184   86.9650   13.5356 C.ar    1  UNL1        0.0015
     29 C          56.6485   88.1456   12.8224 C.ar    1  UNL1        0.0001
     30 C          57.8514   88.8397   12.9824 C.ar    1  UNL1        0.0015
     31 C          58.8338   88.3528   13.8568 C.ar    1  UNL1        0.0177
     32 C          60.0513   89.0233   14.0311 C.ar    1  UNL1        0.0030
     33 C          60.4056   84.9456    8.2435 C.ar    1  UNL1        0.0534
     34 C          59.6868   85.8857    9.0026 C.ar    1  UNL1        0.0045
     35 C          60.3474   86.9465    9.6288 C.ar    1  UNL1        0.0001
     36 C          61.7381   87.0837    9.5094 C.ar    1  UNL1       -0.0000
     37 C          62.4514   86.1756    8.7134 C.ar    1  UNL1        0.0001
     38 C          61.7939   85.1110    8.0926 C.ar    1  UNL1        0.0045
     39 N          58.6166   83.1457    8.2538 N.am    1  UNL1       -0.3024
     40 C          59.7001   83.8182    7.5915 C.2     1  UNL1        0.2458
     41 O          60.0475   83.4540    6.4345 O.2     1  UNL1       -0.2701
     42 H          58.1554   83.6231    9.0610 H       1  UNL1        0.1497
     43 C          61.1305   80.0360    9.9584 C.3     1  UNL1        0.0896
     44 N          60.0798   80.7214    9.1914 N.3     1  UNL1       -0.2714
     45 C          58.7614   80.5104    9.8293 C.3     1  UNL1        0.0738
     46 C          57.5929   80.9999    8.9418 C.3     1  UNL1        0.0369
     47 C          58.0708   81.8715    7.7662 C.3     1  UNL1        0.0746
     48 C          59.1265   81.1096    6.9328 C.3     1  UNL1        0.0369
     49 C          60.0648   80.2433    7.7971 C.3     1  UNL1        0.0738
     50 C          62.9736   86.8034   12.2830 C.3     1  UNL1        0.4188
     51 F          63.7430   86.9178   13.4285 F       1  UNL1       -0.1659
     52 F          63.4623   85.7285   11.5646 F       1  UNL1       -0.1659
     53 F          61.6678   86.5454   12.6549 F       1  UNL1       -0.1659
@<TRIPOS>BOND
     1    43    44    1
     2    44    45    1
     3    45    46    1
     4    46    47    1
     5    47    39    1
     6    39    40   am
     7    40    41    2
     8    40    33    1
     9    33    34   ar
    10    34    35   ar
    11    35    36   ar
    12    36     1    1
    13     1     2   ar
    14     2     3   ar
    15     3     4   ar
    16     4     7    1
    17     7     8    1
    18     8     9    2
    19     8    10    1
    20    10    11    2
    21    11    12    1
    22    12    13   ar
    23    13    14    1
    24    13    15   ar
    25    15    16   ar
    26    16    17   ar
    27    17    18   ar
    28    18    19   ar
    29    19    23    1
    30    23    24   ar
    31    24    25   ar
    32    25    26   ar
    33    26    27   ar
    34    27    28   ar
    35    28    29   ar
    36    29    30   ar
    37    30    31   ar
    38    31    32   ar
    39    19    20   ar
    40    20    21   ar
    41    21    22   ar
    42     4     5   ar
    43     5     6   ar
    44     6    50    1
    45    50    51    1
    46    50    52    1
    47    50    53    1
    48    36    37   ar
    49    37    38   ar
    50    47    48    1
    51    48    49    1
    52    49    44    1
    53    38    33   ar
    54     6     1   ar
    55    22     7    1
    56    22    12   ar
    57    21    16   ar
    58    32    23   ar
    59    31    26   ar
    60    39    42    1
@<TRIPOS>MOLECULE
*****
 53 60 0 0 0
SMALL
GASTEIGER

@<TRIPOS>ATOM
      1 C          62.7167   86.0293   14.1755 C.ar    1  UNL1        0.0043
      2 C          63.6923   85.0773   13.8376 C.ar    1  UNL1        0.0060
      3 C          63.3309   83.7804   13.4816 C.ar    1  UNL1        0.0691
      4 C          61.9834   83.4048   13.4490 C.ar    1  UNL1        0.2270
      5 C          60.9979   84.3519   13.7690 C.ar    1  UNL1        0.0729
      6 C          61.3397   85.6767   14.1051 C.ar    1  UNL1        0.0773
      7 N          61.6206   82.0407   13.1291 N.am    1  UNL1       -0.0905
      8 C          61.2788   81.2223   14.1819 C.2     1  UNL1        0.4229
      9 O          61.0278   81.7031   15.3222 O.2     1  UNL1       -0.2135
     10 C          61.2469   79.8405   14.0288 C.2     1  UNL1        0.1157
     11 C          61.6462   79.2726   12.8314 C.2     1  UNL1        0.0177
     12 C          61.9823   80.0870   11.7443 C.ar    1  UNL1        0.0868
     13 C          62.4682   79.5331   10.5433 C.ar    1  UNL1        0.1162
     14 I          62.8364   77.4618   10.2644 I       1  UNL1       -0.0210
     15 N          62.7544   80.3413    9.4967 N.ar    1  UNL1       -0.2392
     16 C          62.5225   81.6749    9.5214 C.ar    1  UNL1        0.0875
     17 C          62.7652   82.4225    8.3668 C.ar    1  UNL1        0.0193
     18 C          62.3987   83.7641    8.3072 C.ar    1  UNL1        0.0016
     19 C          61.7376   84.3669    9.3874 C.ar    1  UNL1        0.0018
     20 C          61.5185   83.6178   10.5585 C.ar    1  UNL1        0.0075
     21 C          61.9852   82.2877   10.6794 C.ar    1  UNL1        0.0811
     22 C          61.8460   81.4996   11.8685 C.ar    1  UNL1        0.2300
     23 C          61.2454   85.7658    9.2802 C.ar    1  UNL1        0.0192
     24 C          60.5118   86.1840    8.1548 C.ar    1  UNL1        0.0988
     25 N          60.0653   87.4637    8.0571 N.ar    1  UNL1       -0.2438
     26 C          60.3039   88.3827    9.0285 C.ar    1  UNL1        0.0813
     27 C          59.8311   89.6929    8.8882 C.ar    1  UNL1        0.0191
     28 C          60.0788   90.6367    9.8899 C.ar    1  UNL1        0.0015
     29 C          60.7965   90.2748   11.0342 C.ar    1  UNL1        0.0001
     30 C          61.2698   88.9677   11.1823 C.ar    1  UNL1        0.0015
     31 C          61.0296   88.0149   10.1817 C.ar    1  UNL1        0.0177
     32 C          61.4985   86.7002   10.2998 C.ar    1  UNL1        0.0030
     33 C          64.0674   89.9188   15.4135 C.ar    1  UNL1        0.0534
     34 C          64.1908   89.5167   14.0719 C.ar    1  UNL1        0.0045
     35 C          63.7497   88.2540   13.6661 C.ar    1  UNL1        0.0001
     36 C          63.1808   87.3705   14.5950 C.ar    1  UNL1       -0.0000
     37 C          63.0122   87.7868   15.9237 C.ar    1  UNL1        0.0001
     38 C          63.4587   89.0456   16.3325 C.ar    1  UNL1        0.0045
     39 N          65.4501   92.0089   15.0142 N.am    1  UNL1       -0.3024
     40 C          64.5467   91.2544   15.8383 C.2     1  UNL1        0.2458
     41 O          64.1449   91.7396   16.9315 O.2     1  UNL1       -0.2701
     42 H          65.5464   91.7408   14.0087 H       1  UNL1        0.1497
     43 C          69.4392   91.8555   13.2938 C.3     1  UNL1        0.0896
     44 N          68.2657   92.2851   14.0686 N.3     1  UNL1       -0.2714
     45 C          67.6477   93.4750   13.4428 C.3     1  UNL1        0.0738
     46 C          66.5619   94.1148   14.3396 C.3     1  UNL1        0.0369
     47 C          66.1506   93.2022   15.5091 C.3     1  UNL1        0.0746
     48 C          67.3943   92.8010   16.3347 C.3     1  UNL1        0.0369
     49 C          68.6459   92.5703   15.4640 C.3     1  UNL1        0.0738
     50 C          60.2221   86.6495   14.4387 C.3     1  UNL1        0.4188
     51 F          58.9944   86.1391   14.0523 F       1  UNL1       -0.1659
     52 F          60.3890   87.8575   13.7880 F       1  UNL1       -0.1659
     53 F          60.1973   86.8680   15.8030 F       1  UNL1       -0.1659
@<TRIPOS>BOND
     1    43    44    1
     2    44    45    1
     3    45    46    1
     4    46    47    1
     5    47    39    1
     6    39    40   am
     7    40    41    2
     8    40    33    1
     9    33    34   ar
    10    34    35   ar
    11    35    36   ar
    12    36     1    1
    13     1     2   ar
    14     2     3   ar
    15     3     4   ar
    16     4     7    1
    17     7     8    1
    18     8     9    2
    19     8    10    1
    20    10    11    2
    21    11    12    1
    22    12    13   ar
    23    13    14    1
    24    13    15   ar
    25    15    16   ar
    26    16    17   ar
    27    17    18   ar
    28    18    19   ar
    29    19    23    1
    30    23    24   ar
    31    24    25   ar
    32    25    26   ar
    33    26    27   ar
    34    27    28   ar
    35    28    29   ar
    36    29    30   ar
    37    30    31   ar
    38    31    32   ar
    39    19    20   ar
    40    20    21   ar
    41    21    22   ar
    42     4     5   ar
    43     5     6   ar
    44     6    50    1
    45    50    51    1
    46    50    52    1
    47    50    53    1
    48    36    37   ar
    49    37    38   ar
    50    47    48    1
    51    48    49    1
    52    49    44    1
    53    38    33   ar
    54     6     1   ar
    55    22     7    1
    56    22    12   ar
    57    21    16   ar
    58    32    23   ar
    59    31    26   ar
    60    39    42    1
@<TRIPOS>MOLECULE
*****
 53 60 0 0 0
SMALL
GASTEIGER

@<TRIPOS>ATOM
      1 C          61.7493   86.8014   10.3216 C.ar    1  UNL1        0.0043
      2 C          62.5020   86.0319    9.4196 C.ar    1  UNL1        0.0060
      3 C          62.0203   84.8146    8.9448 C.ar    1  UNL1        0.0691
      4 C          60.7703   84.3390    9.3562 C.ar    1  UNL1        0.2270
      5 C          60.0014   85.1066   10.2451 C.ar    1  UNL1        0.0729
      6 C          60.4573   86.3537   10.7162 C.ar    1  UNL1        0.0773
      7 N          60.3014   83.0484    8.8987 N.am    1  UNL1       -0.0905
      8 C          60.0006   82.9320    7.5605 C.2     1  UNL1        0.4229
      9 O          60.3731   83.8101    6.7332 O.2     1  UNL1       -0.2135
     10 C          59.2381   81.8676    7.0919 C.2     1  UNL1        0.1157
     11 C          58.7006   80.9603    7.9883 C.2     1  UNL1        0.0177
     12 C          59.0070   81.0520    9.3506 C.ar    1  UNL1        0.0868
     13 C          58.4081   80.1899   10.2904 C.ar    1  UNL1        0.1162
     14 I          56.9336   78.7465    9.7943 I       1  UNL1       -0.0210
     15 N          58.7472   80.2788   11.5971 N.ar    1  UNL1       -0.2392
     16 C          59.7073   81.1218   12.0448 C.ar    1  UNL1        0.0875
     17 C          60.0568   81.0879   13.3968 C.ar    1  UNL1        0.0193
     18 C          61.1384   81.8300   13.8628 C.ar    1  UNL1        0.0016
     19 C          61.9189   82.5813   12.9720 C.ar    1  UNL1        0.0018
     20 C          61.5479   82.6338   11.6154 C.ar    1  UNL1        0.0075
     21 C          60.3861   81.9781   11.1443 C.ar    1  UNL1        0.0811
     22 C          59.9261   82.0484    9.7885 C.ar    1  UNL1        0.2300
     23 C          63.1400   83.2817   13.4506 C.ar    1  UNL1        0.0192
     24 C          64.3935   82.6437   13.4147 C.ar    1  UNL1        0.0988
     25 N          65.5081   83.2842   13.8554 N.ar    1  UNL1       -0.2438
     26 C          65.4617   84.5512   14.3428 C.ar    1  UNL1        0.0813
     27 C          66.6317   85.1750   14.7919 C.ar    1  UNL1        0.0191
     28 C          66.5805   86.4794   15.2936 C.ar    1  UNL1        0.0015
     29 C          65.3626   87.1646   15.3459 C.ar    1  UNL1        0.0001
     30 C          64.1904   86.5489   14.8971 C.ar    1  UNL1        0.0015
     31 C          64.2309   85.2399   14.3956 C.ar    1  UNL1        0.0177
     32 C          63.0710   84.5954   13.9463 C.ar    1  UNL1        0.0030
     33 C          63.5090   90.4387   11.7908 C.ar    1  UNL1        0.0534
     34 C          62.9230   90.3974   10.5135 C.ar    1  UNL1        0.0045
     35 C          62.3474   89.2171   10.0346 C.ar    1  UNL1        0.0001
     36 C          62.3509   88.0572   10.8230 C.ar    1  UNL1       -0.0000
     37 C          62.8915   88.1081   12.1162 C.ar    1  UNL1        0.0001
     38 C          63.4732   89.2848   12.5937 C.ar    1  UNL1        0.0045
     39 N          64.8953   92.5301   11.4111 N.am    1  UNL1       -0.3024
     40 C          64.1263   91.6902   12.2874 C.2     1  UNL1        0.2458
     41 O          63.9624   92.0281   13.4919 O.2     1  UNL1       -0.2701
     42 H          64.7871   92.4023   10.3795 H       1  UNL1        0.1497
     43 C          68.5896   92.3521    9.1270 C.3     1  UNL1        0.0896
     44 N          67.5656   92.7576   10.1012 N.3     1  UNL1       -0.2714
     45 C          66.9481   94.0381    9.6906 C.3     1  UNL1        0.0738
     46 C          66.0417   94.6347   10.7928 C.3     1  UNL1        0.0369
     47 C          65.7356   93.6256   11.9143 C.3     1  UNL1        0.0746
     48 C          67.0517   93.0743   12.5088 C.3     1  UNL1        0.0369
     49 C          68.1529   92.8724   11.4483 C.3     1  UNL1        0.0738
     50 C          59.5731   87.1319   11.6748 C.3     1  UNL1        0.4188
     51 F          58.2818   86.6322   11.6682 F       1  UNL1       -0.1659
     52 F          59.4993   88.4677   11.3272 F       1  UNL1       -0.1659
     53 F          60.0796   87.0231   12.9560 F       1  UNL1       -0.1659
@<TRIPOS>BOND
     1    43    44    1
     2    44    45    1
     3    45    46    1
     4    46    47    1
     5    47    39    1
     6    39    40   am
     7    40    41    2
     8    40    33    1
     9    33    34   ar
    10    34    35   ar
    11    35    36   ar
    12    36     1    1
    13     1     2   ar
    14     2     3   ar
    15     3     4   ar
    16     4     7    1
    17     7     8    1
    18     8     9    2
    19     8    10    1
    20    10    11    2
    21    11    12    1
    22    12    13   ar
    23    13    14    1
    24    13    15   ar
    25    15    16   ar
    26    16    17   ar
    27    17    18   ar
    28    18    19   ar
    29    19    23    1
    30    23    24   ar
    31    24    25   ar
    32    25    26   ar
    33    26    27   ar
    34    27    28   ar
    35    28    29   ar
    36    29    30   ar
    37    30    31   ar
    38    31    32   ar
    39    19    20   ar
    40    20    21   ar
    41    21    22   ar
    42     4     5   ar
    43     5     6   ar
    44     6    50    1
    45    50    51    1
    46    50    52    1
    47    50    53    1
    48    36    37   ar
    49    37    38   ar
    50    47    48    1
    51    48    49    1
    52    49    44    1
    53    38    33   ar
    54     6     1   ar
    55    22     7    1
    56    22    12   ar
    57    21    16   ar
    58    32    23   ar
    59    31    26   ar
    60    39    42    1
@<TRIPOS>MOLECULE
*****
 53 60 0 0 0
SMALL
GASTEIGER

@<TRIPOS>ATOM
      1 C          61.0824   86.5089    9.1246 C.ar    1  UNL1        0.0043
      2 C          62.3006   85.9625    8.6890 C.ar    1  UNL1        0.0060
      3 C          62.9797   85.0250    9.4631 C.ar    1  UNL1        0.0691
      4 C          62.4540   84.6061   10.6904 C.ar    1  UNL1        0.2270
      5 C          61.2291   85.1330   11.1293 C.ar    1  UNL1        0.0729
      6 C          60.5119   86.0615   10.3493 C.ar    1  UNL1        0.0773
      7 N          63.1928   83.6714   11.5121 N.am    1  UNL1       -0.0905
      8 C          63.4606   82.4364   10.9662 C.2     1  UNL1        0.4229
      9 O          63.3160   82.2290    9.7291 O.2     1  UNL1       -0.2135
     10 C          63.8524   81.3719   11.7706 C.2     1  UNL1        0.1157
     11 C          63.8912   81.5274   13.1454 C.2     1  UNL1        0.0177
     12 C          63.6377   82.7784   13.7189 C.ar    1  UNL1        0.0868
     13 C          63.5923   82.9414   15.1177 C.ar    1  UNL1        0.1162
     14 I          63.7989   81.3430   16.4983 I       1  UNL1       -0.0210
     15 N          63.3779   84.1685   15.6457 N.ar    1  UNL1       -0.2392
     16 C          63.2764   85.2822   14.8827 C.ar    1  UNL1        0.0875
     17 C          63.1427   86.5212   15.5135 C.ar    1  UNL1        0.0193
     18 C          63.1860   87.6975   14.7704 C.ar    1  UNL1        0.0016
     19 C          63.4134   87.6540   13.3871 C.ar    1  UNL1        0.0018
     20 C          63.5214   86.4030   12.7515 C.ar    1  UNL1        0.0075
     21 C          63.3664   85.1955   13.4722 C.ar    1  UNL1        0.0811
     22 C          63.4040   83.8964   12.8676 C.ar    1  UNL1        0.2300
     23 C          63.5731   88.9131   12.6126 C.ar    1  UNL1        0.0192
     24 C          62.8444   89.1237   11.4275 C.ar    1  UNL1        0.0988
     25 N          62.9939   90.2738   10.7193 N.ar    1  UNL1       -0.2438
     26 C          63.8412   91.2572   11.1189 C.ar    1  UNL1        0.0813
     27 C          63.9708   92.4256   10.3587 C.ar    1  UNL1        0.0191
     28 C          64.8444   93.4360   10.7726 C.ar    1  UNL1        0.0015
     29 C          65.5885   93.2839   11.9468 C.ar    1  UNL1        0.0001
     30 C          65.4627   92.1209   12.7123 C.ar    1  UNL1        0.0015
     31 C          64.5919   91.1004   12.3037 C.ar    1  UNL1        0.0177
     32 C          64.4516   89.9212   13.0468 C.ar    1  UNL1        0.0030
     33 C          59.2530   89.5142    6.6535 C.ar    1  UNL1        0.0534
     34 C          58.9235   88.1578    6.4853 C.ar    1  UNL1        0.0045
     35 C          59.5144   87.1790    7.2893 C.ar    1  UNL1        0.0001
     36 C          60.4471   87.5391    8.2729 C.ar    1  UNL1       -0.0000
     37 C          60.7417   88.8953    8.4756 C.ar    1  UNL1        0.0001
     38 C          60.1574   89.8742    7.6684 C.ar    1  UNL1        0.0045
     39 N          59.3989   91.2248    4.7846 N.am    1  UNL1       -0.3024
     40 C          58.6306   90.5449    5.7907 C.2     1  UNL1        0.2458
     41 O          57.4072   90.8181    5.9335 O.2     1  UNL1       -0.2701
     42 H          60.3056   90.8021    4.4822 H       1  UNL1        0.1497
     43 C          62.5016   92.3588    1.9592 C.3     1  UNL1        0.0896
     44 N          61.2567   92.3527    2.7415 N.3     1  UNL1       -0.2714
     45 C          60.1174   91.9530    1.8861 C.3     1  UNL1        0.0738
     46 C          58.7540   92.1613    2.5862 C.3     1  UNL1        0.0369
     47 C          58.9008   92.4236    4.0960 C.3     1  UNL1        0.0746
     48 C          59.8446   93.6236    4.3390 C.3     1  UNL1        0.0369
     49 C          61.0174   93.6788    3.3393 C.3     1  UNL1        0.0738
     50 C          59.1922   86.5893   10.8846 C.3     1  UNL1        0.4188
     51 F          59.2269   87.9682   11.0053 F       1  UNL1       -0.1659
     52 F          58.9086   86.0735   12.1352 F       1  UNL1       -0.1659
     53 F          58.1757   86.2502   10.0120 F       1  UNL1       -0.1659
@<TRIPOS>BOND
     1    43    44    1
     2    44    45    1
     3    45    46    1
     4    46    47    1
     5    47    39    1
     6    39    40   am
     7    40    41    2
     8    40    33    1
     9    33    34   ar
    10    34    35   ar
    11    35    36   ar
    12    36     1    1
    13     1     2   ar
    14     2     3   ar
    15     3     4   ar
    16     4     7    1
    17     7     8    1
    18     8     9    2
    19     8    10    1
    20    10    11    2
    21    11    12    1
    22    12    13   ar
    23    13    14    1
    24    13    15   ar
    25    15    16   ar
    26    16    17   ar
    27    17    18   ar
    28    18    19   ar
    29    19    23    1
    30    23    24   ar
    31    24    25   ar
    32    25    26   ar
    33    26    27   ar
    34    27    28   ar
    35    28    29   ar
    36    29    30   ar
    37    30    31   ar
    38    31    32   ar
    39    19    20   ar
    40    20    21   ar
    41    21    22   ar
    42     4     5   ar
    43     5     6   ar
    44     6    50    1
    45    50    51    1
    46    50    52    1
    47    50    53    1
    48    36    37   ar
    49    37    38   ar
    50    47    48    1
    51    48    49    1
    52    49    44    1
    53    38    33   ar
    54     6     1   ar
    55    22     7    1
    56    22    12   ar
    57    21    16   ar
    58    32    23   ar
    59    31    26   ar
    60    39    42    1
