@<TRIPOS>MOLECULE
*****
 45 50 0 0 0
SMALL
GASTEIGER

@<TRIPOS>ATOM
      1 C         -64.0298  -51.9567  -23.9373 C.ar    1  UNL1        0.0702
      2 C         -63.0307  -52.4953  -23.1191 C.ar    1  UNL1        0.0191
      3 C         -61.9610  -51.7038  -22.6983 C.ar    1  UNL1        0.0356
      4 C         -61.8806  -50.3624  -23.1149 C.ar    1  UNL1        0.1319
      5 N         -62.8532  -49.8712  -23.9337 N.ar    1  UNL1       -0.2279
      6 C         -63.9055  -50.6221  -24.3527 C.ar    1  UNL1        0.1149
      7 N         -60.7940  -49.5050  -22.6925 N.pl3   1  UNL1       -0.2904
      8 C         -60.8136  -48.8642  -21.3653 C.3     1  UNL1        0.0925
      9 C         -59.7758  -47.7366  -21.2597 C.3     1  UNL1        0.0280
     10 C         -59.7865  -46.8884  -22.5441 C.3     1  UNL1        0.0797
     11 C         -59.4442  -47.7424  -23.7985 C.3     1  UNL1        0.1842
     12 F         -60.2315  -47.3264  -24.8600 F       1  UNL1       -0.2353
     13 C         -59.6482  -49.2524  -23.5805 C.3     1  UNL1        0.1274
     14 C         -58.8325  -45.6864  -22.4029 C.3     1  UNL1        0.2081
     15 O         -59.1919  -44.6355  -23.3018 O.3     1  UNL1       -0.4754
     16 C         -60.1903  -43.6734  -23.0776 C.ar    1  UNL1        0.1388
     17 C         -61.2001  -43.3900  -24.0166 C.ar    1  UNL1        0.0369
     18 C         -62.1653  -42.4201  -23.7387 C.ar    1  UNL1        0.0033
     19 C         -62.1388  -41.7269  -22.5268 C.ar    1  UNL1        0.0066
     20 C         -61.1429  -41.9996  -21.5745 C.ar    1  UNL1        0.0785
     21 C         -60.1736  -42.9785  -21.8615 C.ar    1  UNL1        0.0433
     22 C         -61.1172  -41.2653  -20.2901 C.2     1  UNL1        0.3381
     23 O         -61.4252  -40.0434  -20.2465 O.2     1  UNL1       -0.2451
     24 O         -60.7519  -41.9181  -19.1155 O.3     1  UNL1       -0.4771
     25 H         -60.7310  -41.4248  -18.2310 H       1  UNL1        0.2954
     26 C         -65.7043  -53.8322  -23.5858 C.2     1  UNL1        0.2839
     27 O         -65.1274  -54.2375  -22.5409 O.2     1  UNL1       -0.2665
     28 N         -65.1138  -52.7911  -24.3807 N.am    1  UNL1       -0.2766
     29 H         -65.4336  -52.6889  -25.3706 H       1  UNL1        0.1553
     30 C         -68.5398  -53.6628  -22.1011 C.3     1  UNL1        0.0345
     31 C         -68.2095  -54.3836  -23.3734 C.ar    1  UNL1        0.0202
     32 C         -66.9695  -54.4557  -24.0181 C.ar    1  UNL1        0.1946
     33 O         -67.0727  -55.1824  -25.1167 O.2     1  UNL1       -0.4492
     34 C         -68.3156  -55.5857  -25.2175 C.ar    1  UNL1        0.1452
     35 C         -68.8685  -56.3731  -26.2214 C.ar    1  UNL1        0.0375
     36 C         -70.2354  -56.6891  -26.1352 C.ar    1  UNL1        0.0031
     37 C         -71.0257  -56.2162  -25.0528 C.ar    1  UNL1        0.0002
     38 C         -70.4234  -55.4175  -24.0511 C.ar    1  UNL1        0.0028
     39 C         -69.0640  -55.1235  -24.1682 C.ar    1  UNL1        0.0337
     40 C         -72.4689  -56.5564  -24.9724 C.ar    1  UNL1        0.0000
     41 C         -73.0542  -56.9066  -23.7407 C.ar    1  UNL1        0.0000
     42 C         -74.4133  -57.2274  -23.6682 C.ar    1  UNL1        0.0000
     43 C         -75.2021  -57.2019  -24.8204 C.ar    1  UNL1        0.0000
     44 C         -74.6334  -56.8558  -26.0481 C.ar    1  UNL1        0.0000
     45 C         -73.2748  -56.5350  -26.1267 C.ar    1  UNL1        0.0000
@<TRIPOS>BOND
     1    30    31    1
     2    31    32   ar
     3    32    26    1
     4    26    27    2
     5    26    28   am
     6    28     1    1
     7     1     2   ar
     8     2     3   ar
     9     3     4   ar
    10     4     7    1
    11     7     8    1
    12     8     9    1
    13     9    10    1
    14    10    14    1
    15    14    15    1
    16    15    16    1
    17    16    17   ar
    18    17    18   ar
    19    18    19   ar
    20    19    20   ar
    21    20    22    1
    22    22    23    2
    23    22    24    1
    24    20    21   ar
    25    10    11    1
    26    11    12    1
    27    11    13    1
    28     4     5   ar
    29     5     6   ar
    30    32    33   ar
    31    33    34   ar
    32    34    35   ar
    33    35    36   ar
    34    36    37   ar
    35    37    40    1
    36    40    41   ar
    37    41    42   ar
    38    42    43   ar
    39    43    44   ar
    40    44    45   ar
    41    37    38   ar
    42    38    39   ar
    43    39    31   ar
    44     6     1   ar
    45    39    34   ar
    46    13     7    1
    47    45    40   ar
    48    21    16   ar
    49    28    29    1
    50    24    25    1
@<TRIPOS>MOLECULE
*****
 45 50 0 0 0
SMALL
GASTEIGER

@<TRIPOS>ATOM
      1 C         -64.0777  -51.6550  -24.0778 C.ar    1  UNL1        0.0702
      2 C         -63.0366  -52.1489  -23.2842 C.ar    1  UNL1        0.0191
      3 C         -61.9788  -51.3182  -22.9117 C.ar    1  UNL1        0.0356
      4 C         -61.9533  -49.9824  -23.3526 C.ar    1  UNL1        0.1319
      5 N         -62.9665  -49.5351  -24.1470 N.ar    1  UNL1       -0.2279
      6 C         -64.0081  -50.3247  -24.5189 C.ar    1  UNL1        0.1149
      7 N         -60.8805  -49.0854  -22.9802 N.pl3   1  UNL1       -0.2904
      8 C         -60.6747  -48.7025  -21.5718 C.3     1  UNL1        0.0925
      9 C         -59.7399  -47.4908  -21.4396 C.3     1  UNL1        0.0280
     10 C         -60.0952  -46.4328  -22.4997 C.3     1  UNL1        0.0797
     11 C         -59.9529  -46.9961  -23.9427 C.3     1  UNL1        0.1842
     12 F         -60.9796  -46.4980  -24.7283 F       1  UNL1       -0.2353
     13 C         -59.9744  -48.5342  -24.0002 C.3     1  UNL1        0.1274
     14 C         -59.2408  -45.1655  -22.3023 C.3     1  UNL1        0.2081
     15 O         -59.8552  -44.0300  -22.9143 O.3     1  UNL1       -0.4754
     16 C         -60.5404  -43.0073  -22.2380 C.ar    1  UNL1        0.1388
     17 C         -60.1172  -42.4990  -20.9953 C.ar    1  UNL1        0.0369
     18 C         -60.8412  -41.4827  -20.3689 C.ar    1  UNL1        0.0033
     19 C         -61.9876  -40.9603  -20.9713 C.ar    1  UNL1        0.0066
     20 C         -62.4225  -41.4500  -22.2140 C.ar    1  UNL1        0.0785
     21 C         -61.6877  -42.4742  -22.8393 C.ar    1  UNL1        0.0433
     22 C         -63.6366  -40.8942  -22.8518 C.2     1  UNL1        0.3381
     23 O         -64.2182  -41.5245  -23.7760 O.2     1  UNL1       -0.2451
     24 O         -64.1488  -39.6676  -22.4365 O.3     1  UNL1       -0.4771
     25 H         -64.9792  -39.2782  -22.8663 H       1  UNL1        0.2954
     26 C         -65.6607  -53.5938  -23.6532 C.2     1  UNL1        0.2839
     27 O         -65.0192  -53.9787  -22.6388 O.2     1  UNL1       -0.2665
     28 N         -65.1493  -52.5294  -24.4718 N.am    1  UNL1       -0.2766
     29 H         -65.5200  -52.4376  -25.4448 H       1  UNL1        0.1553
     30 C         -68.4617  -53.4292  -22.1038 C.3     1  UNL1        0.0345
     31 C         -68.1456  -54.1945  -23.3535 C.ar    1  UNL1        0.0202
     32 C         -66.9207  -54.2644  -24.0266 C.ar    1  UNL1        0.1946
     33 O         -67.0334  -55.0385  -25.0913 O.2     1  UNL1       -0.4492
     34 C         -68.2681  -55.4748  -25.1432 C.ar    1  UNL1        0.1452
     35 C         -68.8264  -56.3162  -26.0992 C.ar    1  UNL1        0.0375
     36 C         -70.1825  -56.6604  -25.9646 C.ar    1  UNL1        0.0031
     37 C         -70.9569  -56.1614  -24.8824 C.ar    1  UNL1        0.0002
     38 C         -70.3496  -55.3076  -23.9304 C.ar    1  UNL1        0.0028
     39 C         -69.0012  -54.9869  -24.0948 C.ar    1  UNL1        0.0337
     40 C         -72.3889  -56.5317  -24.7507 C.ar    1  UNL1        0.0000
     41 C         -72.9324  -56.8528  -23.4922 C.ar    1  UNL1        0.0000
     42 C         -74.2810  -57.2020  -23.3713 C.ar    1  UNL1        0.0000
     43 C         -75.1008  -57.2343  -24.5015 C.ar    1  UNL1        0.0000
     44 C         -74.5738  -56.9177  -25.7554 C.ar    1  UNL1        0.0000
     45 C         -73.2258  -56.5686  -25.8824 C.ar    1  UNL1        0.0000
@<TRIPOS>BOND
     1    30    31    1
     2    31    32   ar
     3    32    26    1
     4    26    27    2
     5    26    28   am
     6    28     1    1
     7     1     2   ar
     8     2     3   ar
     9     3     4   ar
    10     4     7    1
    11     7     8    1
    12     8     9    1
    13     9    10    1
    14    10    14    1
    15    14    15    1
    16    15    16    1
    17    16    17   ar
    18    17    18   ar
    19    18    19   ar
    20    19    20   ar
    21    20    22    1
    22    22    23    2
    23    22    24    1
    24    20    21   ar
    25    10    11    1
    26    11    12    1
    27    11    13    1
    28     4     5   ar
    29     5     6   ar
    30    32    33   ar
    31    33    34   ar
    32    34    35   ar
    33    35    36   ar
    34    36    37   ar
    35    37    40    1
    36    40    41   ar
    37    41    42   ar
    38    42    43   ar
    39    43    44   ar
    40    44    45   ar
    41    37    38   ar
    42    38    39   ar
    43    39    31   ar
    44     6     1   ar
    45    39    34   ar
    46    13     7    1
    47    45    40   ar
    48    21    16   ar
    49    28    29    1
    50    24    25    1
@<TRIPOS>MOLECULE
*****
 45 50 0 0 0
SMALL
GASTEIGER

@<TRIPOS>ATOM
      1 C         -64.4638  -52.1704  -24.9255 C.ar    1  UNL1        0.0702
      2 C         -63.9820  -52.3329  -23.6220 C.ar    1  UNL1        0.0191
      3 C         -64.4982  -53.3352  -22.7993 C.ar    1  UNL1        0.0356
      4 C         -65.5204  -54.1738  -23.2802 C.ar    1  UNL1        0.1319
      5 N         -65.9898  -53.9759  -24.5444 N.ar    1  UNL1       -0.2279
      6 C         -65.4998  -53.0092  -25.3642 C.ar    1  UNL1        0.1149
      7 N         -66.0753  -55.2316  -22.4633 N.pl3   1  UNL1       -0.2904
      8 C         -67.0543  -56.1801  -23.0239 C.3     1  UNL1        0.0925
      9 C         -67.7737  -56.9757  -21.9243 C.3     1  UNL1        0.0280
     10 C         -68.1581  -56.0412  -20.7633 C.3     1  UNL1        0.0797
     11 C         -66.9069  -55.3675  -20.1305 C.3     1  UNL1        0.1842
     12 F         -67.2138  -54.0571  -19.8015 F       1  UNL1       -0.2353
     13 C         -65.6761  -55.3805  -21.0548 C.3     1  UNL1        0.1274
     14 C         -68.9816  -56.8050  -19.7080 C.3     1  UNL1        0.2081
     15 O         -69.4369  -55.9275  -18.6764 O.3     1  UNL1       -0.4754
     16 C         -69.0476  -55.9793  -17.3279 C.ar    1  UNL1        0.1388
     17 C         -69.9016  -56.4335  -16.3051 C.ar    1  UNL1        0.0369
     18 C         -69.4593  -56.4601  -14.9811 C.ar    1  UNL1        0.0033
     19 C         -68.1663  -56.0403  -14.6617 C.ar    1  UNL1        0.0066
     20 C         -67.2971  -55.5896  -15.6689 C.ar    1  UNL1        0.0785
     21 C         -67.7498  -55.5657  -17.0010 C.ar    1  UNL1        0.0433
     22 C         -65.9268  -55.1467  -15.3290 C.2     1  UNL1        0.3381
     23 O         -65.7447  -54.1247  -14.6132 O.2     1  UNL1       -0.2451
     24 O         -64.8235  -55.8556  -15.7975 O.3     1  UNL1       -0.4771
     25 H         -63.8812  -55.5611  -15.5707 H       1  UNL1        0.2954
     26 C         -64.0146  -49.7222  -25.4250 C.2     1  UNL1        0.2839
     27 O         -64.7794  -49.3280  -24.5039 O.2     1  UNL1       -0.2665
     28 N         -63.9376  -51.1189  -25.7534 N.am    1  UNL1       -0.2766
     29 H         -63.5517  -51.3822  -26.6885 H       1  UNL1        0.1553
     30 C         -64.1254  -49.2278  -28.5899 C.3     1  UNL1        0.0345
     31 C         -63.2715  -48.5240  -27.5785 C.ar    1  UNL1        0.0202
     32 C         -63.2256  -48.7435  -26.1972 C.ar    1  UNL1        0.1946
     33 O         -62.3501  -47.9269  -25.6385 O.2     1  UNL1       -0.4492
     34 C         -61.8254  -47.1893  -26.5863 C.ar    1  UNL1        0.1452
     35 C         -60.8619  -46.1964  -26.4472 C.ar    1  UNL1        0.0375
     36 C         -60.4375  -45.5216  -27.6049 C.ar    1  UNL1        0.0031
     37 C         -60.9792  -45.8470  -28.8778 C.ar    1  UNL1        0.0002
     38 C         -61.9580  -46.8650  -28.9756 C.ar    1  UNL1        0.0028
     39 C         -62.3559  -47.5145  -27.8060 C.ar    1  UNL1        0.0337
     40 C         -60.5232  -45.1270  -30.0939 C.ar    1  UNL1        0.0000
     41 C         -59.1972  -45.2585  -30.5486 C.ar    1  UNL1        0.0000
     42 C         -58.7704  -44.5786  -31.6935 C.ar    1  UNL1        0.0000
     43 C         -59.6593  -43.7624  -32.3964 C.ar    1  UNL1        0.0000
     44 C         -60.9772  -43.6239  -31.9557 C.ar    1  UNL1        0.0000
     45 C         -61.4093  -44.3007  -30.8110 C.ar    1  UNL1        0.0000
@<TRIPOS>BOND
     1    30    31    1
     2    31    32   ar
     3    32    26    1
     4    26    27    2
     5    26    28   am
     6    28     1    1
     7     1     2   ar
     8     2     3   ar
     9     3     4   ar
    10     4     7    1
    11     7     8    1
    12     8     9    1
    13     9    10    1
    14    10    14    1
    15    14    15    1
    16    15    16    1
    17    16    17   ar
    18    17    18   ar
    19    18    19   ar
    20    19    20   ar
    21    20    22    1
    22    22    23    2
    23    22    24    1
    24    20    21   ar
    25    10    11    1
    26    11    12    1
    27    11    13    1
    28     4     5   ar
    29     5     6   ar
    30    32    33   ar
    31    33    34   ar
    32    34    35   ar
    33    35    36   ar
    34    36    37   ar
    35    37    40    1
    36    40    41   ar
    37    41    42   ar
    38    42    43   ar
    39    43    44   ar
    40    44    45   ar
    41    37    38   ar
    42    38    39   ar
    43    39    31   ar
    44     6     1   ar
    45    39    34   ar
    46    13     7    1
    47    45    40   ar
    48    21    16   ar
    49    28    29    1
    50    24    25    1
@<TRIPOS>MOLECULE
*****
 45 50 0 0 0
SMALL
GASTEIGER

@<TRIPOS>ATOM
      1 C         -63.9040  -51.6182  -24.0839 C.ar    1  UNL1        0.0702
      2 C         -62.8572  -52.1082  -23.2955 C.ar    1  UNL1        0.0191
      3 C         -61.8192  -51.2641  -22.8979 C.ar    1  UNL1        0.0356
      4 C         -61.8194  -49.9185  -23.3082 C.ar    1  UNL1        0.1319
      5 N         -62.8374  -49.4744  -24.0983 N.ar    1  UNL1       -0.2279
      6 C         -63.8601  -50.2770  -24.4943 C.ar    1  UNL1        0.1149
      7 N         -60.7678  -49.0078  -22.9090 N.pl3   1  UNL1       -0.2904
      8 C         -60.7054  -48.4883  -21.5311 C.3     1  UNL1        0.0925
      9 C         -59.7557  -47.2865  -21.4158 C.3     1  UNL1        0.0280
     10 C         -59.9627  -46.3349  -22.6078 C.3     1  UNL1        0.0797
     11 C         -59.6808  -47.0436  -23.9636 C.3     1  UNL1        0.1842
     12 F         -60.6012  -46.6090  -24.9036 F       1  UNL1       -0.2353
     13 C         -59.7406  -48.5790  -23.8714 C.3     1  UNL1        0.1274
     14 C         -59.0984  -45.0697  -22.4425 C.3     1  UNL1        0.2081
     15 O         -59.9128  -43.9106  -22.2561 O.3     1  UNL1       -0.4754
     16 C         -60.7657  -43.3471  -23.2193 C.ar    1  UNL1        0.1388
     17 C         -62.0007  -42.7562  -22.8913 C.ar    1  UNL1        0.0369
     18 C         -62.8078  -42.2140  -23.8932 C.ar    1  UNL1        0.0033
     19 C         -62.3954  -42.2501  -25.2268 C.ar    1  UNL1        0.0066
     20 C         -61.1638  -42.8299  -25.5735 C.ar    1  UNL1        0.0785
     21 C         -60.3556  -43.3742  -24.5583 C.ar    1  UNL1        0.0433
     22 C         -60.7274  -42.8659  -26.9870 C.2     1  UNL1        0.3381
     23 O         -60.7290  -43.9513  -27.6286 O.2     1  UNL1       -0.2451
     24 O         -60.3100  -41.6992  -27.6227 O.3     1  UNL1       -0.4771
     25 H         -60.0093  -41.7128  -28.5899 H       1  UNL1        0.2954
     26 C         -65.5175  -53.5350  -23.6745 C.2     1  UNL1        0.2839
     27 O         -64.9377  -53.8798  -22.6097 O.2     1  UNL1       -0.2665
     28 N         -64.9547  -52.5056  -24.5041 N.am    1  UNL1       -0.2766
     29 H         -65.2678  -52.4526  -25.4999 H       1  UNL1        0.1553
     30 C         -68.3855  -53.3615  -22.2540 C.3     1  UNL1        0.0345
     31 C         -68.0106  -54.1439  -23.4765 C.ar    1  UNL1        0.0202
     32 C         -66.7566  -54.2176  -24.0932 C.ar    1  UNL1        0.1946
     33 O         -66.8182  -55.0082  -25.1499 O.2     1  UNL1       -0.4492
     34 C         -68.0475  -55.4516  -25.2501 C.ar    1  UNL1        0.1452
     35 C         -68.5588  -56.3101  -26.2170 C.ar    1  UNL1        0.0375
     36 C         -69.9180  -56.6592  -26.1376 C.ar    1  UNL1        0.0031
     37 C         -70.7422  -56.1479  -25.0988 C.ar    1  UNL1        0.0002
     38 C         -70.1817  -55.2768  -24.1338 C.ar    1  UNL1        0.0028
     39 C         -68.8287  -54.9517  -24.2429 C.ar    1  UNL1        0.0337
     40 C         -72.1769  -56.5236  -25.0253 C.ar    1  UNL1        0.0000
     41 C         -72.8843  -56.8793  -26.1895 C.ar    1  UNL1        0.0000
     42 C         -74.2355  -57.2316  -26.1174 C.ar    1  UNL1        0.0000
     43 C         -74.8947  -57.2339  -24.8861 C.ar    1  UNL1        0.0000
     44 C         -74.2040  -56.8834  -23.7240 C.ar    1  UNL1        0.0000
     45 C         -72.8530  -56.5293  -23.7903 C.ar    1  UNL1        0.0000
@<TRIPOS>BOND
     1    30    31    1
     2    31    32   ar
     3    32    26    1
     4    26    27    2
     5    26    28   am
     6    28     1    1
     7     1     2   ar
     8     2     3   ar
     9     3     4   ar
    10     4     7    1
    11     7     8    1
    12     8     9    1
    13     9    10    1
    14    10    14    1
    15    14    15    1
    16    15    16    1
    17    16    17   ar
    18    17    18   ar
    19    18    19   ar
    20    19    20   ar
    21    20    22    1
    22    22    23    2
    23    22    24    1
    24    20    21   ar
    25    10    11    1
    26    11    12    1
    27    11    13    1
    28     4     5   ar
    29     5     6   ar
    30    32    33   ar
    31    33    34   ar
    32    34    35   ar
    33    35    36   ar
    34    36    37   ar
    35    37    40    1
    36    40    41   ar
    37    41    42   ar
    38    42    43   ar
    39    43    44   ar
    40    44    45   ar
    41    37    38   ar
    42    38    39   ar
    43    39    31   ar
    44     6     1   ar
    45    39    34   ar
    46    13     7    1
    47    45    40   ar
    48    21    16   ar
    49    28    29    1
    50    24    25    1
@<TRIPOS>MOLECULE
*****
 45 50 0 0 0
SMALL
GASTEIGER

@<TRIPOS>ATOM
      1 C         -64.3698  -52.2713  -24.7210 C.ar    1  UNL1        0.0702
      2 C         -63.7168  -52.5839  -23.5237 C.ar    1  UNL1        0.0191
      3 C         -64.2198  -53.5799  -22.6854 C.ar    1  UNL1        0.0356
      4 C         -65.3994  -54.2594  -23.0404 C.ar    1  UNL1        0.1319
      5 N         -66.0299  -53.9161  -24.1991 N.ar    1  UNL1       -0.2279
      6 C         -65.5564  -52.9525  -25.0323 C.ar    1  UNL1        0.1149
      7 N         -65.9482  -55.3056  -22.2047 N.pl3   1  UNL1       -0.2904
      8 C         -66.6637  -56.4477  -22.8016 C.3     1  UNL1        0.0925
      9 C         -67.4619  -57.2344  -21.7510 C.3     1  UNL1        0.0280
     10 C         -68.1838  -56.2622  -20.8008 C.3     1  UNL1        0.0797
     11 C         -67.1796  -55.3400  -20.0519 C.3     1  UNL1        0.1842
     12 F         -67.7203  -54.0685  -19.9486 F       1  UNL1       -0.2353
     13 C         -65.8062  -55.2496  -20.7412 C.3     1  UNL1        0.1274
     14 C         -69.0792  -57.0384  -19.8155 C.3     1  UNL1        0.2081
     15 O         -68.9552  -56.5205  -18.4897 O.3     1  UNL1       -0.4754
     16 C         -69.9551  -55.8311  -17.7843 C.ar    1  UNL1        0.1388
     17 C         -70.1384  -55.9659  -16.3950 C.ar    1  UNL1        0.0369
     18 C         -71.1520  -55.2561  -15.7484 C.ar    1  UNL1        0.0033
     19 C         -71.9887  -54.4048  -16.4731 C.ar    1  UNL1        0.0066
     20 C         -71.8178  -54.2521  -17.8590 C.ar    1  UNL1        0.0785
     21 C         -70.7941  -54.9706  -18.5038 C.ar    1  UNL1        0.0433
     22 C         -72.7042  -53.3484  -18.6252 C.2     1  UNL1        0.3381
     23 O         -73.8756  -53.7058  -18.9254 O.2     1  UNL1       -0.2451
     24 O         -72.2521  -52.0927  -19.0228 O.3     1  UNL1       -0.4771
     25 H         -72.8507  -51.4663  -19.5476 H       1  UNL1        0.2954
     26 C         -64.0043  -49.8247  -25.2914 C.2     1  UNL1        0.2839
     27 O         -64.8276  -49.4328  -24.4211 O.2     1  UNL1       -0.2665
     28 N         -63.8516  -51.2273  -25.5633 N.am    1  UNL1       -0.2766
     29 H         -63.4115  -51.5060  -26.4695 H       1  UNL1        0.1553
     30 C         -64.1212  -49.3291  -28.4559 C.3     1  UNL1        0.0345
     31 C         -63.2720  -48.6195  -27.4448 C.ar    1  UNL1        0.0202
     32 C         -63.2233  -48.8396  -26.0636 C.ar    1  UNL1        0.1946
     33 O         -62.3536  -48.0167  -25.5050 O.2     1  UNL1       -0.4492
     34 C         -61.8352  -47.2746  -26.4528 C.ar    1  UNL1        0.1452
     35 C         -60.8792  -46.2744  -26.3137 C.ar    1  UNL1        0.0375
     36 C         -60.4608  -45.5957  -27.4712 C.ar    1  UNL1        0.0031
     37 C         -61.0009  -45.9243  -28.7440 C.ar    1  UNL1        0.0002
     38 C         -61.9721  -46.9497  -28.8417 C.ar    1  UNL1        0.0028
     39 C         -62.3641  -47.6029  -27.6722 C.ar    1  UNL1        0.0337
     40 C         -60.5513  -45.2002  -29.9599 C.ar    1  UNL1        0.0000
     41 C         -59.2204  -45.3082  -30.4064 C.ar    1  UNL1        0.0000
     42 C         -58.7996  -44.6244  -31.5512 C.ar    1  UNL1        0.0000
     43 C         -59.6995  -43.8275  -32.2622 C.ar    1  UNL1        0.0000
     44 C         -61.0224  -43.7124  -31.8298 C.ar    1  UNL1        0.0000
     45 C         -61.4485  -44.3932  -30.6853 C.ar    1  UNL1        0.0000
@<TRIPOS>BOND
     1    30    31    1
     2    31    32   ar
     3    32    26    1
     4    26    27    2
     5    26    28   am
     6    28     1    1
     7     1     2   ar
     8     2     3   ar
     9     3     4   ar
    10     4     7    1
    11     7     8    1
    12     8     9    1
    13     9    10    1
    14    10    14    1
    15    14    15    1
    16    15    16    1
    17    16    17   ar
    18    17    18   ar
    19    18    19   ar
    20    19    20   ar
    21    20    22    1
    22    22    23    2
    23    22    24    1
    24    20    21   ar
    25    10    11    1
    26    11    12    1
    27    11    13    1
    28     4     5   ar
    29     5     6   ar
    30    32    33   ar
    31    33    34   ar
    32    34    35   ar
    33    35    36   ar
    34    36    37   ar
    35    37    40    1
    36    40    41   ar
    37    41    42   ar
    38    42    43   ar
    39    43    44   ar
    40    44    45   ar
    41    37    38   ar
    42    38    39   ar
    43    39    31   ar
    44     6     1   ar
    45    39    34   ar
    46    13     7    1
    47    45    40   ar
    48    21    16   ar
    49    28    29    1
    50    24    25    1
@<TRIPOS>MOLECULE
*****
 45 50 0 0 0
SMALL
GASTEIGER

@<TRIPOS>ATOM
      1 C         -64.3205  -52.0929  -24.6116 C.ar    1  UNL1        0.0702
      2 C         -63.5917  -52.4902  -23.4853 C.ar    1  UNL1        0.0191
      3 C         -64.1020  -53.4602  -22.6213 C.ar    1  UNL1        0.0356
      4 C         -65.3639  -54.0271  -22.8774 C.ar    1  UNL1        0.1319
      5 N         -66.0642  -53.6021  -23.9669 N.ar    1  UNL1       -0.2279
      6 C         -65.5856  -52.6620  -24.8236 C.ar    1  UNL1        0.1149
      7 N         -65.9243  -55.0431  -22.0126 N.pl3   1  UNL1       -0.2904
      8 C         -66.1078  -56.4238  -22.4949 C.3     1  UNL1        0.0925
      9 C         -67.0287  -57.2344  -21.5705 C.3     1  UNL1        0.0280
     10 C         -68.2377  -56.3798  -21.1495 C.3     1  UNL1        0.0797
     11 C         -67.7965  -55.0979  -20.3867 C.3     1  UNL1        0.1842
     12 F         -68.6082  -54.0412  -20.7663 F       1  UNL1       -0.2353
     13 C         -66.3255  -54.7184  -20.6347 C.3     1  UNL1        0.1274
     14 C         -69.2261  -57.2194  -20.3169 C.3     1  UNL1        0.2081
     15 O         -70.5739  -56.8034  -20.5446 O.3     1  UNL1       -0.4754
     16 C         -71.1275  -56.4714  -21.7921 C.ar    1  UNL1        0.1388
     17 C         -72.4040  -56.9037  -22.1987 C.ar    1  UNL1        0.0369
     18 C         -72.9009  -56.5435  -23.4528 C.ar    1  UNL1        0.0033
     19 C         -72.1379  -55.7493  -24.3113 C.ar    1  UNL1        0.0066
     20 C         -70.8644  -55.3029  -23.9213 C.ar    1  UNL1        0.0785
     21 C         -70.3703  -55.6698  -22.6559 C.ar    1  UNL1        0.0433
     22 C         -70.0578  -54.4600  -24.8316 C.2     1  UNL1        0.3381
     23 O         -70.5540  -54.0233  -25.9053 O.2     1  UNL1       -0.2451
     24 O         -68.7410  -54.1407  -24.5102 O.3     1  UNL1       -0.4771
     25 H         -68.1801  -53.5645  -25.1262 H       1  UNL1        0.2954
     26 C         -63.9965  -49.6673  -25.2872 C.2     1  UNL1        0.2839
     27 O         -64.8721  -49.2584  -24.4779 O.2     1  UNL1       -0.2665
     28 N         -63.7913  -51.0763  -25.4801 N.am    1  UNL1       -0.2766
     29 H         -63.2998  -51.3857  -26.3492 H       1  UNL1        0.1553
     30 C         -64.0772  -49.2363  -28.4623 C.3     1  UNL1        0.0345
     31 C         -63.2395  -48.5062  -27.4561 C.ar    1  UNL1        0.0202
     32 C         -63.2067  -48.6980  -26.0703 C.ar    1  UNL1        0.1946
     33 O         -62.3433  -47.8637  -25.5187 O.2     1  UNL1       -0.4492
     34 C         -61.8141  -47.1410  -26.4754 C.ar    1  UNL1        0.1452
     35 C         -60.8597  -46.1381  -26.3459 C.ar    1  UNL1        0.0375
     36 C         -60.4280  -45.4831  -27.5122 C.ar    1  UNL1        0.0031
     37 C         -60.9536  -45.8377  -28.7841 C.ar    1  UNL1        0.0002
     38 C         -61.9237  -46.8650  -28.8719 C.ar    1  UNL1        0.0028
     39 C         -62.3291  -47.4943  -27.6939 C.ar    1  UNL1        0.0337
     40 C         -60.4901  -45.1384  -30.0092 C.ar    1  UNL1        0.0000
     41 C         -61.3689  -44.3161  -30.7400 C.ar    1  UNL1        0.0000
     42 C         -60.9298  -43.6596  -31.8939 C.ar    1  UNL1        0.0000
     43 C         -59.6124  -43.8149  -32.3305 C.ar    1  UNL1        0.0000
     44 C         -58.7309  -44.6275  -31.6143 C.ar    1  UNL1        0.0000
     45 C         -59.1646  -45.2872  -30.4603 C.ar    1  UNL1        0.0000
@<TRIPOS>BOND
     1    30    31    1
     2    31    32   ar
     3    32    26    1
     4    26    27    2
     5    26    28   am
     6    28     1    1
     7     1     2   ar
     8     2     3   ar
     9     3     4   ar
    10     4     7    1
    11     7     8    1
    12     8     9    1
    13     9    10    1
    14    10    14    1
    15    14    15    1
    16    15    16    1
    17    16    17   ar
    18    17    18   ar
    19    18    19   ar
    20    19    20   ar
    21    20    22    1
    22    22    23    2
    23    22    24    1
    24    20    21   ar
    25    10    11    1
    26    11    12    1
    27    11    13    1
    28     4     5   ar
    29     5     6   ar
    30    32    33   ar
    31    33    34   ar
    32    34    35   ar
    33    35    36   ar
    34    36    37   ar
    35    37    40    1
    36    40    41   ar
    37    41    42   ar
    38    42    43   ar
    39    43    44   ar
    40    44    45   ar
    41    37    38   ar
    42    38    39   ar
    43    39    31   ar
    44     6     1   ar
    45    39    34   ar
    46    13     7    1
    47    45    40   ar
    48    21    16   ar
    49    28    29    1
    50    24    25    1
@<TRIPOS>MOLECULE
*****
 45 50 0 0 0
SMALL
GASTEIGER

@<TRIPOS>ATOM
      1 C         -62.5532  -40.9380  -20.1442 C.ar    1  UNL1        0.0702
      2 C         -63.0396  -41.5804  -21.2881 C.ar    1  UNL1        0.0191
      3 C         -62.3625  -42.6777  -21.8223 C.ar    1  UNL1        0.0356
      4 C         -61.1755  -43.1270  -21.2154 C.ar    1  UNL1        0.1319
      5 N         -60.7098  -42.4660  -20.1181 N.ar    1  UNL1       -0.2279
      6 C         -61.3543  -41.3981  -19.5786 C.ar    1  UNL1        0.1149
      7 N         -60.4491  -44.2673  -21.7313 N.pl3   1  UNL1       -0.2904
      8 C         -59.2417  -44.0798  -22.5557 C.3     1  UNL1        0.0925
      9 C         -58.8423  -45.3707  -23.2863 C.3     1  UNL1        0.0280
     10 C         -60.0925  -46.0571  -23.8651 C.3     1  UNL1        0.0797
     11 C         -61.1107  -46.4299  -22.7497 C.3     1  UNL1        0.1842
     12 F         -62.3965  -46.2077  -23.2154 F       1  UNL1       -0.2353
     13 C         -60.9023  -45.6379  -21.4464 C.3     1  UNL1        0.1274
     14 C         -59.6921  -47.2903  -24.6981 C.3     1  UNL1        0.2081
     15 O         -60.8294  -47.8683  -25.3416 O.3     1  UNL1       -0.4754
     16 C         -61.6186  -48.9099  -24.8268 C.ar    1  UNL1        0.1388
     17 C         -63.0014  -49.0103  -25.0708 C.ar    1  UNL1        0.0369
     18 C         -63.7349  -50.0679  -24.5298 C.ar    1  UNL1        0.0033
     19 C         -63.1027  -51.0356  -23.7463 C.ar    1  UNL1        0.0066
     20 C         -61.7227  -50.9562  -23.4965 C.ar    1  UNL1        0.0785
     21 C         -60.9900  -49.8875  -24.0451 C.ar    1  UNL1        0.0433
     22 C         -61.0540  -51.9833  -22.6674 C.2     1  UNL1        0.3381
     23 O         -59.8245  -52.2213  -22.8137 O.2     1  UNL1       -0.2451
     24 O         -61.7778  -52.6979  -21.7162 O.3     1  UNL1       -0.4771
     25 H         -61.3298  -53.4032  -21.1433 H       1  UNL1        0.2954
     26 C         -63.2097  -38.4865  -20.2110 C.2     1  UNL1        0.2839
     27 O         -62.3485  -38.2141  -21.0901 O.2     1  UNL1       -0.2665
     28 N         -63.2500  -39.7951  -19.6187 N.am    1  UNL1       -0.2766
     29 H         -63.7461  -39.9047  -18.7053 H       1  UNL1        0.1553
     30 C         -66.3994  -38.5158  -20.5240 C.3     1  UNL1        0.0345
     31 C         -65.5471  -37.4571  -19.8916 C.ar    1  UNL1        0.0202
     32 C         -64.1541  -37.4478  -19.7576 C.ar    1  UNL1        0.1946
     33 O         -63.7664  -36.3444  -19.1431 O.2     1  UNL1       -0.4492
     34 C         -64.8360  -35.6372  -18.8720 C.ar    1  UNL1        0.1452
     35 C         -64.8928  -34.4052  -18.2298 C.ar    1  UNL1        0.0375
     36 C         -66.1554  -33.8184  -18.0378 C.ar    1  UNL1        0.0031
     37 C         -67.3368  -34.4677  -18.4879 C.ar    1  UNL1        0.0002
     38 C         -67.2347  -35.7212  -19.1378 C.ar    1  UNL1        0.0028
     39 C         -65.9652  -36.2745  -19.3119 C.ar    1  UNL1        0.0337
     40 C         -68.6653  -33.8381  -18.2792 C.ar    1  UNL1        0.0000
     41 C         -68.7980  -32.7018  -17.4585 C.ar    1  UNL1        0.0000
     42 C         -70.0505  -32.1117  -17.2631 C.ar    1  UNL1        0.0000
     43 C         -71.1819  -32.6464  -17.8831 C.ar    1  UNL1        0.0000
     44 C         -71.0634  -33.7731  -18.6997 C.ar    1  UNL1        0.0000
     45 C         -69.8137  -34.3680  -18.8980 C.ar    1  UNL1        0.0000
@<TRIPOS>BOND
     1    30    31    1
     2    31    32   ar
     3    32    26    1
     4    26    27    2
     5    26    28   am
     6    28     1    1
     7     1     2   ar
     8     2     3   ar
     9     3     4   ar
    10     4     7    1
    11     7     8    1
    12     8     9    1
    13     9    10    1
    14    10    14    1
    15    14    15    1
    16    15    16    1
    17    16    17   ar
    18    17    18   ar
    19    18    19   ar
    20    19    20   ar
    21    20    22    1
    22    22    23    2
    23    22    24    1
    24    20    21   ar
    25    10    11    1
    26    11    12    1
    27    11    13    1
    28     4     5   ar
    29     5     6   ar
    30    32    33   ar
    31    33    34   ar
    32    34    35   ar
    33    35    36   ar
    34    36    37   ar
    35    37    40    1
    36    40    41   ar
    37    41    42   ar
    38    42    43   ar
    39    43    44   ar
    40    44    45   ar
    41    37    38   ar
    42    38    39   ar
    43    39    31   ar
    44     6     1   ar
    45    39    34   ar
    46    13     7    1
    47    45    40   ar
    48    21    16   ar
    49    28    29    1
    50    24    25    1
@<TRIPOS>MOLECULE
*****
 45 50 0 0 0
SMALL
GASTEIGER

@<TRIPOS>ATOM
      1 C         -62.3908  -41.5457  -21.0104 C.ar    1  UNL1        0.0702
      2 C         -62.7269  -41.9279  -22.3137 C.ar    1  UNL1        0.0191
      3 C         -62.0497  -42.9765  -22.9378 C.ar    1  UNL1        0.0356
      4 C         -61.0123  -43.6393  -22.2568 C.ar    1  UNL1        0.1319
      5 N         -60.6876  -43.2288  -20.9983 N.ar    1  UNL1       -0.2279
      6 C         -61.3356  -42.2130  -20.3697 C.ar    1  UNL1        0.1149
      7 N         -60.2925  -44.7382  -22.8640 N.pl3   1  UNL1       -0.2904
      8 C         -60.7802  -45.3612  -24.1076 C.3     1  UNL1        0.0925
      9 C         -60.0943  -46.7086  -24.3790 C.3     1  UNL1        0.0280
     10 C         -59.9969  -47.5223  -23.0760 C.3     1  UNL1        0.0797
     11 C         -59.1725  -46.7718  -21.9911 C.3     1  UNL1        0.1842
     12 F         -59.7578  -46.9777  -20.7523 F       1  UNL1       -0.2353
     13 C         -59.0604  -45.2587  -22.2508 C.3     1  UNL1        0.1274
     14 C         -59.4160  -48.9216  -23.3579 C.3     1  UNL1        0.2081
     15 O         -60.1405  -49.9314  -22.6530 O.3     1  UNL1       -0.4754
     16 C         -61.3177  -50.5547  -23.0985 C.ar    1  UNL1        0.1388
     17 C         -61.6493  -51.8822  -22.7673 C.ar    1  UNL1        0.0369
     18 C         -62.8334  -52.4495  -23.2422 C.ar    1  UNL1        0.0033
     19 C         -63.6991  -51.7042  -24.0454 C.ar    1  UNL1        0.0066
     20 C         -63.3888  -50.3762  -24.3818 C.ar    1  UNL1        0.0785
     21 C         -62.1938  -49.8111  -23.8994 C.ar    1  UNL1        0.0433
     22 C         -64.3080  -49.5873  -25.2317 C.2     1  UNL1        0.3381
     23 O         -64.0721  -49.4388  -26.4614 O.2     1  UNL1       -0.2451
     24 O         -65.4441  -49.0003  -24.6802 O.3     1  UNL1       -0.4771
     25 H         -66.0799  -48.4583  -25.2531 H       1  UNL1        0.2954
     26 C         -62.7392  -39.0674  -20.5843 C.2     1  UNL1        0.2839
     27 O         -61.6413  -38.7559  -21.1196 O.2     1  UNL1       -0.2665
     28 N         -63.0827  -40.4488  -20.3891 N.am    1  UNL1       -0.2766
     29 H         -63.8249  -40.6752  -19.6887 H       1  UNL1        0.1553
     30 C         -65.9342  -39.0458  -20.8384 C.3     1  UNL1        0.0345
     31 C         -65.0532  -37.9982  -20.2271 C.ar    1  UNL1        0.0202
     32 C         -63.6580  -38.0111  -20.1188 C.ar    1  UNL1        0.1946
     33 O         -63.2410  -36.9113  -19.5171 O.2     1  UNL1       -0.4492
     34 C         -64.2938  -36.1854  -19.2300 C.ar    1  UNL1        0.1452
     35 C         -64.3185  -34.9496  -18.5930 C.ar    1  UNL1        0.0375
     36 C         -65.5677  -34.3413  -18.3808 C.ar    1  UNL1        0.0031
     37 C         -66.7676  -34.9733  -18.8057 C.ar    1  UNL1        0.0002
     38 C         -66.6981  -36.2314  -19.4511 C.ar    1  UNL1        0.0028
     39 C         -65.4411  -36.8062  -19.6457 C.ar    1  UNL1        0.0337
     40 C         -68.0816  -34.3210  -18.5757 C.ar    1  UNL1        0.0000
     41 C         -69.2313  -34.7684  -19.2542 C.ar    1  UNL1        0.0000
     42 C         -70.4672  -34.1516  -19.0364 C.ar    1  UNL1        0.0000
     43 C         -70.5702  -33.0848  -18.1410 C.ar    1  UNL1        0.0000
     44 C         -69.4372  -32.6319  -17.4616 C.ar    1  UNL1        0.0000
     45 C         -68.1986  -33.2442  -17.6761 C.ar    1  UNL1        0.0000
@<TRIPOS>BOND
     1    30    31    1
     2    31    32   ar
     3    32    26    1
     4    26    27    2
     5    26    28   am
     6    28     1    1
     7     1     2   ar
     8     2     3   ar
     9     3     4   ar
    10     4     7    1
    11     7     8    1
    12     8     9    1
    13     9    10    1
    14    10    14    1
    15    14    15    1
    16    15    16    1
    17    16    17   ar
    18    17    18   ar
    19    18    19   ar
    20    19    20   ar
    21    20    22    1
    22    22    23    2
    23    22    24    1
    24    20    21   ar
    25    10    11    1
    26    11    12    1
    27    11    13    1
    28     4     5   ar
    29     5     6   ar
    30    32    33   ar
    31    33    34   ar
    32    34    35   ar
    33    35    36   ar
    34    36    37   ar
    35    37    40    1
    36    40    41   ar
    37    41    42   ar
    38    42    43   ar
    39    43    44   ar
    40    44    45   ar
    41    37    38   ar
    42    38    39   ar
    43    39    31   ar
    44     6     1   ar
    45    39    34   ar
    46    13     7    1
    47    45    40   ar
    48    21    16   ar
    49    28    29    1
    50    24    25    1
