@<TRIPOS>MOLECULE
*****
 47 52 0 0 0
SMALL
GASTEIGER

@<TRIPOS>ATOM
      1 C           8.5426   77.1496   23.7648 C.ar    1  UNL1        0.1318
      2 C           8.4415   77.6044   25.0892 C.ar    1  UNL1        0.0356
      3 C           9.0871   78.7836   25.4642 C.ar    1  UNL1        0.0191
      4 C           9.8263   79.5136   24.5201 C.ar    1  UNL1        0.0702
      5 C           9.9266   79.0100   23.2169 C.ar    1  UNL1        0.1149
      6 N           9.2886   77.8600   22.8741 N.ar    1  UNL1       -0.2279
      7 C           5.6302   74.9533   23.1076 C.3     1  UNL1        0.0810
      8 C           6.7467   75.3824   24.0786 C.3     1  UNL1        0.0995
      9 N           7.8902   75.9369   23.3398 N.pl3   1  UNL1       -0.2928
     10 C           8.4750   75.1269   22.2641 C.3     1  UNL1        0.0923
     11 C           7.3955   74.7101   21.2623 C.3     1  UNL1        0.0257
     12 C           6.2011   74.0488   21.9809 C.3     1  UNL1        0.0540
     13 C           3.3884   76.2675   22.6910 C.3     1  UNL1        0.0723
     14 C           4.8814   76.1670   22.5772 C.2     1  UNL1        0.1525
     15 O           5.4925   77.0880   22.0559 O.2     1  UNL1       -0.2960
     16 C           5.1091   73.6274   20.9744 C.3     1  UNL1        0.2058
     17 O           5.3217   74.2357   19.6993 O.3     1  UNL1       -0.4754
     18 C           4.5669   75.2911   19.1613 C.ar    1  UNL1        0.1388
     19 C           3.2211   75.1461   18.7758 C.ar    1  UNL1        0.0369
     20 C           2.5235   76.2309   18.2419 C.ar    1  UNL1        0.0033
     21 C           3.1513   77.4697   18.0942 C.ar    1  UNL1        0.0066
     22 C           4.4901   77.6395   18.4879 C.ar    1  UNL1        0.0785
     23 C           5.1889   76.5371   19.0139 C.ar    1  UNL1        0.0433
     24 C           5.1750   78.9466   18.3354 C.2     1  UNL1        0.3381
     25 O           4.7164   79.8024   17.5326 O.2     1  UNL1       -0.2451
     26 O           6.3320   79.2577   19.0489 O.3     1  UNL1       -0.4771
     27 H           6.8121   78.5838   19.6308 H       1  UNL1        0.2954
     28 N          10.5255   80.7191   24.8746 N.am    1  UNL1       -0.2766
     29 C          11.9559   80.8237   24.9336 C.2     1  UNL1        0.2839
     30 O          12.6542   79.7969   25.1495 O.2     1  UNL1       -0.2665
     31 H           9.9636   81.5319   25.2132 H       1  UNL1        0.1553
     32 C          12.6299   82.1298   24.8289 C.ar    1  UNL1        0.1946
     33 O          12.6786   82.8122   23.6983 O.2     1  UNL1       -0.4492
     34 C          13.3486   83.9161   23.9223 C.ar    1  UNL1        0.1452
     35 C          13.6463   84.9241   23.0118 C.ar    1  UNL1        0.0375
     36 C          14.3849   86.0295   23.4691 C.ar    1  UNL1        0.0031
     37 C          14.8131   86.1105   24.8220 C.ar    1  UNL1        0.0002
     38 C          14.4879   85.0625   25.7162 C.ar    1  UNL1        0.0028
     39 C          13.7533   83.9816   25.2278 C.ar    1  UNL1        0.0337
     40 C          13.2832   82.8393   25.8446 C.ar    1  UNL1        0.0202
     41 C          13.4472   82.4660   27.2871 C.3     1  UNL1        0.0345
     42 C          15.5939   87.2823   25.2935 C.ar    1  UNL1        0.0000
     43 C          16.8704   87.5519   24.7638 C.ar    1  UNL1        0.0000
     44 C          17.6036   88.6559   25.2097 C.ar    1  UNL1        0.0000
     45 C          17.0737   89.5008   26.1873 C.ar    1  UNL1        0.0000
     46 C          15.8091   89.2438   26.7211 C.ar    1  UNL1        0.0000
     47 C          15.0709   88.1418   26.2784 C.ar    1  UNL1        0.0000
@<TRIPOS>BOND
     1    13    14    1
     2    14    15    2
     3    14     7    1
     4     7     8    1
     5     8     9    1
     6     9     1    1
     7     1     2   ar
     8     2     3   ar
     9     3     4   ar
    10     4    28    1
    11    28    29   am
    12    29    30    2
    13    29    32    1
    14    32    33   ar
    15    33    34   ar
    16    34    35   ar
    17    35    36   ar
    18    36    37   ar
    19    37    42    1
    20    42    43   ar
    21    43    44   ar
    22    44    45   ar
    23    45    46   ar
    24    46    47   ar
    25    37    38   ar
    26    38    39   ar
    27    39    40   ar
    28    40    41    1
    29     4     5   ar
    30     5     6   ar
    31     9    10    1
    32    10    11    1
    33    11    12    1
    34    12    16    1
    35    16    17    1
    36    17    18    1
    37    18    19   ar
    38    19    20   ar
    39    20    21   ar
    40    21    22   ar
    41    22    24    1
    42    24    25    2
    43    24    26    1
    44    22    23   ar
    45    12     7    1
    46    23    18   ar
    47     6     1   ar
    48    40    32   ar
    49    39    34   ar
    50    47    42   ar
    51    28    31    1
    52    26    27    1
@<TRIPOS>MOLECULE
*****
 47 52 0 0 0
SMALL
GASTEIGER

@<TRIPOS>ATOM
      1 C          13.5874   83.5143   24.4072 C.ar    1  UNL1        0.1318
      2 C          13.7614   82.8484   25.6308 C.ar    1  UNL1        0.0356
      3 C          12.9589   81.7485   25.9373 C.ar    1  UNL1        0.0191
      4 C          11.9891   81.3069   25.0234 C.ar    1  UNL1        0.0702
      5 C          11.8274   82.0168   23.8268 C.ar    1  UNL1        0.1149
      6 N          12.6210   83.0846   23.5492 N.ar    1  UNL1       -0.2279
      7 C          15.5012   85.6917   22.0977 C.3     1  UNL1        0.0810
      8 C          15.5199   84.5342   23.1143 C.3     1  UNL1        0.0995
      9 N          14.3967   84.6535   24.0551 N.pl3   1  UNL1       -0.2928
     10 C          14.2317   85.9220   24.7754 C.3     1  UNL1        0.0923
     11 C          14.1767   87.0923   23.7903 C.3     1  UNL1        0.0257
     12 C          15.3802   87.0588   22.8256 C.3     1  UNL1        0.0540
     13 C          14.7618   85.0534   19.6539 C.3     1  UNL1        0.0723
     14 C          14.4170   85.4737   21.0526 C.2     1  UNL1        0.1525
     15 O          13.2406   85.6299   21.3442 O.2     1  UNL1       -0.2960
     16 C          15.3287   88.2370   21.8293 C.3     1  UNL1        0.2058
     17 O          14.0026   88.7557   21.7136 O.3     1  UNL1       -0.4754
     18 C          13.2077   88.7161   20.5561 C.ar    1  UNL1        0.1388
     19 C          11.8091   88.5646   20.5972 C.ar    1  UNL1        0.0369
     20 C          11.0724   88.5271   19.4122 C.ar    1  UNL1        0.0033
     21 C          11.7147   88.6484   18.1780 C.ar    1  UNL1        0.0066
     22 C          13.1090   88.8165   18.1159 C.ar    1  UNL1        0.0785
     23 C          13.8448   88.8409   19.3152 C.ar    1  UNL1        0.0433
     24 C          13.8095   88.9433   16.8143 C.2     1  UNL1        0.3381
     25 O          13.2529   88.5302   15.7623 O.2     1  UNL1       -0.2451
     26 O          15.0853   89.4978   16.7173 O.3     1  UNL1       -0.4771
     27 H          15.6319   89.7546   17.5288 H       1  UNL1        0.2954
     28 N          11.1268   80.1934   25.3140 N.am    1  UNL1       -0.2766
     29 C          11.6027   78.8949   25.6986 C.2     1  UNL1        0.2839
     30 O          12.7535   78.5172   25.3501 O.2     1  UNL1       -0.2665
     31 H          10.1043   80.3024   25.1304 H       1  UNL1        0.1553
     32 C          10.7379   77.9511   26.4284 C.ar    1  UNL1        0.1946
     33 O          11.1982   77.1647   27.3855 O.2     1  UNL1       -0.4492
     34 C          10.1988   76.4423   27.8291 C.ar    1  UNL1        0.1452
     35 C          10.2315   75.4783   28.8307 C.ar    1  UNL1        0.0375
     36 C           9.0326   74.8167   29.1493 C.ar    1  UNL1        0.0031
     37 C           7.8255   75.1263   28.4656 C.ar    1  UNL1        0.0002
     38 C           7.8363   76.1151   27.4527 C.ar    1  UNL1        0.0028
     39 C           9.0438   76.7514   27.1637 C.ar    1  UNL1        0.0337
     40 C           9.3632   77.7436   26.2583 C.ar    1  UNL1        0.0202
     41 C           8.4249   78.4328   25.3141 C.3     1  UNL1        0.0345
     42 C           6.5654   74.4200   28.8097 C.ar    1  UNL1        0.0000
     43 C           6.0545   73.4156   27.9656 C.ar    1  UNL1        0.0000
     44 C           4.8676   72.7522   28.2919 C.ar    1  UNL1        0.0000
     45 C           4.1779   73.0832   29.4604 C.ar    1  UNL1        0.0000
     46 C           4.6740   74.0781   30.3055 C.ar    1  UNL1        0.0000
     47 C           5.8609   74.7442   29.9848 C.ar    1  UNL1        0.0000
@<TRIPOS>BOND
     1    13    14    1
     2    14    15    2
     3    14     7    1
     4     7     8    1
     5     8     9    1
     6     9     1    1
     7     1     2   ar
     8     2     3   ar
     9     3     4   ar
    10     4    28    1
    11    28    29   am
    12    29    30    2
    13    29    32    1
    14    32    33   ar
    15    33    34   ar
    16    34    35   ar
    17    35    36   ar
    18    36    37   ar
    19    37    42    1
    20    42    43   ar
    21    43    44   ar
    22    44    45   ar
    23    45    46   ar
    24    46    47   ar
    25    37    38   ar
    26    38    39   ar
    27    39    40   ar
    28    40    41    1
    29     4     5   ar
    30     5     6   ar
    31     9    10    1
    32    10    11    1
    33    11    12    1
    34    12    16    1
    35    16    17    1
    36    17    18    1
    37    18    19   ar
    38    19    20   ar
    39    20    21   ar
    40    21    22   ar
    41    22    24    1
    42    24    25    2
    43    24    26    1
    44    22    23   ar
    45    12     7    1
    46    23    18   ar
    47     6     1   ar
    48    40    32   ar
    49    39    34   ar
    50    47    42   ar
    51    28    31    1
    52    26    27    1
@<TRIPOS>MOLECULE
*****
 47 52 0 0 0
SMALL
GASTEIGER

@<TRIPOS>ATOM
      1 C           9.4280   78.5573   24.4315 C.ar    1  UNL1        0.1318
      2 C           9.6561   79.1514   25.6830 C.ar    1  UNL1        0.0356
      3 C          10.2724   80.4018   25.7504 C.ar    1  UNL1        0.0191
      4 C          10.6545   81.0639   24.5730 C.ar    1  UNL1        0.0702
      5 C          10.4358   80.4238   23.3464 C.ar    1  UNL1        0.1149
      6 N           9.8331   79.2064   23.3049 N.ar    1  UNL1       -0.2279
      7 C           8.5420   75.1410   25.5633 C.3     1  UNL1        0.0810
      8 C           9.4835   76.0373   24.7365 C.3     1  UNL1        0.0995
      9 N           8.7944   77.2677   24.3213 N.pl3   1  UNL1       -0.2928
     10 C           7.5141   77.1367   23.6151 C.3     1  UNL1        0.0923
     11 C           6.5422   76.2767   24.4266 C.3     1  UNL1        0.0257
     12 C           7.1916   74.9346   24.8234 C.3     1  UNL1        0.0540
     13 C           8.9728   74.9899   28.1551 C.3     1  UNL1        0.0723
     14 C           8.3731   75.6912   26.9717 C.2     1  UNL1        0.1525
     15 O           7.7497   76.7257   27.1578 O.2     1  UNL1       -0.2960
     16 C           6.2153   74.0639   25.6430 C.3     1  UNL1        0.2058
     17 O           5.2526   74.8709   26.3234 O.3     1  UNL1       -0.4754
     18 C           4.9691   74.8204   27.6982 C.ar    1  UNL1        0.1388
     19 C           5.0709   73.6377   28.4542 C.ar    1  UNL1        0.0369
     20 C           4.7709   73.6484   29.8174 C.ar    1  UNL1        0.0033
     21 C           4.3764   74.8326   30.4437 C.ar    1  UNL1        0.0066
     22 C           4.2838   76.0281   29.7098 C.ar    1  UNL1        0.0785
     23 C           4.5765   76.0051   28.3335 C.ar    1  UNL1        0.0433
     24 C           3.8630   77.2951   30.3566 C.2     1  UNL1        0.3381
     25 O           4.4794   78.3632   30.0987 O.2     1  UNL1       -0.2451
     26 O           2.8044   77.3412   31.2631 O.3     1  UNL1       -0.4771
     27 H           2.3329   76.5098   31.5944 H       1  UNL1        0.2954
     28 N          11.3142   82.3412   24.6032 N.am    1  UNL1       -0.2766
     29 C          12.7100   82.5117   24.8915 C.2     1  UNL1        0.2839
     30 O          13.3192   81.6538   25.5853 O.2     1  UNL1       -0.2665
     31 H          10.7261   83.2004   24.5188 H       1  UNL1        0.1553
     32 C          13.4356   83.7197   24.4608 C.ar    1  UNL1        0.1946
     33 O          13.0396   84.9373   24.7877 O.2     1  UNL1       -0.4492
     34 C          13.8771   85.7910   24.2517 C.ar    1  UNL1        0.1452
     35 C          13.8383   87.1786   24.3339 C.ar    1  UNL1        0.0375
     36 C          14.8445   87.9071   23.6757 C.ar    1  UNL1        0.0031
     37 C          15.8688   87.2418   22.9487 C.ar    1  UNL1        0.0002
     38 C          15.8714   85.8274   22.8910 C.ar    1  UNL1        0.0028
     39 C          14.8578   85.1374   23.5565 C.ar    1  UNL1        0.0337
     40 C          14.6041   83.7870   23.6913 C.ar    1  UNL1        0.0202
     41 C          15.4181   82.6604   23.1298 C.3     1  UNL1        0.0345
     42 C          16.9259   88.0217   22.2562 C.ar    1  UNL1        0.0000
     43 C          16.6689   88.6274   21.0114 C.ar    1  UNL1        0.0000
     44 C          17.6661   89.3611   20.3614 C.ar    1  UNL1        0.0000
     45 C          18.9281   89.4978   20.9438 C.ar    1  UNL1        0.0000
     46 C          19.1957   88.9012   22.1778 C.ar    1  UNL1        0.0000
     47 C          18.2020   88.1671   22.8328 C.ar    1  UNL1        0.0000
@<TRIPOS>BOND
     1    13    14    1
     2    14    15    2
     3    14     7    1
     4     7     8    1
     5     8     9    1
     6     9     1    1
     7     1     2   ar
     8     2     3   ar
     9     3     4   ar
    10     4    28    1
    11    28    29   am
    12    29    30    2
    13    29    32    1
    14    32    33   ar
    15    33    34   ar
    16    34    35   ar
    17    35    36   ar
    18    36    37   ar
    19    37    42    1
    20    42    43   ar
    21    43    44   ar
    22    44    45   ar
    23    45    46   ar
    24    46    47   ar
    25    37    38   ar
    26    38    39   ar
    27    39    40   ar
    28    40    41    1
    29     4     5   ar
    30     5     6   ar
    31     9    10    1
    32    10    11    1
    33    11    12    1
    34    12    16    1
    35    16    17    1
    36    17    18    1
    37    18    19   ar
    38    19    20   ar
    39    20    21   ar
    40    21    22   ar
    41    22    24    1
    42    24    25    2
    43    24    26    1
    44    22    23   ar
    45    12     7    1
    46    23    18   ar
    47     6     1   ar
    48    40    32   ar
    49    39    34   ar
    50    47    42   ar
    51    28    31    1
    52    26    27    1
@<TRIPOS>MOLECULE
*****
 47 52 0 0 0
SMALL
GASTEIGER

@<TRIPOS>ATOM
      1 C           9.7222   78.7125   24.5271 C.ar    1  UNL1        0.1318
      2 C          10.2731   79.1877   25.7278 C.ar    1  UNL1        0.0356
      3 C          10.8674   80.4500   25.7615 C.ar    1  UNL1        0.0191
      4 C          10.9066   81.2420   24.6031 C.ar    1  UNL1        0.0702
      5 C          10.3721   80.7190   23.4187 C.ar    1  UNL1        0.1149
      6 N           9.7975   79.4874   23.4098 N.ar    1  UNL1       -0.2279
      7 C           7.8562   75.7994   25.8573 C.3     1  UNL1        0.0810
      8 C           9.2217   76.4427   25.5490 C.3     1  UNL1        0.0995
      9 N           9.1002   77.4147   24.4528 N.pl3   1  UNL1       -0.2928
     10 C           8.4871   76.9652   23.1970 C.3     1  UNL1        0.0923
     11 C           7.1119   76.3488   23.4647 C.3     1  UNL1        0.0257
     12 C           7.1969   75.2626   24.5571 C.3     1  UNL1        0.0540
     13 C           6.4844   76.4462   28.0082 C.3     1  UNL1        0.0723
     14 C           6.9656   76.7664   26.6233 C.2     1  UNL1        0.1525
     15 O           6.6357   77.8299   26.1198 O.2     1  UNL1       -0.2960
     16 C           5.8118   74.6385   24.8313 C.3     1  UNL1        0.2058
     17 O           4.8235   75.1698   23.9471 O.3     1  UNL1       -0.4754
     18 C           3.8825   76.1602   24.2735 C.ar    1  UNL1        0.1388
     19 C           3.7327   76.6687   25.5773 C.ar    1  UNL1        0.0369
     20 C           2.7757   77.6498   25.8420 C.ar    1  UNL1        0.0033
     21 C           1.9661   78.1409   24.8154 C.ar    1  UNL1        0.0066
     22 C           2.1108   77.6577   23.5032 C.ar    1  UNL1        0.0785
     23 C           3.0699   76.6599   23.2482 C.ar    1  UNL1        0.0433
     24 C           1.2577   78.1644   22.4004 C.2     1  UNL1        0.3381
     25 O           1.4987   79.2912   21.8910 O.2     1  UNL1       -0.2451
     26 O           0.1754   77.4326   21.9128 O.3     1  UNL1       -0.4771
     27 H          -0.1381   76.5713   22.3407 H       1  UNL1        0.2954
     28 N          11.5322   82.5367   24.5925 N.am    1  UNL1       -0.2766
     29 C          12.8477   82.7914   25.1071 C.2     1  UNL1        0.2839
     30 O          13.3288   82.0465   26.0028 O.2     1  UNL1       -0.2665
     31 H          10.9586   83.3574   24.2947 H       1  UNL1        0.1553
     32 C          13.6246   83.9639   24.6678 C.ar    1  UNL1        0.1946
     33 O          13.3656   85.1861   25.0983 O.2     1  UNL1       -0.4492
     34 C          14.2135   86.0039   24.5240 C.ar    1  UNL1        0.1452
     35 C          14.2984   87.3827   24.6832 C.ar    1  UNL1        0.0375
     36 C          15.2912   88.0703   23.9633 C.ar    1  UNL1        0.0031
     37 C          16.1791   87.3736   23.0993 C.ar    1  UNL1        0.0002
     38 C          16.0586   85.9694   22.9668 C.ar    1  UNL1        0.0028
     39 C          15.0625   85.3203   23.6967 C.ar    1  UNL1        0.0337
     40 C          14.7122   83.9877   23.7854 C.ar    1  UNL1        0.0202
     41 C          15.3699   82.8383   23.0832 C.3     1  UNL1        0.0345
     42 C          17.2231   88.1106   22.3428 C.ar    1  UNL1        0.0000
     43 C          18.4577   88.4212   22.9443 C.ar    1  UNL1        0.0000
     44 C          19.4389   89.1154   22.2298 C.ar    1  UNL1        0.0000
     45 C          19.2000   89.5076   20.9108 C.ar    1  UNL1        0.0000
     46 C          17.9792   89.2061   20.3033 C.ar    1  UNL1        0.0000
     47 C          16.9947   88.5113   21.0127 C.ar    1  UNL1        0.0000
@<TRIPOS>BOND
     1    13    14    1
     2    14    15    2
     3    14     7    1
     4     7     8    1
     5     8     9    1
     6     9     1    1
     7     1     2   ar
     8     2     3   ar
     9     3     4   ar
    10     4    28    1
    11    28    29   am
    12    29    30    2
    13    29    32    1
    14    32    33   ar
    15    33    34   ar
    16    34    35   ar
    17    35    36   ar
    18    36    37   ar
    19    37    42    1
    20    42    43   ar
    21    43    44   ar
    22    44    45   ar
    23    45    46   ar
    24    46    47   ar
    25    37    38   ar
    26    38    39   ar
    27    39    40   ar
    28    40    41    1
    29     4     5   ar
    30     5     6   ar
    31     9    10    1
    32    10    11    1
    33    11    12    1
    34    12    16    1
    35    16    17    1
    36    17    18    1
    37    18    19   ar
    38    19    20   ar
    39    20    21   ar
    40    21    22   ar
    41    22    24    1
    42    24    25    2
    43    24    26    1
    44    22    23   ar
    45    12     7    1
    46    23    18   ar
    47     6     1   ar
    48    40    32   ar
    49    39    34   ar
    50    47    42   ar
    51    28    31    1
    52    26    27    1
@<TRIPOS>MOLECULE
*****
 47 52 0 0 0
SMALL
GASTEIGER

@<TRIPOS>ATOM
      1 C          13.5494   83.7178   24.2117 C.ar    1  UNL1        0.1318
      2 C          14.2881   82.6288   24.7009 C.ar    1  UNL1        0.0356
      3 C          13.6204   81.4855   25.1425 C.ar    1  UNL1        0.0191
      4 C          12.2189   81.4232   25.0900 C.ar    1  UNL1        0.0702
      5 C          11.5181   82.5423   24.6227 C.ar    1  UNL1        0.1149
      6 N          12.1896   83.6445   24.1969 N.ar    1  UNL1       -0.2279
      7 C          14.5861   86.2104   21.6721 C.3     1  UNL1        0.0810
      8 C          14.9372   84.9424   22.4736 C.3     1  UNL1        0.0995
      9 N          14.2029   84.9151   23.7468 N.pl3   1  UNL1       -0.2928
     10 C          14.3071   86.0842   24.6286 C.3     1  UNL1        0.0923
     11 C          13.9328   87.3600   23.8704 C.3     1  UNL1        0.0257
     12 C          14.7354   87.4779   22.5580 C.3     1  UNL1        0.0540
     13 C          13.0389   85.5206   19.6580 C.3     1  UNL1        0.0723
     14 C          13.2085   86.0835   21.0387 C.2     1  UNL1        0.1525
     15 O          12.2129   86.4322   21.6556 O.2     1  UNL1       -0.2960
     16 C          14.3606   88.7630   21.7891 C.3     1  UNL1        0.2058
     17 O          14.7199   88.6612   20.4101 O.3     1  UNL1       -0.4754
     18 C          13.8601   88.8876   19.3227 C.ar    1  UNL1        0.1388
     19 C          12.5239   89.3003   19.4809 C.ar    1  UNL1        0.0369
     20 C          11.7155   89.5044   18.3615 C.ar    1  UNL1        0.0033
     21 C          12.2272   89.3100   17.0767 C.ar    1  UNL1        0.0066
     22 C          13.5638   88.9133   16.8965 C.ar    1  UNL1        0.0785
     23 C          14.3678   88.6981   18.0313 C.ar    1  UNL1        0.0433
     24 C          14.1243   88.6981   15.5399 C.2     1  UNL1        0.3381
     25 O          15.3690   88.5722   15.3908 O.2     1  UNL1       -0.2451
     26 O          13.3108   88.6449   14.4086 O.3     1  UNL1       -0.4771
     27 H          12.3187   88.8400   14.4401 H       1  UNL1        0.2954
     28 N          11.4946   80.2728   25.5589 N.am    1  UNL1       -0.2766
     29 C          10.5043   80.3221   26.5967 C.2     1  UNL1        0.2839
     30 O          10.5471   81.2342   27.4655 O.2     1  UNL1       -0.2665
     31 H          11.7804   79.3332   25.2030 H       1  UNL1        0.1553
     32 C           9.4764   79.2735   26.7205 C.ar    1  UNL1        0.1946
     33 O           8.6837   78.9381   25.7178 O.2     1  UNL1       -0.4492
     34 C           7.8794   77.9928   26.1388 C.ar    1  UNL1        0.1452
     35 C           6.8794   77.3500   25.4173 C.ar    1  UNL1        0.0375
     36 C           6.1277   76.3580   26.0709 C.ar    1  UNL1        0.0031
     37 C           6.3846   76.0252   27.4287 C.ar    1  UNL1        0.0002
     38 C           7.4126   76.7038   28.1264 C.ar    1  UNL1        0.0028
     39 C           8.1384   77.6818   27.4459 C.ar    1  UNL1        0.0337
     40 C           9.1857   78.4887   27.8436 C.ar    1  UNL1        0.0202
     41 C           9.8495   78.5003   29.1875 C.3     1  UNL1        0.0345
     42 C           5.5833   74.9766   28.1094 C.ar    1  UNL1        0.0000
     43 C           4.7267   75.3100   29.1760 C.ar    1  UNL1        0.0000
     44 C           3.9733   74.3205   29.8153 C.ar    1  UNL1        0.0000
     45 C           4.0665   72.9904   29.3997 C.ar    1  UNL1        0.0000
     46 C           4.9130   72.6468   28.3435 C.ar    1  UNL1        0.0000
     47 C           5.6680   73.6322   27.6999 C.ar    1  UNL1        0.0000
@<TRIPOS>BOND
     1    13    14    1
     2    14    15    2
     3    14     7    1
     4     7     8    1
     5     8     9    1
     6     9     1    1
     7     1     2   ar
     8     2     3   ar
     9     3     4   ar
    10     4    28    1
    11    28    29   am
    12    29    30    2
    13    29    32    1
    14    32    33   ar
    15    33    34   ar
    16    34    35   ar
    17    35    36   ar
    18    36    37   ar
    19    37    42    1
    20    42    43   ar
    21    43    44   ar
    22    44    45   ar
    23    45    46   ar
    24    46    47   ar
    25    37    38   ar
    26    38    39   ar
    27    39    40   ar
    28    40    41    1
    29     4     5   ar
    30     5     6   ar
    31     9    10    1
    32    10    11    1
    33    11    12    1
    34    12    16    1
    35    16    17    1
    36    17    18    1
    37    18    19   ar
    38    19    20   ar
    39    20    21   ar
    40    21    22   ar
    41    22    24    1
    42    24    25    2
    43    24    26    1
    44    22    23   ar
    45    12     7    1
    46    23    18   ar
    47     6     1   ar
    48    40    32   ar
    49    39    34   ar
    50    47    42   ar
    51    28    31    1
    52    26    27    1
@<TRIPOS>MOLECULE
*****
 47 52 0 0 0
SMALL
GASTEIGER

@<TRIPOS>ATOM
      1 C           8.8320   77.8401   22.7546 C.ar    1  UNL1        0.1318
      2 C           9.4163   78.8677   21.9971 C.ar    1  UNL1        0.0356
      3 C          10.1260   79.8816   22.6423 C.ar    1  UNL1        0.0191
      4 C          10.2606   79.8686   24.0396 C.ar    1  UNL1        0.0702
      5 C           9.6377   78.8419   24.7606 C.ar    1  UNL1        0.1149
      6 N           8.9524   77.8646   24.1108 N.ar    1  UNL1       -0.2279
      7 C           6.9826   74.6294   22.6632 C.3     1  UNL1        0.0810
      8 C           8.3219   75.3682   22.4791 C.3     1  UNL1        0.0995
      9 N           8.0918   76.7762   22.1246 N.pl3   1  UNL1       -0.2928
     10 C           7.2226   77.0657   20.9776 C.3     1  UNL1        0.0923
     11 C           5.8688   76.3713   21.1447 C.3     1  UNL1        0.0257
     12 C           6.0521   74.8686   21.4424 C.3     1  UNL1        0.0540
     13 C           6.3678   74.0679   25.1598 C.3     1  UNL1        0.0723
     14 C           6.3373   75.0058   23.9887 C.2     1  UNL1        0.1525
     15 O           5.7897   76.0902   24.1208 O.2     1  UNL1       -0.2960
     16 C           4.6892   74.1640   21.6128 C.3     1  UNL1        0.2058
     17 O           3.6430   74.9080   20.9860 O.3     1  UNL1       -0.4754
     18 C           2.8825   75.9204   21.5942 C.ar    1  UNL1        0.1388
     19 C           1.8940   76.6484   20.9061 C.ar    1  UNL1        0.0369
     20 C           1.1736   77.6473   21.5631 C.ar    1  UNL1        0.0033
     21 C           1.4208   77.9263   22.9090 C.ar    1  UNL1        0.0066
     22 C           2.3927   77.1997   23.6186 C.ar    1  UNL1        0.0785
     23 C           3.1225   76.2029   22.9448 C.ar    1  UNL1        0.0433
     24 C           2.6721   77.4840   25.0476 C.2     1  UNL1        0.3381
     25 O           1.7690   77.9770   25.7747 O.2     1  UNL1       -0.2451
     26 O           3.9207   77.2346   25.6161 O.3     1  UNL1       -0.4771
     27 H           4.7192   76.9376   25.0707 H       1  UNL1        0.2954
     28 N          10.9627   80.9087   24.7418 N.am    1  UNL1       -0.2766
     29 C          12.3645   81.1732   24.5823 C.2     1  UNL1        0.2839
     30 O          13.1410   80.2524   24.2115 O.2     1  UNL1       -0.2665
     31 H          10.4510   81.4293   25.4889 H       1  UNL1        0.1553
     32 C          12.9363   82.4874   24.9247 C.ar    1  UNL1        0.1946
     33 O          13.2248   83.3941   24.0076 O.2     1  UNL1       -0.4492
     34 C          13.7226   84.4411   24.6186 C.ar    1  UNL1        0.1452
     35 C          14.1671   85.6253   24.0408 C.ar    1  UNL1        0.0375
     36 C          14.6699   86.6262   24.8904 C.ar    1  UNL1        0.0031
     37 C          14.7212   86.4298   26.2972 C.ar    1  UNL1        0.0002
     38 C          14.2577   85.2093   26.8443 C.ar    1  UNL1        0.0028
     39 C          13.7650   84.2390   25.9713 C.ar    1  UNL1        0.0337
     40 C          13.2423   82.9816   26.1990 C.ar    1  UNL1        0.0202
     41 C          13.0522   82.3160   27.5286 C.3     1  UNL1        0.0345
     42 C          15.2556   87.4936   27.1849 C.ar    1  UNL1        0.0000
     43 C          16.3643   88.2660   26.7890 C.ar    1  UNL1        0.0000
     44 C          16.8656   89.2669   27.6269 C.ar    1  UNL1        0.0000
     45 C          16.2688   89.5075   28.8665 C.ar    1  UNL1        0.0000
     46 C          15.1691   88.7477   29.2709 C.ar    1  UNL1        0.0000
     47 C          14.6629   87.7461   28.4367 C.ar    1  UNL1        0.0000
@<TRIPOS>BOND
     1    13    14    1
     2    14    15    2
     3    14     7    1
     4     7     8    1
     5     8     9    1
     6     9     1    1
     7     1     2   ar
     8     2     3   ar
     9     3     4   ar
    10     4    28    1
    11    28    29   am
    12    29    30    2
    13    29    32    1
    14    32    33   ar
    15    33    34   ar
    16    34    35   ar
    17    35    36   ar
    18    36    37   ar
    19    37    42    1
    20    42    43   ar
    21    43    44   ar
    22    44    45   ar
    23    45    46   ar
    24    46    47   ar
    25    37    38   ar
    26    38    39   ar
    27    39    40   ar
    28    40    41    1
    29     4     5   ar
    30     5     6   ar
    31     9    10    1
    32    10    11    1
    33    11    12    1
    34    12    16    1
    35    16    17    1
    36    17    18    1
    37    18    19   ar
    38    19    20   ar
    39    20    21   ar
    40    21    22   ar
    41    22    24    1
    42    24    25    2
    43    24    26    1
    44    22    23   ar
    45    12     7    1
    46    23    18   ar
    47     6     1   ar
    48    40    32   ar
    49    39    34   ar
    50    47    42   ar
    51    28    31    1
    52    26    27    1
@<TRIPOS>MOLECULE
*****
 47 52 0 0 0
SMALL
GASTEIGER

@<TRIPOS>ATOM
      1 C           9.1627   78.7825   24.7896 C.ar    1  UNL1        0.1318
      2 C           9.4679   79.3955   23.5639 C.ar    1  UNL1        0.0356
      3 C          10.1810   80.5952   23.5520 C.ar    1  UNL1        0.0191
      4 C          10.5967   81.1804   24.7584 C.ar    1  UNL1        0.0702
      5 C          10.2464   80.5523   25.9603 C.ar    1  UNL1        0.1149
      6 N           9.5523   79.3839   25.9477 N.ar    1  UNL1       -0.2279
      7 C           6.8831   76.1689   23.4822 C.3     1  UNL1        0.0810
      8 C           7.0547   77.4445   24.3290 C.3     1  UNL1        0.0995
      9 N           8.4285   77.5437   24.8427 N.pl3   1  UNL1       -0.2928
     10 C           8.9723   76.3991   25.5838 C.3     1  UNL1        0.0923
     11 C           8.8464   75.1180   24.7557 C.3     1  UNL1        0.0257
     12 C           7.4001   74.9242   24.2549 C.3     1  UNL1        0.0540
     13 C           6.8020   75.9684   20.8594 C.3     1  UNL1        0.0723
     14 C           7.5333   76.3367   22.1169 C.2     1  UNL1        0.1525
     15 O           8.6657   76.7869   22.0256 O.2     1  UNL1       -0.2960
     16 C           7.2683   73.6336   23.4181 C.3     1  UNL1        0.2058
     17 O           8.3998   72.7815   23.6043 O.3     1  UNL1       -0.4754
     18 C           9.5794   72.8111   22.8423 C.ar    1  UNL1        0.1388
     19 C          10.3183   71.6530   22.5366 C.ar    1  UNL1        0.0369
     20 C          11.4868   71.7460   21.7787 C.ar    1  UNL1        0.0033
     21 C          11.9272   72.9858   21.3105 C.ar    1  UNL1        0.0066
     22 C          11.1950   74.1526   21.5913 C.ar    1  UNL1        0.0785
     23 C          10.0248   74.0506   22.3663 C.ar    1  UNL1        0.0433
     24 C          11.6488   75.4789   21.1057 C.2     1  UNL1        0.3381
     25 O          12.3399   75.5568   20.0552 O.2     1  UNL1       -0.2451
     26 O          11.3448   76.6554   21.7898 O.3     1  UNL1       -0.4771
     27 H          10.8843   76.6595   22.6905 H       1  UNL1        0.2954
     28 N          11.3111   82.4280   24.7875 N.am    1  UNL1       -0.2766
     29 C          12.7376   82.5279   24.9117 C.2     1  UNL1        0.2839
     30 O          13.3875   81.6033   25.4696 O.2     1  UNL1       -0.2665
     31 H          10.7557   83.3117   24.8307 H       1  UNL1        0.1553
     32 C          13.4587   83.7353   24.4719 C.ar    1  UNL1        0.1946
     33 O          13.0268   84.9548   24.7412 O.2     1  UNL1       -0.4492
     34 C          13.8706   85.8071   24.2127 C.ar    1  UNL1        0.1452
     35 C          13.8029   87.1956   24.2470 C.ar    1  UNL1        0.0375
     36 C          14.8228   87.9220   23.6078 C.ar    1  UNL1        0.0031
     37 C          15.8892   87.2538   22.9470 C.ar    1  UNL1        0.0002
     38 C          15.9202   85.8386   22.9366 C.ar    1  UNL1        0.0028
     39 C          14.8919   85.1507   23.5815 C.ar    1  UNL1        0.0337
     40 C          14.6575   83.8006   23.7504 C.ar    1  UNL1        0.0202
     41 C          15.5152   82.6727   23.2614 C.3     1  UNL1        0.0345
     42 C          16.9603   88.0315   22.2740 C.ar    1  UNL1        0.0000
     43 C          16.7806   88.5102   20.9621 C.ar    1  UNL1        0.0000
     44 C          17.7910   89.2422   20.3307 C.ar    1  UNL1        0.0000
     45 C          18.9894   89.5033   20.9986 C.ar    1  UNL1        0.0000
     46 C          19.1801   89.0333   22.2997 C.ar    1  UNL1        0.0000
     47 C          18.1729   88.3016   22.9365 C.ar    1  UNL1        0.0000
@<TRIPOS>BOND
     1    13    14    1
     2    14    15    2
     3    14     7    1
     4     7     8    1
     5     8     9    1
     6     9     1    1
     7     1     2   ar
     8     2     3   ar
     9     3     4   ar
    10     4    28    1
    11    28    29   am
    12    29    30    2
    13    29    32    1
    14    32    33   ar
    15    33    34   ar
    16    34    35   ar
    17    35    36   ar
    18    36    37   ar
    19    37    42    1
    20    42    43   ar
    21    43    44   ar
    22    44    45   ar
    23    45    46   ar
    24    46    47   ar
    25    37    38   ar
    26    38    39   ar
    27    39    40   ar
    28    40    41    1
    29     4     5   ar
    30     5     6   ar
    31     9    10    1
    32    10    11    1
    33    11    12    1
    34    12    16    1
    35    16    17    1
    36    17    18    1
    37    18    19   ar
    38    19    20   ar
    39    20    21   ar
    40    21    22   ar
    41    22    24    1
    42    24    25    2
    43    24    26    1
    44    22    23   ar
    45    12     7    1
    46    23    18   ar
    47     6     1   ar
    48    40    32   ar
    49    39    34   ar
    50    47    42   ar
    51    28    31    1
    52    26    27    1
@<TRIPOS>MOLECULE
*****
 47 52 0 0 0
SMALL
GASTEIGER

@<TRIPOS>ATOM
      1 C           9.2832   78.1545   24.3362 C.ar    1  UNL1        0.1318
      2 C           9.5887   78.7820   23.1179 C.ar    1  UNL1        0.0356
      3 C          10.1797   80.0463   23.1230 C.ar    1  UNL1        0.0191
      4 C          10.4736   80.6823   24.3394 C.ar    1  UNL1        0.0702
      5 C          10.1260   80.0351   25.5320 C.ar    1  UNL1        0.1149
      6 N           9.5520   78.8035   25.5028 N.ar    1  UNL1       -0.2279
      7 C           6.4515   75.7745   24.5685 C.3     1  UNL1        0.0810
      8 C           7.5710   76.5438   25.2955 C.3     1  UNL1        0.0995
      9 N           8.6729   76.8495   24.3717 N.pl3   1  UNL1       -0.2928
     10 C           9.2663   75.7406   23.6146 C.3     1  UNL1        0.0923
     11 C           8.1825   74.9735   22.8531 C.3     1  UNL1        0.0257
     12 C           7.0338   74.5590   23.7960 C.3     1  UNL1        0.0540
     13 C           4.1880   76.9710   23.9591 C.3     1  UNL1        0.0723
     14 C           5.6402   76.7106   23.6850 C.2     1  UNL1        0.1525
     15 O           6.1681   77.2749   22.7383 O.2     1  UNL1       -0.2960
     16 C           5.9376   73.7856   23.0322 C.3     1  UNL1        0.2058
     17 O           5.9974   74.0569   21.6309 O.3     1  UNL1       -0.4754
     18 C           4.9264   74.5012   20.8380 C.ar    1  UNL1        0.1388
     19 C           3.6383   73.9392   20.9132 C.ar    1  UNL1        0.0369
     20 C           2.6143   74.4198   20.0954 C.ar    1  UNL1        0.0033
     21 C           2.8564   75.4668   19.2034 C.ar    1  UNL1        0.0066
     22 C           4.1319   76.0525   19.1243 C.ar    1  UNL1        0.0785
     23 C           5.1611   75.5533   19.9440 C.ar    1  UNL1        0.0433
     24 C           4.4093   77.1630   18.1805 C.2     1  UNL1        0.3381
     25 O           4.5202   78.3401   18.6157 O.2     1  UNL1       -0.2451
     26 O           4.5381   76.9468   16.8089 O.3     1  UNL1       -0.4771
     27 H           4.3600   76.0487   16.3789 H       1  UNL1        0.2954
     28 N          11.0591   81.9949   24.3849 N.am    1  UNL1       -0.2766
     29 C          12.4214   82.2483   24.7593 C.2     1  UNL1        0.2839
     30 O          13.0296   81.4383   25.5094 O.2     1  UNL1       -0.2665
     31 H          10.4318   82.8182   24.2441 H       1  UNL1        0.1553
     32 C          13.1068   83.4871   24.3507 C.ar    1  UNL1        0.1946
     33 O          12.5516   84.6791   24.4816 O.2     1  UNL1       -0.4492
     34 C          13.3971   85.5699   24.0244 C.ar    1  UNL1        0.1452
     35 C          13.2225   86.9481   23.9632 C.ar    1  UNL1        0.0375
     36 C          14.2671   87.7226   23.4288 C.ar    1  UNL1        0.0031
     37 C          15.4639   87.1116   22.9655 C.ar    1  UNL1        0.0002
     38 C          15.6008   85.7051   23.0467 C.ar    1  UNL1        0.0028
     39 C          14.5443   84.9685   23.5832 C.ar    1  UNL1        0.0337
     40 C          14.3887   83.6140   23.8006 C.ar    1  UNL1        0.0202
     41 C          15.3890   82.5371   23.5063 C.3     1  UNL1        0.0345
     42 C          16.5601   87.9397   22.4017 C.ar    1  UNL1        0.0000
     43 C          16.4684   88.4542   21.0942 C.ar    1  UNL1        0.0000
     44 C          17.5022   89.2335   20.5657 C.ar    1  UNL1        0.0000
     45 C          18.6367   89.5068   21.3330 C.ar    1  UNL1        0.0000
     46 C          18.7398   89.0017   22.6309 C.ar    1  UNL1        0.0000
     47 C          17.7088   88.2226   23.1649 C.ar    1  UNL1        0.0000
@<TRIPOS>BOND
     1    13    14    1
     2    14    15    2
     3    14     7    1
     4     7     8    1
     5     8     9    1
     6     9     1    1
     7     1     2   ar
     8     2     3   ar
     9     3     4   ar
    10     4    28    1
    11    28    29   am
    12    29    30    2
    13    29    32    1
    14    32    33   ar
    15    33    34   ar
    16    34    35   ar
    17    35    36   ar
    18    36    37   ar
    19    37    42    1
    20    42    43   ar
    21    43    44   ar
    22    44    45   ar
    23    45    46   ar
    24    46    47   ar
    25    37    38   ar
    26    38    39   ar
    27    39    40   ar
    28    40    41    1
    29     4     5   ar
    30     5     6   ar
    31     9    10    1
    32    10    11    1
    33    11    12    1
    34    12    16    1
    35    16    17    1
    36    17    18    1
    37    18    19   ar
    38    19    20   ar
    39    20    21   ar
    40    21    22   ar
    41    22    24    1
    42    24    25    2
    43    24    26    1
    44    22    23   ar
    45    12     7    1
    46    23    18   ar
    47     6     1   ar
    48    40    32   ar
    49    39    34   ar
    50    47    42   ar
    51    28    31    1
    52    26    27    1
@<TRIPOS>MOLECULE
*****
 47 52 0 0 0
SMALL
GASTEIGER

@<TRIPOS>ATOM
      1 C           8.6981   77.2557   23.3738 C.ar    1  UNL1        0.1318
      2 C           8.8040   78.3114   22.4544 C.ar    1  UNL1        0.0356
      3 C           9.4522   79.4893   22.8289 C.ar    1  UNL1        0.0191
      4 C          10.0014   79.6136   24.1149 C.ar    1  UNL1        0.0702
      5 C           9.8483   78.5485   25.0117 C.ar    1  UNL1        0.1149
      6 N           9.2140   77.4106   24.6246 N.ar    1  UNL1       -0.2279
      7 C           5.7978   74.9679   23.0718 C.3     1  UNL1        0.0810
      8 C           7.0143   75.4288   23.8971 C.3     1  UNL1        0.0995
      9 N           8.0363   76.0243   23.0241 N.pl3   1  UNL1       -0.2928
     10 C           8.5053   75.2393   21.8757 C.3     1  UNL1        0.0923
     11 C           7.3211   74.7919   21.0152 C.3     1  UNL1        0.0257
     12 C           6.2496   74.0882   21.8736 C.3     1  UNL1        0.0540
     13 C           3.5207   76.2872   23.0936 C.3     1  UNL1        0.0723
     14 C           4.9490   76.1587   22.6517 C.2     1  UNL1        0.1525
     15 O           5.4268   77.0385   21.9508 O.2     1  UNL1       -0.2960
     16 C           5.0525   73.6359   21.0101 C.3     1  UNL1        0.2058
     17 O           5.0400   74.3131   19.7523 O.3     1  UNL1       -0.4754
     18 C           3.9627   75.0483   19.2306 C.ar    1  UNL1        0.1388
     19 C           4.1354   76.2393   18.5009 C.ar    1  UNL1        0.0369
     20 C           3.0252   76.9293   18.0114 C.ar    1  UNL1        0.0033
     21 C           1.7362   76.4400   18.2334 C.ar    1  UNL1        0.0066
     22 C           1.5429   75.2437   18.9461 C.ar    1  UNL1        0.0785
     23 C           2.6675   74.5614   19.4462 C.ar    1  UNL1        0.0433
     24 C           0.1813   74.7101   19.1951 C.2     1  UNL1        0.3381
     25 O           0.0250   73.4829   19.4332 O.2     1  UNL1       -0.2451
     26 O          -0.9468   75.5290   19.1593 O.3     1  UNL1       -0.4771
     27 H          -0.9084   76.4988   18.8743 H       1  UNL1        0.2954
     28 N          10.6543   80.8202   24.5455 N.am    1  UNL1       -0.2766
     29 C          12.0654   80.9208   24.7883 C.2     1  UNL1        0.2839
     30 O          12.7253   79.8939   25.1023 O.2     1  UNL1       -0.2665
     31 H          10.0569   81.6382   24.8009 H       1  UNL1        0.1553
     32 C          12.7533   82.2236   24.7594 C.ar    1  UNL1        0.1946
     33 O          12.8625   82.9417   23.6554 O.2     1  UNL1       -0.4492
     34 C          13.5286   84.0318   23.9479 C.ar    1  UNL1        0.1452
     35 C          13.8780   85.0659   23.0865 C.ar    1  UNL1        0.0375
     36 C          14.6012   86.1494   23.6152 C.ar    1  UNL1        0.0031
     37 C          14.9629   86.1830   24.9894 C.ar    1  UNL1        0.0002
     38 C          14.5864   85.1096   25.8320 C.ar    1  UNL1        0.0028
     39 C          13.8689   84.0515   25.2731 C.ar    1  UNL1        0.0337
     40 C          13.3608   82.8942   25.8285 C.ar    1  UNL1        0.0202
     41 C          13.4509   82.4730   27.2643 C.3     1  UNL1        0.0345
     42 C          15.7280   87.3321   25.5366 C.ar    1  UNL1        0.0000
     43 C          16.8753   87.8085   24.8740 C.ar    1  UNL1        0.0000
     44 C          17.5940   88.8906   25.3915 C.ar    1  UNL1        0.0000
     45 C          17.1781   89.5074   26.5735 C.ar    1  UNL1        0.0000
     46 C          16.0422   89.0437   27.2405 C.ar    1  UNL1        0.0000
     47 C          15.3191   87.9626   26.7272 C.ar    1  UNL1        0.0000
@<TRIPOS>BOND
     1    13    14    1
     2    14    15    2
     3    14     7    1
     4     7     8    1
     5     8     9    1
     6     9     1    1
     7     1     2   ar
     8     2     3   ar
     9     3     4   ar
    10     4    28    1
    11    28    29   am
    12    29    30    2
    13    29    32    1
    14    32    33   ar
    15    33    34   ar
    16    34    35   ar
    17    35    36   ar
    18    36    37   ar
    19    37    42    1
    20    42    43   ar
    21    43    44   ar
    22    44    45   ar
    23    45    46   ar
    24    46    47   ar
    25    37    38   ar
    26    38    39   ar
    27    39    40   ar
    28    40    41    1
    29     4     5   ar
    30     5     6   ar
    31     9    10    1
    32    10    11    1
    33    11    12    1
    34    12    16    1
    35    16    17    1
    36    17    18    1
    37    18    19   ar
    38    19    20   ar
    39    20    21   ar
    40    21    22   ar
    41    22    24    1
    42    24    25    2
    43    24    26    1
    44    22    23   ar
    45    12     7    1
    46    23    18   ar
    47     6     1   ar
    48    40    32   ar
    49    39    34   ar
    50    47    42   ar
    51    28    31    1
    52    26    27    1
