@<TRIPOS>MOLECULE
*****
 45 50 0 0 0
SMALL
GASTEIGER

@<TRIPOS>ATOM
      1 C          61.9141   88.0397    9.9393 C.ar    1  UNL1        0.0702
      2 C          60.7901   88.1781    9.1118 C.ar    1  UNL1        0.0191
      3 C          60.0764   87.0509    8.7012 C.ar    1  UNL1        0.0356
      4 C          60.4810   85.7721    9.1303 C.ar    1  UNL1        0.1323
      5 N          61.5652   85.6729    9.9514 N.ar    1  UNL1       -0.2279
      6 C          62.2743   86.7560   10.3639 C.ar    1  UNL1        0.1149
      7 N          59.7740   84.5722    8.7242 N.pl3   1  UNL1       -0.2861
      8 C          58.2987   84.5617    8.7141 C.3     1  UNL1        0.0930
      9 C          57.7252   83.2839    8.0990 C.3     1  UNL1        0.0253
     10 C          58.4070   82.0606    8.7184 C.3     1  UNL1        0.0479
     11 C          59.9356   82.0709    8.4684 C.3     1  UNL1        0.0344
     12 C          60.5356   83.4549    8.1312 C.3     1  UNL1        0.1270
     13 I          60.7089   83.7434    6.0072 I       1  UNL1       -0.0531
     14 C          57.7601   80.7622    8.1976 C.3     1  UNL1        0.2054
     15 O          57.5162   79.8449    9.2655 O.3     1  UNL1       -0.4755
     16 C          57.9964   79.9728   10.5793 C.ar    1  UNL1        0.1388
     17 C          58.2780   78.8639   11.3988 C.ar    1  UNL1        0.0369
     18 C          58.7563   79.0541   12.6964 C.ar    1  UNL1        0.0033
     19 C          58.9573   80.3441   13.1922 C.ar    1  UNL1        0.0066
     20 C          58.6772   81.4651   12.3915 C.ar    1  UNL1        0.0785
     21 C          58.2069   81.2634   11.0805 C.ar    1  UNL1        0.0433
     22 C          58.8908   82.8429   12.8981 C.2     1  UNL1        0.3381
     23 O          60.0228   83.1786   13.3377 O.2     1  UNL1       -0.2451
     24 O          57.8721   83.7952   12.8899 O.3     1  UNL1       -0.4771
     25 H          56.9724   83.6281   12.4589 H       1  UNL1        0.2954
     26 C          62.5596   89.7107   11.7322 C.2     1  UNL1        0.2839
     27 O          61.5072   89.5360   12.4034 O.2     1  UNL1       -0.2665
     28 N          62.6587   89.1795   10.4024 N.am    1  UNL1       -0.2766
     29 H          63.2198   89.7168    9.7042 H       1  UNL1        0.1553
     30 C          64.2994   89.1043   14.3905 C.3     1  UNL1        0.0345
     31 C          64.3983   90.2696   13.4528 C.ar    1  UNL1        0.0202
     32 C          63.6380   90.5342   12.3067 C.ar    1  UNL1        0.1946
     33 O          64.0121   91.6834   11.7720 O.2     1  UNL1       -0.4492
     34 C          64.9900   92.1665   12.4986 C.ar    1  UNL1        0.1452
     35 C          65.6889   93.3513   12.2952 C.ar    1  UNL1        0.0375
     36 C          66.7128   93.6775   13.2018 C.ar    1  UNL1        0.0031
     37 C          67.0211   92.8196   14.2923 C.ar    1  UNL1        0.0002
     38 C          66.2833   91.6237   14.4640 C.ar    1  UNL1        0.0028
     39 C          65.2745   91.3326   13.5454 C.ar    1  UNL1        0.0337
     40 C          68.1056   93.1736   15.2431 C.ar    1  UNL1        0.0000
     41 C          68.3920   94.5213   15.5327 C.ar    1  UNL1        0.0000
     42 C          69.4145   94.8516   16.4275 C.ar    1  UNL1        0.0000
     43 C          70.1605   93.8438   17.0425 C.ar    1  UNL1        0.0000
     44 C          69.8860   92.5032   16.7638 C.ar    1  UNL1        0.0000
     45 C          68.8653   92.1670   15.8692 C.ar    1  UNL1        0.0000
@<TRIPOS>BOND
     1    30    31    1
     2    31    32   ar
     3    32    26    1
     4    26    27    2
     5    26    28   am
     6    28     1    1
     7     1     2   ar
     8     2     3   ar
     9     3     4   ar
    10     4     7    1
    11     7     8    1
    12     8     9    1
    13     9    10    1
    14    10    14    1
    15    14    15    1
    16    15    16    1
    17    16    17   ar
    18    17    18   ar
    19    18    19   ar
    20    19    20   ar
    21    20    22    1
    22    22    23    2
    23    22    24    1
    24    20    21   ar
    25    10    11    1
    26    11    12    1
    27    12    13    1
    28     4     5   ar
    29     5     6   ar
    30    32    33   ar
    31    33    34   ar
    32    34    35   ar
    33    35    36   ar
    34    36    37   ar
    35    37    40    1
    36    40    41   ar
    37    41    42   ar
    38    42    43   ar
    39    43    44   ar
    40    44    45   ar
    41    37    38   ar
    42    38    39   ar
    43    39    31   ar
    44     6     1   ar
    45    39    34   ar
    46    12     7    1
    47    45    40   ar
    48    21    16   ar
    49    28    29    1
    50    24    25    1
@<TRIPOS>MOLECULE
*****
 45 50 0 0 0
SMALL
GASTEIGER

@<TRIPOS>ATOM
      1 C          60.9127   89.1473    8.9095 C.ar    1  UNL1        0.0702
      2 C          61.6317   89.9600    9.7983 C.ar    1  UNL1        0.0191
      3 C          61.6667   89.6534   11.1596 C.ar    1  UNL1        0.0356
      4 C          60.9871   88.5166   11.6384 C.ar    1  UNL1        0.1323
      5 N          60.3147   87.7351   10.7458 N.ar    1  UNL1       -0.2279
      6 C          60.2675   88.0141    9.4169 C.ar    1  UNL1        0.1149
      7 N          60.9904   88.1623   13.0451 N.pl3   1  UNL1       -0.2861
      8 C          61.4431   89.1476   14.0456 C.3     1  UNL1        0.0930
      9 C          61.2190   88.6710   15.4818 C.3     1  UNL1        0.0253
     10 C          61.7558   87.2459   15.6435 C.3     1  UNL1        0.0479
     11 C          61.0420   86.2550   14.6907 C.3     1  UNL1        0.0344
     12 C          60.3481   86.9028   13.4709 C.3     1  UNL1        0.1270
     13 I          58.2578   87.2454   13.8422 I       1  UNL1       -0.0531
     14 C          61.6461   86.7926   17.1125 C.3     1  UNL1        0.2054
     15 O          62.3498   85.5677   17.3266 O.3     1  UNL1       -0.4755
     16 C          63.0542   84.8473   16.3480 C.ar    1  UNL1        0.1388
     17 C          64.2866   85.2795   15.8236 C.ar    1  UNL1        0.0369
     18 C          64.9418   84.5188   14.8537 C.ar    1  UNL1        0.0033
     19 C          64.3801   83.3254   14.3949 C.ar    1  UNL1        0.0066
     20 C          63.1473   82.8788   14.9021 C.ar    1  UNL1        0.0785
     21 C          62.5001   83.6461   15.8884 C.ar    1  UNL1        0.0433
     22 C          62.5382   81.6104   14.4321 C.2     1  UNL1        0.3381
     23 O          63.1617   80.5256   14.5793 O.2     1  UNL1       -0.2451
     24 O          61.2764   81.5764   13.8394 O.3     1  UNL1       -0.4771
     25 H          60.6779   82.3900   13.7829 H       1  UNL1        0.2954
     26 C          59.7642   90.0399    6.8341 C.2     1  UNL1        0.2839
     27 O          58.6064   89.9488    7.3238 O.2     1  UNL1       -0.2665
     28 N          60.8746   89.4178    7.4976 N.am    1  UNL1       -0.2766
     29 H          61.6490   89.0443    6.9045 H       1  UNL1        0.1553
     30 C          57.4442   91.1324    4.8630 C.3     1  UNL1        0.0345
     31 C          58.9311   91.2008    4.6865 C.ar    1  UNL1        0.0202
     32 C          59.9338   90.7195    5.5377 C.ar    1  UNL1        0.1946
     33 O          61.1232   90.9471    5.0084 O.2     1  UNL1       -0.4492
     34 C          60.9447   91.5706    3.8695 C.ar    1  UNL1        0.1452
     35 C          61.9227   92.0106    2.9843 C.ar    1  UNL1        0.0375
     36 C          61.5054   92.6669    1.8129 C.ar    1  UNL1        0.0031
     37 C          60.1247   92.8722    1.5451 C.ar    1  UNL1        0.0002
     38 C          59.1617   92.4063    2.4723 C.ar    1  UNL1        0.0028
     39 C          59.6121   91.7594    3.6233 C.ar    1  UNL1        0.0337
     40 C          59.6955   93.5678    0.3053 C.ar    1  UNL1        0.0000
     41 C          60.6361   94.2309   -0.5057 C.ar    1  UNL1        0.0000
     42 C          60.2289   94.8860   -1.6720 C.ar    1  UNL1        0.0000
     43 C          58.8823   94.8864   -2.0421 C.ar    1  UNL1        0.0000
     44 C          57.9395   94.2320   -1.2462 C.ar    1  UNL1        0.0000
     45 C          58.3408   93.5761   -0.0784 C.ar    1  UNL1        0.0000
@<TRIPOS>BOND
     1    30    31    1
     2    31    32   ar
     3    32    26    1
     4    26    27    2
     5    26    28   am
     6    28     1    1
     7     1     2   ar
     8     2     3   ar
     9     3     4   ar
    10     4     7    1
    11     7     8    1
    12     8     9    1
    13     9    10    1
    14    10    14    1
    15    14    15    1
    16    15    16    1
    17    16    17   ar
    18    17    18   ar
    19    18    19   ar
    20    19    20   ar
    21    20    22    1
    22    22    23    2
    23    22    24    1
    24    20    21   ar
    25    10    11    1
    26    11    12    1
    27    12    13    1
    28     4     5   ar
    29     5     6   ar
    30    32    33   ar
    31    33    34   ar
    32    34    35   ar
    33    35    36   ar
    34    36    37   ar
    35    37    40    1
    36    40    41   ar
    37    41    42   ar
    38    42    43   ar
    39    43    44   ar
    40    44    45   ar
    41    37    38   ar
    42    38    39   ar
    43    39    31   ar
    44     6     1   ar
    45    39    34   ar
    46    12     7    1
    47    45    40   ar
    48    21    16   ar
    49    28    29    1
    50    24    25    1
@<TRIPOS>MOLECULE
*****
 45 50 0 0 0
SMALL
GASTEIGER

@<TRIPOS>ATOM
      1 C          59.5831   88.0171    7.2552 C.ar    1  UNL1        0.0702
      2 C          60.1661   88.4206    8.4654 C.ar    1  UNL1        0.0191
      3 C          60.3283   87.5055    9.5070 C.ar    1  UNL1        0.0356
      4 C          59.9156   86.1701    9.3357 C.ar    1  UNL1        0.1323
      5 N          59.3717   85.8043    8.1398 N.ar    1  UNL1       -0.2279
      6 C          59.2047   86.6776    7.1124 C.ar    1  UNL1        0.1149
      7 N          60.0586   85.1861   10.3919 N.pl3   1  UNL1       -0.2861
      8 C          59.8173   85.5786   11.7935 C.3     1  UNL1        0.0930
      9 C          59.8434   84.3850   12.7500 C.3     1  UNL1        0.0253
     10 C          61.0937   83.5402   12.4887 C.3     1  UNL1        0.0479
     11 C          61.1226   82.9957   11.0390 C.3     1  UNL1        0.0344
     12 C          60.2382   83.7655   10.0317 C.3     1  UNL1        0.1270
     13 I          58.3165   82.8302    9.7936 I       1  UNL1       -0.0531
     14 C          61.1983   82.4000   13.5205 C.3     1  UNL1        0.2054
     15 O          62.4476   82.4458   14.2126 O.3     1  UNL1       -0.4755
     16 C          63.0791   83.6084   14.6841 C.ar    1  UNL1        0.1388
     17 C          64.3339   84.0380   14.2135 C.ar    1  UNL1        0.0369
     18 C          64.9108   85.2045   14.7186 C.ar    1  UNL1        0.0033
     19 C          64.2497   85.9529   15.6949 C.ar    1  UNL1        0.0066
     20 C          62.9979   85.5382   16.1821 C.ar    1  UNL1        0.0785
     21 C          62.4187   84.3675   15.6582 C.ar    1  UNL1        0.0433
     22 C          62.2774   86.3235   17.2140 C.2     1  UNL1        0.3381
     23 O          62.8190   86.5312   18.3324 O.2     1  UNL1       -0.2451
     24 O          61.0114   86.8589   16.9791 O.3     1  UNL1       -0.4771
     25 H          60.5619   86.8202   16.0737 H       1  UNL1        0.2954
     26 C          59.6709   90.3365    6.2375 C.2     1  UNL1        0.2839
     27 O          59.5734   90.9271    7.3467 O.2     1  UNL1       -0.2665
     28 N          59.4227   88.9253    6.1518 N.am    1  UNL1       -0.2766
     29 H          58.9990   88.5582    5.2706 H       1  UNL1        0.1553
     30 C          62.4498   90.4829    4.5891 C.3     1  UNL1        0.0345
     31 C          61.1591   91.1932    4.3125 C.ar    1  UNL1        0.0202
     32 C          59.9593   91.1345    5.0327 C.ar    1  UNL1        0.1946
     33 O          59.0629   91.9347    4.4827 O.2     1  UNL1       -0.4492
     34 C          59.6115   92.4918    3.4309 C.ar    1  UNL1        0.1452
     35 C          59.0263   93.3953    2.5507 C.ar    1  UNL1        0.0375
     36 C          59.8017   93.8672    1.4770 C.ar    1  UNL1        0.0031
     37 C          61.1430   93.4315    1.2999 C.ar    1  UNL1        0.0002
     38 C          61.7007   92.5121    2.2206 C.ar    1  UNL1        0.0028
     39 C          60.9023   92.0657    3.2739 C.ar    1  UNL1        0.0337
     40 C          61.9522   93.9356    0.1614 C.ar    1  UNL1        0.0000
     41 C          63.3585   93.9399    0.2291 C.ar    1  UNL1        0.0000
     42 C          64.1179   94.4162   -0.8440 C.ar    1  UNL1        0.0000
     43 C          63.4847   94.8918   -1.9944 C.ar    1  UNL1        0.0000
     44 C          62.0904   94.8925   -2.0740 C.ar    1  UNL1        0.0000
     45 C          61.3259   94.4183   -1.0036 C.ar    1  UNL1        0.0000
@<TRIPOS>BOND
     1    30    31    1
     2    31    32   ar
     3    32    26    1
     4    26    27    2
     5    26    28   am
     6    28     1    1
     7     1     2   ar
     8     2     3   ar
     9     3     4   ar
    10     4     7    1
    11     7     8    1
    12     8     9    1
    13     9    10    1
    14    10    14    1
    15    14    15    1
    16    15    16    1
    17    16    17   ar
    18    17    18   ar
    19    18    19   ar
    20    19    20   ar
    21    20    22    1
    22    22    23    2
    23    22    24    1
    24    20    21   ar
    25    10    11    1
    26    11    12    1
    27    12    13    1
    28     4     5   ar
    29     5     6   ar
    30    32    33   ar
    31    33    34   ar
    32    34    35   ar
    33    35    36   ar
    34    36    37   ar
    35    37    40    1
    36    40    41   ar
    37    41    42   ar
    38    42    43   ar
    39    43    44   ar
    40    44    45   ar
    41    37    38   ar
    42    38    39   ar
    43    39    31   ar
    44     6     1   ar
    45    39    34   ar
    46    12     7    1
    47    45    40   ar
    48    21    16   ar
    49    28    29    1
    50    24    25    1
@<TRIPOS>MOLECULE
*****
 45 50 0 0 0
SMALL
GASTEIGER

@<TRIPOS>ATOM
      1 C          59.3102   88.3602    7.0139 C.ar    1  UNL1        0.0702
      2 C          60.0702   88.6583    8.1544 C.ar    1  UNL1        0.0191
      3 C          60.0265   87.8175    9.2678 C.ar    1  UNL1        0.0356
      4 C          59.2251   86.6599    9.2392 C.ar    1  UNL1        0.1323
      5 N          58.5145   86.3869    8.1077 N.ar    1  UNL1       -0.2279
      6 C          58.5423   87.1905    7.0125 C.ar    1  UNL1        0.1149
      7 N          59.1436   85.7605   10.3744 N.pl3   1  UNL1       -0.2861
      8 C          60.2595   84.8377   10.6569 C.3     1  UNL1        0.0930
      9 C          60.0825   84.0905   11.9800 C.3     1  UNL1        0.0253
     10 C          58.6745   83.4927   12.0520 C.3     1  UNL1        0.0479
     11 C          57.5835   84.5890   11.9689 C.3     1  UNL1        0.0344
     12 C          58.0440   85.9265   11.3458 C.3     1  UNL1        0.1270
     13 I          58.6206   87.3436   12.8570 I       1  UNL1       -0.0531
     14 C          58.5172   82.6371   13.3243 C.3     1  UNL1        0.2054
     15 O          58.9722   81.3006   13.1048 O.3     1  UNL1       -0.4755
     16 C          60.3111   80.9091   12.9404 C.ar    1  UNL1        0.1388
     17 C          60.7686   80.2185   11.8028 C.ar    1  UNL1        0.0369
     18 C          62.1129   79.8579   11.6945 C.ar    1  UNL1        0.0033
     19 C          63.0132   80.1773   12.7131 C.ar    1  UNL1        0.0066
     20 C          62.5753   80.8623   13.8600 C.ar    1  UNL1        0.0785
     21 C          61.2208   81.2323   13.9549 C.ar    1  UNL1        0.0433
     22 C          63.5179   81.2162   14.9495 C.2     1  UNL1        0.3381
     23 O          64.2082   80.3149   15.4959 O.2     1  UNL1       -0.2451
     24 O          63.6786   82.5315   15.3839 O.3     1  UNL1       -0.4771
     25 H          63.2362   83.3161   14.9236 H       1  UNL1        0.2954
     26 C          59.3786   90.6240    5.8764 C.2     1  UNL1        0.2839
     27 O          58.8984   91.2386    6.8665 O.2     1  UNL1       -0.2665
     28 N          59.3494   89.1893    5.8396 N.am    1  UNL1       -0.2766
     29 H          59.2409   88.7284    4.9086 H       1  UNL1        0.1553
     30 C          62.3406   90.5216    4.5813 C.3     1  UNL1        0.0345
     31 C          61.1668   91.3573    4.1679 C.ar    1  UNL1        0.0202
     32 C          59.8873   91.4058    4.7357 C.ar    1  UNL1        0.1946
     33 O          59.1452   92.2963    4.1010 O.2     1  UNL1       -0.4492
     34 C          59.8693   92.8112    3.1376 C.ar    1  UNL1        0.1452
     35 C          59.4850   93.7786    2.2156 C.ar    1  UNL1        0.0375
     36 C          60.4278   94.1869    1.2559 C.ar    1  UNL1        0.0031
     37 C          61.7334   93.6256    1.2320 C.ar    1  UNL1        0.0002
     38 C          62.0841   92.6446    2.1905 C.ar    1  UNL1        0.0028
     39 C          61.1234   92.2641    3.1278 C.ar    1  UNL1        0.0337
     40 C          62.7207   94.0636    0.2129 C.ar    1  UNL1        0.0000
     41 C          62.3219   94.2939   -1.1176 C.ar    1  UNL1        0.0000
     42 C          63.2540   94.7052   -2.0753 C.ar    1  UNL1        0.0000
     43 C          64.5910   94.8917   -1.7175 C.ar    1  UNL1        0.0000
     44 C          64.9992   94.6669   -0.4009 C.ar    1  UNL1        0.0000
     45 C          64.0717   94.2546    0.5608 C.ar    1  UNL1        0.0000
@<TRIPOS>BOND
     1    30    31    1
     2    31    32   ar
     3    32    26    1
     4    26    27    2
     5    26    28   am
     6    28     1    1
     7     1     2   ar
     8     2     3   ar
     9     3     4   ar
    10     4     7    1
    11     7     8    1
    12     8     9    1
    13     9    10    1
    14    10    14    1
    15    14    15    1
    16    15    16    1
    17    16    17   ar
    18    17    18   ar
    19    18    19   ar
    20    19    20   ar
    21    20    22    1
    22    22    23    2
    23    22    24    1
    24    20    21   ar
    25    10    11    1
    26    11    12    1
    27    12    13    1
    28     4     5   ar
    29     5     6   ar
    30    32    33   ar
    31    33    34   ar
    32    34    35   ar
    33    35    36   ar
    34    36    37   ar
    35    37    40    1
    36    40    41   ar
    37    41    42   ar
    38    42    43   ar
    39    43    44   ar
    40    44    45   ar
    41    37    38   ar
    42    38    39   ar
    43    39    31   ar
    44     6     1   ar
    45    39    34   ar
    46    12     7    1
    47    45    40   ar
    48    21    16   ar
    49    28    29    1
    50    24    25    1
