@<TRIPOS>MOLECULE
*****
 29 31 0 0 0
SMALL
GASTEIGER

@<TRIPOS>ATOM
      1 C         -22.7595   -7.3267  -13.2497 C.ar    1  UNL1        0.3134
      2 N         -21.6918   -7.1512  -12.4490 N.ar    1  UNL1       -0.1854
      3 C         -22.2011   -6.3311  -11.5070 C.ar    1  UNL1        0.2051
      4 N         -23.4990   -6.0390  -11.7190 N.ar    1  UNL1       -0.0582
      5 O         -23.8048   -6.6681  -12.8126 O.2     1  UNL1       -0.3279
      6 N         -22.1871   -9.4835  -14.4193 N.am    1  UNL1       -0.2930
      7 C         -22.7574   -8.1669  -14.4529 C.2     1  UNL1        0.3025
      8 O         -23.2715   -7.7236  -15.5149 O.2     1  UNL1       -0.2649
      9 H         -21.8245   -9.8637  -13.5158 H       1  UNL1        0.1502
     10 C         -22.1014  -10.3299  -15.6070 C.3     1  UNL1        0.1168
     11 C         -23.3955  -13.8288  -14.8460 C.ar    1  UNL1        0.0584
     12 C         -23.3589  -12.4792  -15.2381 C.ar    1  UNL1        0.0121
     13 C         -22.1433  -11.7814  -15.2146 C.ar    1  UNL1        0.0002
     14 C         -20.9820  -12.4429  -14.7938 C.ar    1  UNL1        0.0180
     15 C         -21.0549  -13.7836  -14.4136 C.ar    1  UNL1        0.0982
     16 N         -22.2450  -14.4388  -14.4470 N.ar    1  UNL1       -0.2482
     17 C         -25.8222  -13.8242  -14.1995 C.3     1  UNL1        0.0063
     18 C         -24.6836  -14.6192  -14.8489 C.3     1  UNL1        0.0403
     19 C         -25.0578  -15.0651  -16.2671 C.3     1  UNL1        0.0063
     20 C         -21.4408   -5.8989  -10.2965 C.3     1  UNL1        0.2245
     21 S         -21.4991   -7.1753   -9.0512 S.O2    1  UNL1        0.0162
     22 O         -20.4932   -6.8737   -7.9761 O.2     1  UNL1       -0.1682
     23 O         -22.8684   -7.2113   -8.4316 O.2     1  UNL1       -0.1682
     24 C         -21.1297   -8.7355   -9.7823 C.ar    1  UNL1        0.1062
     25 C         -19.7955   -9.1243   -9.9680 C.ar    1  UNL1        0.0184
     26 C         -19.4985  -10.3370  -10.5980 C.ar    1  UNL1        0.0013
     27 C         -20.5317  -11.1624  -11.0511 C.ar    1  UNL1        0.0001
     28 C         -21.8634  -10.7763  -10.8738 C.ar    1  UNL1        0.0013
     29 C         -22.1634   -9.5659  -10.2414 C.ar    1  UNL1        0.0184
@<TRIPOS>BOND
     1    17    18    1
     2    18    19    1
     3    18    11    1
     4    11    12   ar
     5    12    13   ar
     6    13    10    1
     7    10     6    1
     8     6     7   am
     9     7     8    2
    10     7     1    1
    11     1     2   ar
    12     2     3   ar
    13     3    20    1
    14    20    21    1
    15    21    22    2
    16    21    23    2
    17    21    24    1
    18    24    25   ar
    19    25    26   ar
    20    26    27   ar
    21    27    28   ar
    22    28    29   ar
    23     3     4   ar
    24     4     5   ar
    25    13    14   ar
    26    14    15   ar
    27    15    16   ar
    28    16    11   ar
    29     5     1   ar
    30    29    24   ar
    31     6     9    1
@<TRIPOS>MOLECULE
*****
 29 31 0 0 0
SMALL
GASTEIGER

@<TRIPOS>ATOM
      1 C         -23.5936   -7.1734  -17.6083 C.ar    1  UNL1        0.3134
      2 N         -24.1690   -5.9794  -17.3730 N.ar    1  UNL1       -0.1854
      3 C         -24.9306   -5.8321  -18.4765 C.ar    1  UNL1        0.2051
      4 N         -24.8307   -6.8775  -19.3201 N.ar    1  UNL1       -0.0582
      5 O         -23.9866   -7.6825  -18.7502 O.2     1  UNL1       -0.3279
      6 N         -23.1142   -8.8551  -15.7946 N.am    1  UNL1       -0.2930
      7 C         -22.6566   -7.8313  -16.6904 C.2     1  UNL1        0.3025
      8 O         -21.4420   -7.4947  -16.7039 O.2     1  UNL1       -0.2649
      9 H         -24.1094   -9.1709  -15.8404 H       1  UNL1        0.1502
     10 C         -22.2338   -9.4905  -14.8171 C.3     1  UNL1        0.1168
     11 C         -23.7875  -12.9585  -15.0509 C.ar    1  UNL1        0.0584
     12 C         -23.6536  -11.5594  -15.0185 C.ar    1  UNL1        0.0121
     13 C         -22.3820  -10.9862  -14.8797 C.ar    1  UNL1        0.0002
     14 C         -21.2623  -11.8215  -14.7700 C.ar    1  UNL1        0.0180
     15 C         -21.4323  -13.2061  -14.8083 C.ar    1  UNL1        0.0982
     16 N         -22.6754  -13.7376  -14.9456 N.ar    1  UNL1       -0.2482
     17 C         -25.0321  -14.9317  -15.9808 C.3     1  UNL1        0.0063
     18 C         -25.1384  -13.6212  -15.1925 C.3     1  UNL1        0.0403
     19 C         -25.7908  -13.8493  -13.8241 C.3     1  UNL1        0.0063
     20 C         -25.8747   -4.6924  -18.6763 C.3     1  UNL1        0.2245
     21 S         -26.4602   -4.1010  -17.0982 S.O2    1  UNL1        0.0162
     22 O         -26.5037   -5.2410  -16.1199 O.2     1  UNL1       -0.1682
     23 O         -25.5190   -3.0529  -16.5731 O.2     1  UNL1       -0.1682
     24 C         -28.0752   -3.4201  -17.2812 C.ar    1  UNL1        0.1062
     25 C         -29.0385   -3.6227  -16.2828 C.ar    1  UNL1        0.0184
     26 C         -30.3371   -3.1313  -16.4497 C.ar    1  UNL1        0.0013
     27 C         -30.6807   -2.4423  -17.6165 C.ar    1  UNL1        0.0001
     28 C         -29.7256   -2.2431  -18.6174 C.ar    1  UNL1        0.0013
     29 C         -28.4255   -2.7305  -18.4519 C.ar    1  UNL1        0.0184
@<TRIPOS>BOND
     1    17    18    1
     2    18    19    1
     3    18    11    1
     4    11    12   ar
     5    12    13   ar
     6    13    10    1
     7    10     6    1
     8     6     7   am
     9     7     8    2
    10     7     1    1
    11     1     2   ar
    12     2     3   ar
    13     3    20    1
    14    20    21    1
    15    21    22    2
    16    21    23    2
    17    21    24    1
    18    24    25   ar
    19    25    26   ar
    20    26    27   ar
    21    27    28   ar
    22    28    29   ar
    23     3     4   ar
    24     4     5   ar
    25    13    14   ar
    26    14    15   ar
    27    15    16   ar
    28    16    11   ar
    29     5     1   ar
    30    29    24   ar
    31     6     9    1
@<TRIPOS>MOLECULE
*****
 29 31 0 0 0
SMALL
GASTEIGER

@<TRIPOS>ATOM
      1 C         -22.6851   -7.2086  -13.2023 C.ar    1  UNL1        0.3134
      2 N         -21.6170   -6.9076  -12.4401 N.ar    1  UNL1       -0.1854
      3 C         -22.2134   -6.4412  -11.3238 C.ar    1  UNL1        0.2051
      4 N         -23.5579   -6.4697  -11.4022 N.ar    1  UNL1       -0.0582
      5 O         -23.8099   -6.9435  -12.5843 O.2     1  UNL1       -0.3279
      6 N         -21.4066   -8.4526  -14.9816 N.am    1  UNL1       -0.2930
      7 C         -22.5994   -7.7802  -14.5512 C.2     1  UNL1        0.3025
      8 O         -23.5893   -7.6835  -15.3254 O.2     1  UNL1       -0.2649
      9 H         -20.6189   -8.5839  -14.3074 H       1  UNL1        0.1502
     10 C         -21.2497   -8.9780  -16.3357 C.3     1  UNL1        0.1168
     11 C         -22.1553  -12.6572  -15.9624 C.ar    1  UNL1        0.0584
     12 C         -21.4889  -11.4284  -15.8116 C.ar    1  UNL1        0.0121
     13 C         -21.9730  -10.2900  -16.4708 C.ar    1  UNL1        0.0002
     14 C         -23.1145  -10.3983  -17.2761 C.ar    1  UNL1        0.0180
     15 C         -23.7519  -11.6334  -17.4012 C.ar    1  UNL1        0.0982
     16 N         -23.2642  -12.7221  -16.7504 N.ar    1  UNL1       -0.2482
     17 C         -20.9582  -13.5818  -13.9577 C.3     1  UNL1        0.0063
     18 C         -21.6665  -13.9120  -15.2765 C.3     1  UNL1        0.0403
     19 C         -22.8124  -14.9062  -15.0561 C.3     1  UNL1        0.0063
     20 C         -21.4624   -6.0548  -10.0921 C.3     1  UNL1        0.2245
     21 S         -21.5032   -7.3893   -8.9087 S.O2    1  UNL1        0.0162
     22 O         -20.5177   -7.1139   -7.8079 O.2     1  UNL1       -0.1682
     23 O         -22.8782   -7.4879   -8.3089 O.2     1  UNL1       -0.1682
     24 C         -21.0863   -8.9039   -9.7069 C.ar    1  UNL1        0.1062
     25 C         -19.7466   -9.3106   -9.7829 C.ar    1  UNL1        0.0184
     26 C         -19.4063  -10.4839  -10.4637 C.ar    1  UNL1        0.0013
     27 C         -20.4008  -11.2514  -11.0768 C.ar    1  UNL1        0.0001
     28 C         -21.7371  -10.8469  -11.0092 C.ar    1  UNL1        0.0013
     29 C         -22.0807   -9.6760  -10.3265 C.ar    1  UNL1        0.0184
@<TRIPOS>BOND
     1    17    18    1
     2    18    19    1
     3    18    11    1
     4    11    12   ar
     5    12    13   ar
     6    13    10    1
     7    10     6    1
     8     6     7   am
     9     7     8    2
    10     7     1    1
    11     1     2   ar
    12     2     3   ar
    13     3    20    1
    14    20    21    1
    15    21    22    2
    16    21    23    2
    17    21    24    1
    18    24    25   ar
    19    25    26   ar
    20    26    27   ar
    21    27    28   ar
    22    28    29   ar
    23     3     4   ar
    24     4     5   ar
    25    13    14   ar
    26    14    15   ar
    27    15    16   ar
    28    16    11   ar
    29     5     1   ar
    30    29    24   ar
    31     6     9    1
@<TRIPOS>MOLECULE
*****
 29 31 0 0 0
SMALL
GASTEIGER

@<TRIPOS>ATOM
      1 C         -25.5051   -8.3447  -12.8688 C.ar    1  UNL1        0.3134
      2 N         -25.3790   -9.6790  -12.7425 N.ar    1  UNL1       -0.1854
      3 C         -24.0856   -9.7876  -12.3753 C.ar    1  UNL1        0.2051
      4 N         -23.4720   -8.5926  -12.2744 N.ar    1  UNL1       -0.0582
      5 O         -24.3827   -7.7253  -12.5964 O.2     1  UNL1       -0.3279
      6 N         -26.7171   -6.3598  -13.8376 N.am    1  UNL1       -0.2930
      7 C         -26.7508   -7.6674  -13.2467 C.2     1  UNL1        0.3025
      8 O         -27.8517   -8.2509  -13.0563 O.2     1  UNL1       -0.2649
      9 H         -25.7954   -5.9158  -14.0510 H       1  UNL1        0.1502
     10 C         -27.9320   -5.6188  -14.1682 C.3     1  UNL1        0.1168
     11 C         -28.3841   -3.3774  -17.2124 C.ar    1  UNL1        0.0584
     12 C         -28.6593   -4.2883  -16.1775 C.ar    1  UNL1        0.0121
     13 C         -27.6526   -4.6245  -15.2618 C.ar    1  UNL1        0.0002
     14 C         -26.3827   -4.0482  -15.3978 C.ar    1  UNL1        0.0180
     15 C         -26.1456   -3.1461  -16.4358 C.ar    1  UNL1        0.0982
     16 N         -27.1387   -2.8348  -17.3097 N.ar    1  UNL1       -0.2482
     17 C         -30.6913   -2.4408  -17.5392 C.3     1  UNL1        0.0063
     18 C         -29.4357   -2.9900  -18.2263 C.3     1  UNL1        0.0403
     19 C         -28.8806   -1.9902  -19.2472 C.3     1  UNL1        0.0063
     20 C         -23.4445  -11.0834  -12.0011 C.3     1  UNL1        0.2245
     21 S         -22.5527  -11.7484  -13.3958 S.O2    1  UNL1        0.0162
     22 O         -22.2673  -10.6486  -14.3795 O.2     1  UNL1       -0.1682
     23 O         -21.2456  -12.3258  -12.9283 O.2     1  UNL1       -0.1682
     24 C         -23.5172  -13.0001  -14.1755 C.ar    1  UNL1        0.1062
     25 C         -22.8945  -13.9683  -14.9759 C.ar    1  UNL1        0.0184
     26 C         -23.6623  -14.9297  -15.6408 C.ar    1  UNL1        0.0013
     27 C         -25.0544  -14.9238  -15.5148 C.ar    1  UNL1        0.0001
     28 C         -25.6805  -13.9569  -14.7230 C.ar    1  UNL1        0.0013
     29 C         -24.9152  -12.9964  -14.0545 C.ar    1  UNL1        0.0184
@<TRIPOS>BOND
     1    17    18    1
     2    18    19    1
     3    18    11    1
     4    11    12   ar
     5    12    13   ar
     6    13    10    1
     7    10     6    1
     8     6     7   am
     9     7     8    2
    10     7     1    1
    11     1     2   ar
    12     2     3   ar
    13     3    20    1
    14    20    21    1
    15    21    22    2
    16    21    23    2
    17    21    24    1
    18    24    25   ar
    19    25    26   ar
    20    26    27   ar
    21    27    28   ar
    22    28    29   ar
    23     3     4   ar
    24     4     5   ar
    25    13    14   ar
    26    14    15   ar
    27    15    16   ar
    28    16    11   ar
    29     5     1   ar
    30    29    24   ar
    31     6     9    1
@<TRIPOS>MOLECULE
*****
 29 31 0 0 0
SMALL
GASTEIGER

@<TRIPOS>ATOM
      1 C         -25.8121   -8.8160  -13.0707 C.ar    1  UNL1        0.3134
      2 N         -25.5521   -9.8323  -13.9144 N.ar    1  UNL1       -0.1854
      3 C         -24.4351  -10.3515  -13.3648 C.ar    1  UNL1        0.2051
      4 N         -24.0510   -9.6970  -12.2518 N.ar    1  UNL1       -0.0582
      5 O         -24.9249   -8.7478  -12.1085 O.2     1  UNL1       -0.3279
      6 N         -26.8331   -6.6814  -13.9358 N.am    1  UNL1       -0.2930
      7 C         -26.9580   -7.9088  -13.2025 C.2     1  UNL1        0.3025
      8 O         -28.0575   -8.2241  -12.6731 O.2     1  UNL1       -0.2649
      9 H         -25.9357   -6.4643  -14.4256 H       1  UNL1        0.1502
     10 C         -27.9248   -5.7159  -14.0375 C.3     1  UNL1        0.1168
     11 C         -28.4211   -3.4839  -17.0818 C.ar    1  UNL1        0.0584
     12 C         -28.6862   -4.3751  -16.0273 C.ar    1  UNL1        0.0121
     13 C         -27.6548   -4.7421  -15.1518 C.ar    1  UNL1        0.0002
     14 C         -26.3709   -4.2159  -15.3471 C.ar    1  UNL1        0.0180
     15 C         -26.1443   -3.3322  -16.4030 C.ar    1  UNL1        0.0982
     16 N         -27.1613   -2.9903  -17.2371 N.ar    1  UNL1       -0.2482
     17 C         -30.7249   -2.5123  -17.3170 C.3     1  UNL1        0.0063
     18 C         -29.4996   -3.0650  -18.0541 C.3     1  UNL1        0.0403
     19 C         -28.9644   -2.0539  -19.0746 C.3     1  UNL1        0.0063
     20 C         -23.7730  -11.5921  -13.8676 C.3     1  UNL1        0.2245
     21 S         -23.4933  -11.4653  -15.6250 S.O2    1  UNL1        0.0162
     22 O         -22.7003  -12.6528  -16.0938 O.2     1  UNL1       -0.1682
     23 O         -24.8130  -11.4544  -16.3450 O.2     1  UNL1       -0.1682
     24 C         -22.6037   -9.9861  -15.9795 C.ar    1  UNL1        0.1062
     25 C         -23.2971   -8.8137  -16.3121 C.ar    1  UNL1        0.0184
     26 C         -22.5934   -7.6528  -16.6480 C.ar    1  UNL1        0.0013
     27 C         -21.1956   -7.6598  -16.6601 C.ar    1  UNL1        0.0001
     28 C         -20.4998   -8.8278  -16.3354 C.ar    1  UNL1        0.0013
     29 C         -21.2006   -9.9891  -15.9960 C.ar    1  UNL1        0.0184
@<TRIPOS>BOND
     1    17    18    1
     2    18    19    1
     3    18    11    1
     4    11    12   ar
     5    12    13   ar
     6    13    10    1
     7    10     6    1
     8     6     7   am
     9     7     8    2
    10     7     1    1
    11     1     2   ar
    12     2     3   ar
    13     3    20    1
    14    20    21    1
    15    21    22    2
    16    21    23    2
    17    21    24    1
    18    24    25   ar
    19    25    26   ar
    20    26    27   ar
    21    27    28   ar
    22    28    29   ar
    23     3     4   ar
    24     4     5   ar
    25    13    14   ar
    26    14    15   ar
    27    15    16   ar
    28    16    11   ar
    29     5     1   ar
    30    29    24   ar
    31     6     9    1
@<TRIPOS>MOLECULE
*****
 29 31 0 0 0
SMALL
GASTEIGER

@<TRIPOS>ATOM
      1 C         -24.8678   -6.8295  -12.8722 C.ar    1  UNL1        0.3134
      2 N         -25.7087   -6.9137  -13.9201 N.ar    1  UNL1       -0.1854
      3 C         -26.5044   -5.8458  -13.7055 C.ar    1  UNL1        0.2051
      4 N         -26.1582   -5.1529  -12.6033 N.ar    1  UNL1       -0.0582
      5 O         -25.1457   -5.7994  -12.1112 O.2     1  UNL1       -0.3279
      6 N         -24.0105   -9.0239  -11.9794 N.am    1  UNL1       -0.2930
      7 C         -23.7650   -7.7653  -12.6241 C.2     1  UNL1        0.3025
      8 O         -22.6000   -7.4563  -12.9928 O.2     1  UNL1       -0.2649
      9 H         -24.9907   -9.2958  -11.7393 H       1  UNL1        0.1502
     10 C         -22.9361   -9.9577  -11.6511 C.3     1  UNL1        0.1168
     11 C         -23.9840  -12.7372  -14.0327 C.ar    1  UNL1        0.0584
     12 C         -24.0516  -11.6920  -13.0949 C.ar    1  UNL1        0.0121
     13 C         -22.8740  -11.0586  -12.6743 C.ar    1  UNL1        0.0002
     14 C         -21.6443  -11.4837  -13.1945 C.ar    1  UNL1        0.0180
     15 C         -21.6149  -12.5228  -14.1255 C.ar    1  UNL1        0.0982
     16 N         -22.7706  -13.1197  -14.5188 N.ar    1  UNL1       -0.2482
     17 C         -24.8740  -14.5773  -15.4918 C.3     1  UNL1        0.0063
     18 C         -25.2261  -13.4536  -14.5103 C.3     1  UNL1        0.0403
     19 C         -26.0481  -13.9856  -13.3308 C.3     1  UNL1        0.0063
     20 C         -27.5708   -5.4122  -14.6568 C.3     1  UNL1        0.2245
     21 S         -26.8789   -4.3355  -15.8998 S.O2    1  UNL1        0.0162
     22 O         -26.0366   -3.2814  -15.2379 O.2     1  UNL1       -0.1682
     23 O         -26.0070   -5.1341  -16.8283 O.2     1  UNL1       -0.1682
     24 C         -28.1777   -3.5663  -16.8089 C.ar    1  UNL1        0.1062
     25 C         -27.9374   -3.0851  -18.1037 C.ar    1  UNL1        0.0184
     26 C         -28.9501   -2.4248  -18.8068 C.ar    1  UNL1        0.0013
     27 C         -30.2036   -2.2363  -18.2176 C.ar    1  UNL1        0.0001
     28 C         -30.4461   -2.7087  -16.9246 C.ar    1  UNL1        0.0013
     29 C         -29.4366   -3.3720  -16.2204 C.ar    1  UNL1        0.0184
@<TRIPOS>BOND
     1    17    18    1
     2    18    19    1
     3    18    11    1
     4    11    12   ar
     5    12    13   ar
     6    13    10    1
     7    10     6    1
     8     6     7   am
     9     7     8    2
    10     7     1    1
    11     1     2   ar
    12     2     3   ar
    13     3    20    1
    14    20    21    1
    15    21    22    2
    16    21    23    2
    17    21    24    1
    18    24    25   ar
    19    25    26   ar
    20    26    27   ar
    21    27    28   ar
    22    28    29   ar
    23     3     4   ar
    24     4     5   ar
    25    13    14   ar
    26    14    15   ar
    27    15    16   ar
    28    16    11   ar
    29     5     1   ar
    30    29    24   ar
    31     6     9    1
@<TRIPOS>MOLECULE
*****
 29 31 0 0 0
SMALL
GASTEIGER

@<TRIPOS>ATOM
      1 C         -21.7505  -11.6564  -13.1375 C.ar    1  UNL1        0.3134
      2 N         -21.9354  -11.0335  -14.3165 N.ar    1  UNL1       -0.1854
      3 C         -21.4660  -11.9581  -15.1792 C.ar    1  UNL1        0.2051
      4 N         -21.0354  -13.0746  -14.5607 N.ar    1  UNL1       -0.0582
      5 O         -21.2208  -12.8445  -13.2966 O.2     1  UNL1       -0.3279
      6 N         -23.4616  -10.6578  -11.5811 N.am    1  UNL1       -0.2930
      7 C         -22.1147  -11.0825  -11.8369 C.2     1  UNL1        0.3025
      8 O         -21.2335  -10.9759  -10.9420 O.2     1  UNL1       -0.2649
      9 H         -24.1964  -10.8133  -12.3078 H       1  UNL1        0.1502
     10 C         -23.8562  -10.0198  -10.3274 C.3     1  UNL1        0.1168
     11 C         -26.5208   -7.8319  -11.9426 C.ar    1  UNL1        0.0584
     12 C         -25.3620   -8.6088  -11.7690 C.ar    1  UNL1        0.0121
     13 C         -25.1075   -9.2095  -10.5283 C.ar    1  UNL1        0.0002
     14 C         -26.0141   -9.0201   -9.4769 C.ar    1  UNL1        0.0180
     15 C         -27.1552   -8.2445   -9.6854 C.ar    1  UNL1        0.0982
     16 N         -27.3805   -7.6740  -10.8981 N.ar    1  UNL1       -0.2482
     17 C         -28.2684   -7.4599  -13.7073 C.3     1  UNL1        0.0063
     18 C         -26.8333   -7.1599  -13.2597 C.3     1  UNL1        0.0403
     19 C         -26.5802   -5.6497  -13.1860 C.3     1  UNL1        0.0063
     20 C         -21.5348  -11.8060  -16.6632 C.3     1  UNL1        0.2245
     21 S         -23.2281  -11.5745  -17.1752 S.O2    1  UNL1        0.0162
     22 O         -23.5864  -10.1181  -17.0800 O.2     1  UNL1       -0.1682
     23 O         -23.3865  -12.0159  -18.6036 O.2     1  UNL1       -0.1682
     24 C         -24.2967  -12.5131  -16.1348 C.ar    1  UNL1        0.1062
     25 C         -25.1047  -11.8631  -15.1912 C.ar    1  UNL1        0.0184
     26 C         -25.9126  -12.6081  -14.3262 C.ar    1  UNL1        0.0013
     27 C         -25.9116  -14.0043  -14.3953 C.ar    1  UNL1        0.0001
     28 C         -25.1031  -14.6571  -15.3302 C.ar    1  UNL1        0.0013
     29 C         -24.2967  -13.9148  -16.1984 C.ar    1  UNL1        0.0184
@<TRIPOS>BOND
     1    17    18    1
     2    18    19    1
     3    18    11    1
     4    11    12   ar
     5    12    13   ar
     6    13    10    1
     7    10     6    1
     8     6     7   am
     9     7     8    2
    10     7     1    1
    11     1     2   ar
    12     2     3   ar
    13     3    20    1
    14    20    21    1
    15    21    22    2
    16    21    23    2
    17    21    24    1
    18    24    25   ar
    19    25    26   ar
    20    26    27   ar
    21    27    28   ar
    22    28    29   ar
    23     3     4   ar
    24     4     5   ar
    25    13    14   ar
    26    14    15   ar
    27    15    16   ar
    28    16    11   ar
    29     5     1   ar
    30    29    24   ar
    31     6     9    1
@<TRIPOS>MOLECULE
*****
 29 31 0 0 0
SMALL
GASTEIGER

@<TRIPOS>ATOM
      1 C         -22.6586   -7.9116  -13.3119 C.ar    1  UNL1        0.3134
      2 N         -22.9873   -7.4676  -12.0843 N.ar    1  UNL1       -0.1854
      3 C         -21.8276   -6.9033  -11.6893 C.ar    1  UNL1        0.2051
      4 N         -20.8622   -6.9905  -12.6247 N.ar    1  UNL1       -0.0582
      5 O         -21.4143   -7.6292  -13.6108 O.2     1  UNL1       -0.3279
      6 N         -24.4480   -9.6403  -13.7084 N.am    1  UNL1       -0.2930
      7 C         -23.5854   -8.6091  -14.2108 C.2     1  UNL1        0.3025
      8 O         -23.6235   -8.2856  -15.4284 O.2     1  UNL1       -0.2649
      9 H         -24.4537   -9.8523  -12.6850 H       1  UNL1        0.1502
     10 C         -25.3380  -10.4079  -14.5761 C.3     1  UNL1        0.1168
     11 C         -23.3282  -13.6398  -14.6834 C.ar    1  UNL1        0.0584
     12 C         -23.6511  -12.2717  -14.7073 C.ar    1  UNL1        0.0121
     13 C         -24.9810  -11.8683  -14.5248 C.ar    1  UNL1        0.0002
     14 C         -25.9704  -12.8404  -14.3260 C.ar    1  UNL1        0.0180
     15 C         -25.6136  -14.1893  -14.3059 C.ar    1  UNL1        0.0982
     16 N         -24.3168  -14.5550  -14.4834 N.ar    1  UNL1       -0.2482
     17 C         -21.5114  -14.0756  -16.3616 C.3     1  UNL1        0.0063
     18 C         -21.9096  -14.1219  -14.8819 C.3     1  UNL1        0.0403
     19 C         -20.9263  -13.3236  -14.0182 C.3     1  UNL1        0.0063
     20 C         -21.6739   -6.1552  -10.4059 C.3     1  UNL1        0.2245
     21 S         -21.4907   -7.3002   -9.0501 S.O2    1  UNL1        0.0162
     22 O         -20.4871   -6.7609   -8.0700 O.2     1  UNL1       -0.1682
     23 O         -22.8096   -7.4625   -8.3470 O.2     1  UNL1       -0.1682
     24 C         -20.9395   -8.8590   -9.6596 C.ar    1  UNL1        0.1062
     25 C         -19.5700   -9.1585   -9.6819 C.ar    1  UNL1        0.0184
     26 C         -19.1249  -10.3719  -10.2160 C.ar    1  UNL1        0.0013
     27 C         -20.0444  -11.2875  -10.7360 C.ar    1  UNL1        0.0001
     28 C         -21.4103  -10.9909  -10.7218 C.ar    1  UNL1        0.0013
     29 C         -21.8584   -9.7798  -10.1856 C.ar    1  UNL1        0.0184
@<TRIPOS>BOND
     1    17    18    1
     2    18    19    1
     3    18    11    1
     4    11    12   ar
     5    12    13   ar
     6    13    10    1
     7    10     6    1
     8     6     7   am
     9     7     8    2
    10     7     1    1
    11     1     2   ar
    12     2     3   ar
    13     3    20    1
    14    20    21    1
    15    21    22    2
    16    21    23    2
    17    21    24    1
    18    24    25   ar
    19    25    26   ar
    20    26    27   ar
    21    27    28   ar
    22    28    29   ar
    23     3     4   ar
    24     4     5   ar
    25    13    14   ar
    26    14    15   ar
    27    15    16   ar
    28    16    11   ar
    29     5     1   ar
    30    29    24   ar
    31     6     9    1
@<TRIPOS>MOLECULE
*****
 29 31 0 0 0
SMALL
GASTEIGER

@<TRIPOS>ATOM
      1 C         -22.4677   -7.7464  -16.5080 C.ar    1  UNL1        0.3134
      2 N         -22.8116   -7.9096  -15.2167 N.ar    1  UNL1       -0.1854
      3 C         -21.6348   -8.2876  -14.6766 C.ar    1  UNL1        0.2051
      4 N         -20.6394   -8.3380  -15.5829 N.ar    1  UNL1       -0.0582
      5 O         -21.1981   -8.0042  -16.7061 O.2     1  UNL1       -0.3279
      6 N         -23.9407   -5.9873  -17.5487 N.am    1  UNL1       -0.2930
      7 C         -23.3961   -7.3152  -17.5594 C.2     1  UNL1        0.3025
      8 O         -23.7028   -8.1208  -18.4790 O.2     1  UNL1       -0.2649
      9 H         -23.6265   -5.3088  -16.8185 H       1  UNL1        0.1502
     10 C         -24.9192   -5.5348  -18.5346 C.3     1  UNL1        0.1168
     11 C         -28.0598   -3.4542  -17.9836 C.ar    1  UNL1        0.0584
     12 C         -27.0418   -4.1844  -18.6216 C.ar    1  UNL1        0.0121
     13 C         -26.0263   -4.7748  -17.8567 C.ar    1  UNL1        0.0002
     14 C         -26.0409   -4.6218  -16.4639 C.ar    1  UNL1        0.0180
     15 C         -27.0681   -3.8921  -15.8641 C.ar    1  UNL1        0.0982
     16 N         -28.0424   -3.3309  -16.6273 N.ar    1  UNL1       -0.2482
     17 C         -30.2482   -2.2313  -17.8331 C.3     1  UNL1        0.0063
     18 C         -29.1712   -2.7949  -18.7673 C.3     1  UNL1        0.0403
     19 C         -28.6236   -1.7089  -19.7004 C.3     1  UNL1        0.0063
     20 C         -21.4352   -8.5032  -13.2124 C.3     1  UNL1        0.2245
     21 S         -22.0021  -10.1310  -12.7522 S.O2    1  UNL1        0.0162
     22 O         -20.8731  -10.8952  -12.1196 O.2     1  UNL1       -0.1682
     23 O         -23.1197  -10.0109  -11.7539 O.2     1  UNL1       -0.1682
     24 C         -22.5655  -10.9903  -14.1837 C.ar    1  UNL1        0.1062
     25 C         -21.6452  -11.6377  -15.0202 C.ar    1  UNL1        0.0184
     26 C         -22.0825  -12.2735  -16.1866 C.ar    1  UNL1        0.0013
     27 C         -23.4385  -12.2593  -16.5258 C.ar    1  UNL1        0.0001
     28 C         -24.3591  -11.6099  -15.6983 C.ar    1  UNL1        0.0013
     29 C         -23.9252  -10.9761  -14.5299 C.ar    1  UNL1        0.0184
@<TRIPOS>BOND
     1    17    18    1
     2    18    19    1
     3    18    11    1
     4    11    12   ar
     5    12    13   ar
     6    13    10    1
     7    10     6    1
     8     6     7   am
     9     7     8    2
    10     7     1    1
    11     1     2   ar
    12     2     3   ar
    13     3    20    1
    14    20    21    1
    15    21    22    2
    16    21    23    2
    17    21    24    1
    18    24    25   ar
    19    25    26   ar
    20    26    27   ar
    21    27    28   ar
    22    28    29   ar
    23     3     4   ar
    24     4     5   ar
    25    13    14   ar
    26    14    15   ar
    27    15    16   ar
    28    16    11   ar
    29     5     1   ar
    30    29    24   ar
    31     6     9    1
