@<TRIPOS>MOLECULE
*****
 38 42 0 0 0
SMALL
GASTEIGER

@<TRIPOS>ATOM
      1 N         -22.4751   -9.0892  -13.4658 N.3     1  UNL1       -0.2679
      2 C         -23.2484   -7.8185  -13.5455 C.3     1  UNL1        0.0978
      3 C         -24.7640   -8.0766  -13.4251 C.3     1  UNL1        0.0224
      4 C         -25.5305   -6.7573  -13.4835 C.3     1  UNL1        0.0065
      5 C         -25.1760   -5.8916  -12.2714 C.3     1  UNL1        0.0277
      6 C         -23.6855   -5.7928  -12.0424 C.ar    1  UNL1       -0.0073
      7 C         -23.1933   -4.7893  -11.1961 C.ar    1  UNL1       -0.0015
      8 C         -21.8280   -4.7026  -10.9290 C.ar    1  UNL1        0.0203
      9 C         -20.9603   -5.6257  -11.5079 C.ar    1  UNL1        0.0985
     10 N         -21.4476   -6.6032  -12.3147 N.ar    1  UNL1       -0.2471
     11 C         -22.7775   -6.7382  -12.5798 C.ar    1  UNL1        0.0695
     12 C         -22.9924  -10.0998  -12.5182 C.3     1  UNL1        0.0886
     13 O         -17.7791  -10.0212   -8.5735 O.3     1  UNL1       -0.5058
     14 C         -18.2616  -11.0371   -9.3987 C.ar    1  UNL1        0.1306
     15 C         -17.6097  -12.2772   -9.4345 C.ar    1  UNL1        0.0363
     16 C         -18.0949  -13.3044  -10.2441 C.ar    1  UNL1        0.0028
     17 C         -19.2378  -13.1045  -11.0195 C.ar    1  UNL1       -0.0043
     18 C         -19.9105  -11.8738  -10.9874 C.ar    1  UNL1       -0.0206
     19 C         -19.4043  -10.8203  -10.1942 C.ar    1  UNL1        0.0234
     20 C         -20.1449   -9.5046  -10.1130 C.3     1  UNL1        0.0983
     21 N         -21.0198   -9.2934  -11.2745 N.3     1  UNL1       -0.2934
     22 C         -21.9304  -10.4349  -11.4523 C.3     1  UNL1        0.0748
     23 C         -21.1128  -11.6705  -11.8720 C.3     1  UNL1        0.0433
     24 H         -16.9600  -10.1534   -7.9917 H       1  UNL1        0.2922
     25 H         -21.5889   -8.4373  -11.0735 H       1  UNL1        0.1236
     26 C         -21.8475   -9.6437  -14.6907 C.3     1  UNL1        0.0725
     27 C         -22.0302   -8.7688  -15.9439 C.3     1  UNL1        0.0188
     28 C         -23.0241   -9.3837  -16.9493 C.3     1  UNL1        0.0185
     29 C         -22.9173  -10.9137  -17.0405 C.3     1  UNL1        0.0686
     30 N         -24.2490  -11.5316  -17.0728 N.3     1  UNL1       -0.2975
     31 H         -24.1335  -12.5218  -17.3942 H       1  UNL1        0.1232
     32 C         -24.8415  -11.5449  -15.7286 C.3     1  UNL1        0.0685
     33 C         -24.8941  -12.9764  -15.1510 C.3     1  UNL1        0.0158
     34 C         -23.7973  -13.2151  -14.0765 C.3     1  UNL1        0.0014
     35 C         -22.5196  -13.8022  -14.6849 C.3     1  UNL1        0.0000
     36 C         -22.7816  -15.1739  -15.3402 C.3     1  UNL1        0.0000
     37 C         -24.2290  -15.3465  -15.8436 C.3     1  UNL1        0.0000
     38 C         -24.8241  -14.0125  -16.3059 C.3     1  UNL1        0.0014
@<TRIPOS>BOND
     1    13    14    1
     2    14    15   ar
     3    15    16   ar
     4    16    17   ar
     5    17    18   ar
     6    18    19   ar
     7    19    20    1
     8    20    21    1
     9    21    22    1
    10    22    12    1
    11    12     1    1
    12     1    26    1
    13    26    27    1
    14    27    28    1
    15    28    29    1
    16    29    30    1
    17    30    32    1
    18    32    33    1
    19    33    34    1
    20    34    35    1
    21    35    36    1
    22    36    37    1
    23    37    38    1
    24     1     2    1
    25     2     3    1
    26     3     4    1
    27     4     5    1
    28     5     6    1
    29     6     7   ar
    30     7     8   ar
    31     8     9   ar
    32     9    10   ar
    33    10    11   ar
    34    22    23    1
    35    19    14   ar
    36    38    33    1
    37    11     2    1
    38    23    18    1
    39    11     6   ar
    40    13    24    1
    41    21    25    1
    42    30    31    1
@<TRIPOS>MOLECULE
*****
 38 42 0 0 0
SMALL
GASTEIGER

@<TRIPOS>ATOM
      1 N         -22.2460   -9.2112  -11.2895 N.3     1  UNL1       -0.2679
      2 C         -22.6615   -7.8282  -10.9234 C.3     1  UNL1        0.0978
      3 C         -21.5423   -6.8098  -11.2210 C.3     1  UNL1        0.0224
      4 C         -22.0030   -5.3991  -10.8616 C.3     1  UNL1        0.0065
      5 C         -23.1697   -4.9838  -11.7621 C.3     1  UNL1        0.0277
      6 C         -24.2462   -6.0412  -11.8449 C.ar    1  UNL1       -0.0073
      7 C         -25.5071   -5.6891  -12.3467 C.ar    1  UNL1       -0.0015
      8 C         -26.5051   -6.6532  -12.4786 C.ar    1  UNL1        0.0203
      9 C         -26.2343   -7.9692  -12.1112 C.ar    1  UNL1        0.0985
     10 N         -25.0057   -8.3040  -11.6398 N.ar    1  UNL1       -0.2471
     11 C         -23.9953   -7.3973  -11.5203 C.ar    1  UNL1        0.0695
     12 C         -21.7938   -9.3999  -12.6847 C.3     1  UNL1        0.0886
     13 O         -26.3930  -13.7936  -14.1970 O.3     1  UNL1       -0.5058
     14 C         -25.0143  -13.8333  -14.4059 C.ar    1  UNL1        0.1306
     15 C         -24.4375  -14.9325  -15.0564 C.ar    1  UNL1        0.0363
     16 C         -23.0618  -14.9730  -15.2845 C.ar    1  UNL1        0.0028
     17 C         -22.2519  -13.9144  -14.8711 C.ar    1  UNL1       -0.0043
     18 C         -22.8133  -12.8005  -14.2291 C.ar    1  UNL1       -0.0206
     19 C         -24.2009  -12.7697  -13.9670 C.ar    1  UNL1        0.0234
     20 C         -24.8267  -11.5555  -13.3188 C.3     1  UNL1        0.0983
     21 N         -23.8437  -10.7678  -12.5623 N.3     1  UNL1       -0.2934
     22 C         -22.6960  -10.4159  -13.4127 C.3     1  UNL1        0.0748
     23 C         -21.9084  -11.6954  -13.7501 C.3     1  UNL1        0.0433
     24 H         -26.9987  -14.5456  -14.5045 H       1  UNL1        0.2922
     25 H         -24.3253   -9.8862  -12.2657 H       1  UNL1        0.1236
     26 C         -21.5531  -10.0581  -10.2874 C.3     1  UNL1        0.0725
     27 C         -20.1135  -10.4421  -10.6739 C.3     1  UNL1        0.0188
     28 C         -19.0600   -9.6273   -9.8973 C.3     1  UNL1        0.0185
     29 C         -19.6557   -8.8462   -8.7159 C.3     1  UNL1        0.0686
     30 N         -18.7650   -8.8989   -7.5497 N.3     1  UNL1       -0.2975
     31 H         -17.9304   -8.3011   -7.7584 H       1  UNL1        0.1232
     32 C         -19.4403   -8.3568   -6.3631 C.3     1  UNL1        0.0685
     33 C         -18.6598   -8.6864   -5.0716 C.3     1  UNL1        0.0158
     34 C         -18.0210   -7.4214   -4.4343 C.3     1  UNL1        0.0014
     35 C         -16.5847   -7.2004   -4.9195 C.3     1  UNL1        0.0000
     36 C         -15.6685   -8.3809   -4.5363 C.3     1  UNL1        0.0000
     37 C         -16.4198   -9.7207   -4.3991 C.3     1  UNL1        0.0000
     38 C         -17.6114   -9.7956   -5.3593 C.3     1  UNL1        0.0014
@<TRIPOS>BOND
     1    13    14    1
     2    14    15   ar
     3    15    16   ar
     4    16    17   ar
     5    17    18   ar
     6    18    19   ar
     7    19    20    1
     8    20    21    1
     9    21    22    1
    10    22    12    1
    11    12     1    1
    12     1    26    1
    13    26    27    1
    14    27    28    1
    15    28    29    1
    16    29    30    1
    17    30    32    1
    18    32    33    1
    19    33    34    1
    20    34    35    1
    21    35    36    1
    22    36    37    1
    23    37    38    1
    24     1     2    1
    25     2     3    1
    26     3     4    1
    27     4     5    1
    28     5     6    1
    29     6     7   ar
    30     7     8   ar
    31     8     9   ar
    32     9    10   ar
    33    10    11   ar
    34    22    23    1
    35    19    14   ar
    36    38    33    1
    37    11     2    1
    38    23    18    1
    39    11     6   ar
    40    13    24    1
    41    21    25    1
    42    30    31    1
@<TRIPOS>MOLECULE
*****
 38 42 0 0 0
SMALL
GASTEIGER

@<TRIPOS>ATOM
      1 N         -23.2429   -7.5944  -12.4485 N.3     1  UNL1       -0.2679
      2 C         -24.4587   -7.2724  -11.6503 C.3     1  UNL1        0.0978
      3 C         -25.6320   -6.8553  -12.5602 C.3     1  UNL1        0.0224
      4 C         -26.8713   -6.5564  -11.7198 C.3     1  UNL1        0.0065
      5 C         -27.3463   -7.8303  -11.0156 C.3     1  UNL1        0.0277
      6 C         -26.2234   -8.5637  -10.3190 C.ar    1  UNL1       -0.0073
      7 C         -26.5394   -9.5445   -9.3684 C.ar    1  UNL1       -0.0015
      8 C         -25.5263  -10.2700   -8.7439 C.ar    1  UNL1        0.0203
      9 C         -24.1986  -10.0129   -9.0779 C.ar    1  UNL1        0.0985
     10 N         -23.9027   -9.0712  -10.0103 N.ar    1  UNL1       -0.2471
     11 C         -24.8643   -8.3590  -10.6624 C.ar    1  UNL1        0.0695
     12 C         -23.4856   -8.1919  -13.7793 C.3     1  UNL1        0.0886
     13 O         -21.9523  -14.4411  -14.9376 O.3     1  UNL1       -0.5058
     14 C         -23.1965  -13.8517  -14.7133 C.ar    1  UNL1        0.1306
     15 C         -24.3513  -14.6455  -14.6878 C.ar    1  UNL1        0.0363
     16 C         -25.5979  -14.0670  -14.4477 C.ar    1  UNL1        0.0028
     17 C         -25.7013  -12.6933  -14.2248 C.ar    1  UNL1       -0.0043
     18 C         -24.5548  -11.8848  -14.2347 C.ar    1  UNL1       -0.0206
     19 C         -23.2948  -12.4609  -14.5097 C.ar    1  UNL1        0.0234
     20 C         -22.0451  -11.6104  -14.4769 C.3     1  UNL1        0.0983
     21 N         -22.3439  -10.1859  -14.6787 N.3     1  UNL1       -0.2934
     22 C         -23.3557   -9.7266  -13.7147 C.3     1  UNL1        0.0748
     23 C         -24.7026  -10.3983  -14.0400 C.3     1  UNL1        0.0433
     24 H         -21.8560  -15.4390  -15.0855 H       1  UNL1        0.2922
     25 H         -21.4532   -9.6621  -14.5067 H       1  UNL1        0.1236
     26 C         -22.0567   -6.7067  -12.3683 C.3     1  UNL1        0.0725
     27 C         -22.3124   -5.3776  -11.6350 C.3     1  UNL1        0.0188
     28 C         -21.3265   -5.1497  -10.4719 C.3     1  UNL1        0.0185
     29 C         -21.7599   -5.8446   -9.1719 C.3     1  UNL1        0.0686
     30 N         -20.6408   -6.5836   -8.5739 N.3     1  UNL1       -0.2975
     31 H         -20.6064   -6.3412   -7.5554 H       1  UNL1        0.1232
     32 C         -20.8556   -8.0313   -8.7005 C.3     1  UNL1        0.0685
     33 C         -19.7795   -8.6838   -9.5959 C.3     1  UNL1        0.0158
     34 C         -20.3695   -9.2047  -10.9357 C.3     1  UNL1        0.0014
     35 C         -20.7906  -10.6747  -10.8414 C.3     1  UNL1        0.0000
     36 C         -19.5908  -11.5890  -10.5188 C.3     1  UNL1        0.0000
     37 C         -18.4728  -10.8780   -9.7297 C.3     1  UNL1        0.0000
     38 C         -19.0409   -9.7972   -8.8040 C.3     1  UNL1        0.0014
@<TRIPOS>BOND
     1    13    14    1
     2    14    15   ar
     3    15    16   ar
     4    16    17   ar
     5    17    18   ar
     6    18    19   ar
     7    19    20    1
     8    20    21    1
     9    21    22    1
    10    22    12    1
    11    12     1    1
    12     1    26    1
    13    26    27    1
    14    27    28    1
    15    28    29    1
    16    29    30    1
    17    30    32    1
    18    32    33    1
    19    33    34    1
    20    34    35    1
    21    35    36    1
    22    36    37    1
    23    37    38    1
    24     1     2    1
    25     2     3    1
    26     3     4    1
    27     4     5    1
    28     5     6    1
    29     6     7   ar
    30     7     8   ar
    31     8     9   ar
    32     9    10   ar
    33    10    11   ar
    34    22    23    1
    35    19    14   ar
    36    38    33    1
    37    11     2    1
    38    23    18    1
    39    11     6   ar
    40    13    24    1
    41    21    25    1
    42    30    31    1
@<TRIPOS>MOLECULE
*****
 38 42 0 0 0
SMALL
GASTEIGER

@<TRIPOS>ATOM
      1 N         -22.4118   -8.8094  -13.4360 N.3     1  UNL1       -0.2679
      2 C         -22.7245   -7.8379  -12.3508 C.3     1  UNL1        0.0978
      3 C         -21.5410   -6.8824  -12.0962 C.3     1  UNL1        0.0224
      4 C         -21.8970   -5.8818  -10.9991 C.3     1  UNL1        0.0065
      5 C         -23.0441   -4.9806  -11.4643 C.3     1  UNL1        0.0277
      6 C         -24.1930   -5.7612  -12.0598 C.ar    1  UNL1       -0.0073
      7 C         -25.4329   -5.1275  -12.2223 C.ar    1  UNL1       -0.0015
      8 C         -26.4976   -5.8072  -12.8115 C.ar    1  UNL1        0.0203
      9 C         -26.3144   -7.1197  -13.2406 C.ar    1  UNL1        0.0985
     10 N         -25.1058   -7.7206  -13.0924 N.ar    1  UNL1       -0.2471
     11 C         -24.0330   -7.0824  -12.5457 C.ar    1  UNL1        0.0695
     12 C         -21.8041   -8.2378  -14.6569 C.3     1  UNL1        0.0886
     13 O         -24.6095   -9.2096  -20.4819 O.3     1  UNL1       -0.5058
     14 C         -24.5769   -8.0659  -19.6840 C.ar    1  UNL1        0.1306
     15 C         -25.2422   -6.9046  -20.0999 C.ar    1  UNL1        0.0363
     16 C         -25.2290   -5.7613  -19.3005 C.ar    1  UNL1        0.0028
     17 C         -24.5574   -5.7697  -18.0773 C.ar    1  UNL1       -0.0043
     18 C         -23.8960   -6.9267  -17.6391 C.ar    1  UNL1       -0.0206
     19 C         -23.8791   -8.0762  -18.4599 C.ar    1  UNL1        0.0234
     20 C         -23.2110   -9.3449  -17.9800 C.3     1  UNL1        0.0983
     21 N         -22.2059   -9.0783  -16.9418 N.3     1  UNL1       -0.2934
     22 C         -22.7942   -8.3062  -15.8364 C.3     1  UNL1        0.0748
     23 C         -23.1381   -6.8913  -16.3377 C.3     1  UNL1        0.0433
     24 H         -25.1054   -9.2270  -21.3655 H       1  UNL1        0.2922
     25 H         -21.8957  -10.0088  -16.5742 H       1  UNL1        0.1236
     26 C         -21.9475  -10.1747  -13.0865 C.3     1  UNL1        0.0725
     27 C         -22.7749  -10.8587  -11.9832 C.3     1  UNL1        0.0188
     28 C         -23.8952  -11.7493  -12.5565 C.3     1  UNL1        0.0185
     29 C         -24.8900  -10.9735  -13.4335 C.3     1  UNL1        0.0686
     30 N         -24.4339  -10.9269  -14.8286 N.3     1  UNL1       -0.2975
     31 H         -23.4272  -11.2159  -14.8449 H       1  UNL1        0.1232
     32 C         -25.2021  -11.8705  -15.6516 C.3     1  UNL1        0.0685
     33 C         -24.2776  -12.8967  -16.3426 C.3     1  UNL1        0.0158
     34 C         -24.6916  -14.3615  -16.0302 C.3     1  UNL1        0.0014
     35 C         -23.9454  -14.9191  -14.8138 C.3     1  UNL1        0.0000
     36 C         -22.4208  -14.9465  -15.0469 C.3     1  UNL1        0.0000
     37 C         -21.9327  -13.8709  -16.0385 C.3     1  UNL1        0.0000
     38 C         -22.7984  -12.6087  -15.9666 C.3     1  UNL1        0.0014
@<TRIPOS>BOND
     1    13    14    1
     2    14    15   ar
     3    15    16   ar
     4    16    17   ar
     5    17    18   ar
     6    18    19   ar
     7    19    20    1
     8    20    21    1
     9    21    22    1
    10    22    12    1
    11    12     1    1
    12     1    26    1
    13    26    27    1
    14    27    28    1
    15    28    29    1
    16    29    30    1
    17    30    32    1
    18    32    33    1
    19    33    34    1
    20    34    35    1
    21    35    36    1
    22    36    37    1
    23    37    38    1
    24     1     2    1
    25     2     3    1
    26     3     4    1
    27     4     5    1
    28     5     6    1
    29     6     7   ar
    30     7     8   ar
    31     8     9   ar
    32     9    10   ar
    33    10    11   ar
    34    22    23    1
    35    19    14   ar
    36    38    33    1
    37    11     2    1
    38    23    18    1
    39    11     6   ar
    40    13    24    1
    41    21    25    1
    42    30    31    1
@<TRIPOS>MOLECULE
*****
 38 42 0 0 0
SMALL
GASTEIGER

@<TRIPOS>ATOM
      1 N         -22.4681   -9.0268  -13.2378 N.3     1  UNL1       -0.2679
      2 C         -22.8949   -7.9750  -12.2731 C.3     1  UNL1        0.0978
      3 C         -21.8181   -6.8811  -12.1243 C.3     1  UNL1        0.0224
      4 C         -22.2910   -5.8036  -11.1513 C.3     1  UNL1        0.0065
      5 C         -23.5152   -5.0829  -11.7226 C.3     1  UNL1        0.0277
      6 C         -24.5696   -6.0391  -12.2300 C.ar    1  UNL1       -0.0073
      7 C         -25.8642   -5.5577  -12.4703 C.ar    1  UNL1       -0.0015
      8 C         -26.8452   -6.4051  -12.9827 C.ar    1  UNL1        0.0203
      9 C         -26.5237   -7.7324  -13.2572 C.ar    1  UNL1        0.0985
     10 N         -25.2634   -8.1862  -13.0349 N.ar    1  UNL1       -0.2471
     11 C         -24.2695   -7.3839  -12.5600 C.ar    1  UNL1        0.0695
     12 C         -21.7837   -8.5437  -14.4564 C.3     1  UNL1        0.0886
     13 O         -24.5164   -9.2222  -20.3570 O.3     1  UNL1       -0.5058
     14 C         -24.4548   -8.1062  -19.5223 C.ar    1  UNL1        0.1306
     15 C         -25.0675   -6.9075  -19.9120 C.ar    1  UNL1        0.0363
     16 C         -25.0253   -5.7913  -19.0761 C.ar    1  UNL1        0.0028
     17 C         -24.3772   -5.8643  -17.8425 C.ar    1  UNL1       -0.0043
     18 C         -23.7686   -7.0593  -17.4305 C.ar    1  UNL1       -0.0206
     19 C         -23.7806   -8.1822  -18.2873 C.ar    1  UNL1        0.0234
     20 C         -23.1704   -9.4902  -17.8371 C.3     1  UNL1        0.0983
     21 N         -22.1752   -9.2957  -16.7737 N.3     1  UNL1       -0.2934
     22 C         -22.7538   -8.5365  -15.6544 C.3     1  UNL1        0.0748
     23 C         -23.0340   -7.0943  -16.1157 C.3     1  UNL1        0.0433
     24 H         -24.9962   -9.1925  -21.2491 H       1  UNL1        0.2922
     25 H         -21.9075  -10.2486  -16.4310 H       1  UNL1        0.1236
     26 C         -21.9915  -10.3372  -12.7305 C.3     1  UNL1        0.0725
     27 C         -21.8690  -11.4253  -13.8124 C.3     1  UNL1        0.0188
     28 C         -21.2253  -12.7186  -13.2741 C.3     1  UNL1        0.0185
     29 C         -20.9157  -13.7406  -14.3787 C.3     1  UNL1        0.0686
     30 N         -21.9668  -13.7393  -15.4041 N.3     1  UNL1       -0.2975
     31 H         -21.4987  -13.7074  -16.3407 H       1  UNL1        0.1232
     32 C         -22.7635  -14.9709  -15.3241 C.3     1  UNL1        0.0685
     33 C         -24.2756  -14.6701  -15.4168 C.3     1  UNL1        0.0158
     34 C         -24.5878  -13.5499  -16.4474 C.3     1  UNL1        0.0014
     35 C         -24.6315  -12.1660  -15.7915 C.3     1  UNL1        0.0000
     36 C         -25.7376  -12.0808  -14.7197 C.3     1  UNL1        0.0000
     37 C         -26.0693  -13.4402  -14.0715 C.3     1  UNL1        0.0000
     38 C         -24.8347  -14.3450  -14.0047 C.3     1  UNL1        0.0014
@<TRIPOS>BOND
     1    13    14    1
     2    14    15   ar
     3    15    16   ar
     4    16    17   ar
     5    17    18   ar
     6    18    19   ar
     7    19    20    1
     8    20    21    1
     9    21    22    1
    10    22    12    1
    11    12     1    1
    12     1    26    1
    13    26    27    1
    14    27    28    1
    15    28    29    1
    16    29    30    1
    17    30    32    1
    18    32    33    1
    19    33    34    1
    20    34    35    1
    21    35    36    1
    22    36    37    1
    23    37    38    1
    24     1     2    1
    25     2     3    1
    26     3     4    1
    27     4     5    1
    28     5     6    1
    29     6     7   ar
    30     7     8   ar
    31     8     9   ar
    32     9    10   ar
    33    10    11   ar
    34    22    23    1
    35    19    14   ar
    36    38    33    1
    37    11     2    1
    38    23    18    1
    39    11     6   ar
    40    13    24    1
    41    21    25    1
    42    30    31    1
@<TRIPOS>MOLECULE
*****
 38 42 0 0 0
SMALL
GASTEIGER

@<TRIPOS>ATOM
      1 N         -24.2555   -9.2681  -13.4049 N.3     1  UNL1       -0.2679
      2 C         -24.6236   -7.8271  -13.4893 C.3     1  UNL1        0.0978
      3 C         -26.1091   -7.6069  -13.1383 C.3     1  UNL1        0.0224
      4 C         -26.4532   -6.1208  -13.2069 C.3     1  UNL1        0.0065
      5 C         -25.6726   -5.3526  -12.1369 C.3     1  UNL1        0.0277
      6 C         -24.2023   -5.7017  -12.1257 C.ar    1  UNL1       -0.0073
      7 C         -23.3093   -4.8599  -11.4479 C.ar    1  UNL1       -0.0015
      8 C         -21.9546   -5.1808  -11.3806 C.ar    1  UNL1        0.0203
      9 C         -21.4996   -6.3480  -11.9897 C.ar    1  UNL1        0.0985
     10 N         -22.3741   -7.1648  -12.6316 N.ar    1  UNL1       -0.2471
     11 C         -23.7094   -6.9006  -12.6975 C.ar    1  UNL1        0.0695
     12 C         -24.7701   -9.9964  -12.2253 C.3     1  UNL1        0.0886
     13 O         -20.8116   -8.1178   -7.3728 O.3     1  UNL1       -0.5058
     14 C         -20.5368   -8.8825   -8.5067 C.ar    1  UNL1        0.1306
     15 C         -19.2475   -9.3932   -8.7094 C.ar    1  UNL1        0.0363
     16 C         -18.9678  -10.1730   -9.8319 C.ar    1  UNL1        0.0028
     17 C         -19.9736  -10.4546  -10.7573 C.ar    1  UNL1       -0.0043
     18 C         -21.2729   -9.9619  -10.5647 C.ar    1  UNL1       -0.0206
     19 C         -21.5529   -9.1450   -9.4469 C.ar    1  UNL1        0.0234
     20 C         -22.9590   -8.6463   -9.2012 C.3     1  UNL1        0.0983
     21 N         -23.7612   -8.6342  -10.4323 N.3     1  UNL1       -0.2934
     22 C         -23.7439   -9.9570  -11.0757 C.3     1  UNL1        0.0748
     23 C         -22.3260  -10.2407  -11.6053 C.3     1  UNL1        0.0433
     24 H         -20.0980   -7.9165   -6.6821 H       1  UNL1        0.2922
     25 H         -24.7449   -8.4100  -10.1508 H       1  UNL1        0.1236
     26 C         -24.1623  -10.0750  -14.6466 C.3     1  UNL1        0.0725
     27 C         -22.8983   -9.8028  -15.4819 C.3     1  UNL1        0.0188
     28 C         -22.9767  -10.4315  -16.8873 C.3     1  UNL1        0.0185
     29 C         -22.1862  -11.7439  -17.0034 C.3     1  UNL1        0.0686
     30 N         -21.7843  -12.2332  -15.6786 N.3     1  UNL1       -0.2975
     31 H         -22.5500  -11.9948  -15.0047 H       1  UNL1        0.1232
     32 C         -21.6200  -13.6929  -15.6986 C.3     1  UNL1        0.0685
     33 C         -22.6564  -14.3884  -14.7889 C.3     1  UNL1        0.0158
     34 C         -23.5721  -15.3617  -15.5818 C.3     1  UNL1        0.0014
     35 C         -24.8570  -14.6768  -16.0585 C.3     1  UNL1        0.0000
     36 C         -25.7014  -14.1664  -14.8728 C.3     1  UNL1        0.0000
     37 C         -24.8628  -13.8286  -13.6234 C.3     1  UNL1        0.0000
     38 C         -23.4683  -13.3213  -14.0051 C.3     1  UNL1        0.0014
@<TRIPOS>BOND
     1    13    14    1
     2    14    15   ar
     3    15    16   ar
     4    16    17   ar
     5    17    18   ar
     6    18    19   ar
     7    19    20    1
     8    20    21    1
     9    21    22    1
    10    22    12    1
    11    12     1    1
    12     1    26    1
    13    26    27    1
    14    27    28    1
    15    28    29    1
    16    29    30    1
    17    30    32    1
    18    32    33    1
    19    33    34    1
    20    34    35    1
    21    35    36    1
    22    36    37    1
    23    37    38    1
    24     1     2    1
    25     2     3    1
    26     3     4    1
    27     4     5    1
    28     5     6    1
    29     6     7   ar
    30     7     8   ar
    31     8     9   ar
    32     9    10   ar
    33    10    11   ar
    34    22    23    1
    35    19    14   ar
    36    38    33    1
    37    11     2    1
    38    23    18    1
    39    11     6   ar
    40    13    24    1
    41    21    25    1
    42    30    31    1
@<TRIPOS>MOLECULE
*****
 38 42 0 0 0
SMALL
GASTEIGER

@<TRIPOS>ATOM
      1 N         -24.7053   -9.5011  -12.7696 N.3     1  UNL1       -0.2679
      2 C         -25.0051   -8.0745  -13.0762 C.3     1  UNL1        0.0978
      3 C         -26.4576   -7.7146  -12.7031 C.3     1  UNL1        0.0224
      4 C         -26.7304   -6.2424  -13.0027 C.3     1  UNL1        0.0065
      5 C         -25.8580   -5.3559  -12.1097 C.3     1  UNL1        0.0277
      6 C         -24.4083   -5.7826  -12.1039 C.ar    1  UNL1       -0.0073
      7 C         -23.4406   -4.8943  -11.6143 C.ar    1  UNL1       -0.0015
      8 C         -22.1018   -5.2775  -11.5530 C.ar    1  UNL1        0.0203
      9 C         -21.7377   -6.5528  -11.9788 C.ar    1  UNL1        0.0985
     10 N         -22.6839   -7.4117  -12.4380 N.ar    1  UNL1       -0.2471
     11 C         -24.0060   -7.0853  -12.4893 C.ar    1  UNL1        0.0695
     12 C         -25.1152   -9.9718  -11.4290 C.3     1  UNL1        0.0886
     13 O         -20.4573   -7.8957   -7.3377 O.3     1  UNL1       -0.5058
     14 C         -20.3667   -8.7473   -8.4388 C.ar    1  UNL1        0.1306
     15 C         -19.1326   -9.3155   -8.7829 C.ar    1  UNL1        0.0363
     16 C         -19.0358  -10.1815   -9.8725 C.ar    1  UNL1        0.0028
     17 C         -20.1705  -10.4922  -10.6231 C.ar    1  UNL1       -0.0043
     18 C         -21.4164   -9.9423  -10.2862 C.ar    1  UNL1       -0.0206
     19 C         -21.5132   -9.0397   -9.2040 C.ar    1  UNL1        0.0234
     20 C         -22.8569   -8.4764   -8.8001 C.3     1  UNL1        0.0983
     21 N         -23.8268   -8.5229   -9.9029 N.3     1  UNL1       -0.2934
     22 C         -23.9341   -9.8874  -10.4420 C.3     1  UNL1        0.0748
     23 C         -22.6143  -10.2567  -11.1439 C.3     1  UNL1        0.0433
     24 H         -19.6474   -7.6713   -6.7716 H       1  UNL1        0.2922
     25 H         -24.7542   -8.2454   -9.5029 H       1  UNL1        0.1236
     26 C         -24.8006  -10.5181  -13.8459 C.3     1  UNL1        0.0725
     27 C         -25.0882  -11.9439  -13.3421 C.3     1  UNL1        0.0188
     28 C         -25.7844  -12.8137  -14.4077 C.3     1  UNL1        0.0185
     29 C         -25.2531  -14.2548  -14.4479 C.3     1  UNL1        0.0686
     30 N         -24.5138  -14.5069  -15.6913 N.3     1  UNL1       -0.2975
     31 H         -24.3862  -13.5883  -16.1784 H       1  UNL1        0.1232
     32 C         -23.1874  -15.0648  -15.3958 C.3     1  UNL1        0.0685
     33 C         -22.0616  -14.1012  -15.8314 C.3     1  UNL1        0.0158
     34 C         -21.0824  -13.7806  -14.6683 C.3     1  UNL1        0.0014
     35 C         -21.4946  -12.5170  -13.9062 C.3     1  UNL1        0.0000
     36 C         -21.4913  -11.2757  -14.8220 C.3     1  UNL1        0.0000
     37 C         -21.7525  -11.6073  -16.3053 C.3     1  UNL1        0.0000
     38 C         -22.6786  -12.8189  -16.4537 C.3     1  UNL1        0.0014
@<TRIPOS>BOND
     1    13    14    1
     2    14    15   ar
     3    15    16   ar
     4    16    17   ar
     5    17    18   ar
     6    18    19   ar
     7    19    20    1
     8    20    21    1
     9    21    22    1
    10    22    12    1
    11    12     1    1
    12     1    26    1
    13    26    27    1
    14    27    28    1
    15    28    29    1
    16    29    30    1
    17    30    32    1
    18    32    33    1
    19    33    34    1
    20    34    35    1
    21    35    36    1
    22    36    37    1
    23    37    38    1
    24     1     2    1
    25     2     3    1
    26     3     4    1
    27     4     5    1
    28     5     6    1
    29     6     7   ar
    30     7     8   ar
    31     8     9   ar
    32     9    10   ar
    33    10    11   ar
    34    22    23    1
    35    19    14   ar
    36    38    33    1
    37    11     2    1
    38    23    18    1
    39    11     6   ar
    40    13    24    1
    41    21    25    1
    42    30    31    1
@<TRIPOS>MOLECULE
*****
 38 42 0 0 0
SMALL
GASTEIGER

@<TRIPOS>ATOM
      1 N         -21.9704   -8.7651  -11.9492 N.3     1  UNL1       -0.2679
      2 C         -23.1015   -7.9080  -11.4964 C.3     1  UNL1        0.0978
      3 C         -23.7505   -7.1648  -12.6816 C.3     1  UNL1        0.0224
      4 C         -24.9218   -6.3151  -12.1943 C.3     1  UNL1        0.0065
      5 C         -26.0263   -7.2166  -11.6361 C.3     1  UNL1        0.0277
      6 C         -25.4997   -8.2520  -10.6693 C.ar    1  UNL1       -0.0073
      7 C         -26.4033   -8.9217   -9.8324 C.ar    1  UNL1       -0.0015
      8 C         -25.9532   -9.9146   -8.9638 C.ar    1  UNL1        0.0203
      9 C         -24.5981  -10.2365   -8.9403 C.ar    1  UNL1        0.0985
     10 N         -23.7324   -9.5927   -9.7649 N.ar    1  UNL1       -0.2471
     11 C         -24.1360   -8.6352  -10.6466 C.ar    1  UNL1        0.0695
     12 C         -22.0015   -9.1755  -13.3695 C.3     1  UNL1        0.0886
     13 O         -22.6413  -15.3664  -15.3717 O.3     1  UNL1       -0.5058
     14 C         -23.6139  -14.4510  -14.9690 C.ar    1  UNL1        0.1306
     15 C         -24.9612  -14.8350  -14.9298 C.ar    1  UNL1        0.0363
     16 C         -25.9387  -13.9313  -14.5124 C.ar    1  UNL1        0.0028
     17 C         -25.5790  -12.6399  -14.1250 C.ar    1  UNL1       -0.0043
     18 C         -24.2339  -12.2416  -14.1464 C.ar    1  UNL1       -0.0206
     19 C         -23.2446  -13.1425  -14.5991 C.ar    1  UNL1        0.0234
     20 C         -21.7864  -12.7433  -14.5828 C.3     1  UNL1        0.0983
     21 N         -21.6155  -11.2839  -14.5918 N.3     1  UNL1       -0.2934
     22 C         -22.3744  -10.6661  -13.4934 C.3     1  UNL1        0.0748
     23 C         -23.8808  -10.8263  -13.7698 C.3     1  UNL1        0.0433
     24 H         -22.8820  -16.3131  -15.6412 H       1  UNL1        0.2922
     25 H         -20.5956  -11.0972  -14.4426 H       1  UNL1        0.1236
     26 C         -20.6132   -8.5429  -11.3919 C.3     1  UNL1        0.0725
     27 C         -20.1081   -9.6827  -10.4891 C.3     1  UNL1        0.0188
     28 C         -19.5656   -9.1674   -9.1411 C.3     1  UNL1        0.0185
     29 C         -20.5659   -8.2724   -8.3935 C.3     1  UNL1        0.0686
     30 N         -19.8820   -7.4435   -7.3927 N.3     1  UNL1       -0.2975
     31 H         -20.6128   -7.0375   -6.7616 H       1  UNL1        0.1232
     32 C         -18.9713   -8.2635   -6.5827 C.3     1  UNL1        0.0685
     33 C         -18.6032   -7.5562   -5.2599 C.3     1  UNL1        0.0158
     34 C         -17.0943   -7.1917   -5.1908 C.3     1  UNL1        0.0014
     35 C         -16.2711   -8.2917   -4.5130 C.3     1  UNL1        0.0000
     36 C         -16.7222   -8.5216   -3.0558 C.3     1  UNL1        0.0000
     37 C         -18.2025   -8.1667   -2.8090 C.3     1  UNL1        0.0000
     38 C         -19.0558   -8.4255   -4.0550 C.3     1  UNL1        0.0014
@<TRIPOS>BOND
     1    13    14    1
     2    14    15   ar
     3    15    16   ar
     4    16    17   ar
     5    17    18   ar
     6    18    19   ar
     7    19    20    1
     8    20    21    1
     9    21    22    1
    10    22    12    1
    11    12     1    1
    12     1    26    1
    13    26    27    1
    14    27    28    1
    15    28    29    1
    16    29    30    1
    17    30    32    1
    18    32    33    1
    19    33    34    1
    20    34    35    1
    21    35    36    1
    22    36    37    1
    23    37    38    1
    24     1     2    1
    25     2     3    1
    26     3     4    1
    27     4     5    1
    28     5     6    1
    29     6     7   ar
    30     7     8   ar
    31     8     9   ar
    32     9    10   ar
    33    10    11   ar
    34    22    23    1
    35    19    14   ar
    36    38    33    1
    37    11     2    1
    38    23    18    1
    39    11     6   ar
    40    13    24    1
    41    21    25    1
    42    30    31    1
@<TRIPOS>MOLECULE
*****
 38 42 0 0 0
SMALL
GASTEIGER

@<TRIPOS>ATOM
      1 N         -25.0272   -6.7072  -13.0596 N.3     1  UNL1       -0.2679
      2 C         -24.4780   -8.0872  -13.1739 C.3     1  UNL1        0.0978
      3 C         -25.5543   -9.1462  -12.8603 C.3     1  UNL1        0.0224
      4 C         -24.9728  -10.5502  -13.0100 C.3     1  UNL1        0.0065
      5 C         -24.5793  -10.8014  -14.4682 C.3     1  UNL1        0.0277
      6 C         -23.7650   -9.6713  -15.0544 C.ar    1  UNL1       -0.0073
      7 C         -23.0570   -9.8903  -16.2445 C.ar    1  UNL1       -0.0015
      8 C         -22.3352   -8.8535  -16.8336 C.ar    1  UNL1        0.0203
      9 C         -22.3292   -7.5982  -16.2299 C.ar    1  UNL1        0.0985
     10 N         -23.0297   -7.3915  -15.0852 N.ar    1  UNL1       -0.2471
     11 C         -23.7687   -8.3709  -14.4920 C.ar    1  UNL1        0.0695
     12 C         -26.5014   -6.5957  -13.0937 C.3     1  UNL1        0.0886
     13 O         -27.1443   -3.0049  -18.5194 O.3     1  UNL1       -0.5058
     14 C         -28.0962   -3.3610  -17.5639 C.ar    1  UNL1        0.1306
     15 C         -29.4284   -2.9546  -17.7196 C.ar    1  UNL1        0.0363
     16 C         -30.3905   -3.3202  -16.7777 C.ar    1  UNL1        0.0028
     17 C         -30.0322   -4.0992  -15.6768 C.ar    1  UNL1       -0.0043
     18 C         -28.7059   -4.5253  -15.5107 C.ar    1  UNL1       -0.0206
     19 C         -27.7221   -4.1304  -16.4443 C.ar    1  UNL1        0.0234
     20 C         -26.2988   -4.6210  -16.3042 C.3     1  UNL1        0.0983
     21 N         -25.9892   -5.0238  -14.9254 N.3     1  UNL1       -0.2934
     22 C         -26.9681   -6.0091  -14.4407 C.3     1  UNL1        0.0748
     23 C         -28.3385   -5.3237  -14.2872 C.3     1  UNL1        0.0433
     24 H         -27.3892   -2.4532  -19.3333 H       1  UNL1        0.2922
     25 H         -25.0427   -5.4722  -14.9459 H       1  UNL1        0.1236
     26 C         -24.3449   -5.7160  -12.1916 C.3     1  UNL1        0.0725
     27 C         -23.1466   -6.2826  -11.4089 C.3     1  UNL1        0.0188
     28 C         -22.1421   -5.1872  -10.9993 C.3     1  UNL1        0.0185
     29 C         -21.6167   -5.3594   -9.5658 C.3     1  UNL1        0.0686
     30 N         -21.8670   -6.7207   -9.0753 N.3     1  UNL1       -0.2975
     31 H         -22.2822   -7.2723   -9.8630 H       1  UNL1        0.1232
     32 C         -20.6076   -7.3608   -8.6724 C.3     1  UNL1        0.0685
     33 C         -20.5121   -8.8045   -9.2128 C.3     1  UNL1        0.0158
     34 C         -19.5595   -8.9102  -10.4359 C.3     1  UNL1        0.0014
     35 C         -20.3122   -8.7559  -11.7614 C.3     1  UNL1        0.0000
     36 C         -21.3691   -9.8642  -11.9460 C.3     1  UNL1        0.0000
     37 C         -21.9126  -10.4211  -10.6146 C.3     1  UNL1        0.0000
     38 C         -21.9345   -9.3446   -9.5245 C.3     1  UNL1        0.0014
@<TRIPOS>BOND
     1    13    14    1
     2    14    15   ar
     3    15    16   ar
     4    16    17   ar
     5    17    18   ar
     6    18    19   ar
     7    19    20    1
     8    20    21    1
     9    21    22    1
    10    22    12    1
    11    12     1    1
    12     1    26    1
    13    26    27    1
    14    27    28    1
    15    28    29    1
    16    29    30    1
    17    30    32    1
    18    32    33    1
    19    33    34    1
    20    34    35    1
    21    35    36    1
    22    36    37    1
    23    37    38    1
    24     1     2    1
    25     2     3    1
    26     3     4    1
    27     4     5    1
    28     5     6    1
    29     6     7   ar
    30     7     8   ar
    31     8     9   ar
    32     9    10   ar
    33    10    11   ar
    34    22    23    1
    35    19    14   ar
    36    38    33    1
    37    11     2    1
    38    23    18    1
    39    11     6   ar
    40    13    24    1
    41    21    25    1
    42    30    31    1
