@<TRIPOS>MOLECULE
*****
 45 50 0 0 0
SMALL
GASTEIGER

@<TRIPOS>ATOM
      1 C         -63.9679  -51.7292  -24.0030 C.ar    1  UNL1        0.0702
      2 C         -62.8908  -52.2532  -23.2799 C.ar    1  UNL1        0.0191
      3 C         -61.8362  -51.4274  -22.8879 C.ar    1  UNL1        0.0356
      4 C         -61.8507  -50.0647  -23.2379 C.ar    1  UNL1        0.1318
      5 N         -62.8993  -49.5866  -23.9658 N.ar    1  UNL1       -0.2279
      6 C         -63.9385  -50.3712  -24.3551 C.ar    1  UNL1        0.1149
      7 N         -60.7821  -49.1719  -22.8422 N.pl3   1  UNL1       -0.2932
      8 C         -60.7180  -48.6379  -21.4696 C.3     1  UNL1        0.0923
      9 C         -59.7339  -47.4638  -21.3573 C.3     1  UNL1        0.0252
     10 C         -59.8969  -46.5228  -22.5637 C.3     1  UNL1        0.0472
     11 C         -59.6154  -47.2572  -23.9028 C.3     1  UNL1        0.0252
     12 C         -59.7324  -48.7874  -23.7994 C.3     1  UNL1        0.0923
     13 C         -59.0009  -45.2797  -22.4046 C.3     1  UNL1        0.2055
     14 O         -59.3783  -44.2532  -23.3241 O.3     1  UNL1       -0.4732
     15 C         -60.4675  -43.3784  -23.1735 C.ar    1  UNL1        0.1660
     16 C         -61.5969  -43.4224  -24.0120 C.ar    1  UNL1        0.0392
     17 C         -62.6503  -42.5287  -23.8182 C.ar    1  UNL1        0.0035
     18 C         -62.5939  -41.5847  -22.7920 C.ar    1  UNL1        0.0089
     19 C         -61.4759  -41.5215  -21.9425 C.ar    1  UNL1        0.1059
     20 C         -60.4177  -42.4334  -22.1385 C.ar    1  UNL1        0.1800
     21 F         -59.3166  -42.3924  -21.3442 F       1  UNL1       -0.2008
     22 C         -61.4243  -40.5234  -20.8457 C.2     1  UNL1        0.3403
     23 O         -61.1618  -40.8924  -19.6703 O.2     1  UNL1       -0.2450
     24 O         -61.6562  -39.1691  -21.0820 O.3     1  UNL1       -0.4770
     25 H         -61.7793  -38.7948  -22.0142 H       1  UNL1        0.2954
     26 C         -65.5978  -53.6326  -23.5960 C.2     1  UNL1        0.2839
     27 O         -65.0048  -54.0007  -22.5464 O.2     1  UNL1       -0.2665
     28 N         -65.0362  -52.5973  -24.4190 N.am    1  UNL1       -0.2766
     29 H         -65.3650  -52.5251  -25.4086 H       1  UNL1        0.1553
     30 C         -68.4428  -53.4356  -22.1333 C.3     1  UNL1        0.0345
     31 C         -68.0960  -54.2096  -23.3693 C.ar    1  UNL1        0.0202
     32 C         -66.8518  -54.2937  -24.0045 C.ar    1  UNL1        0.1946
     33 O         -66.9393  -55.0718  -25.0686 O.2     1  UNL1       -0.4492
     34 C         -68.1757  -55.4974  -25.1562 C.ar    1  UNL1        0.1452
     35 C         -68.7122  -56.3384  -26.1248 C.ar    1  UNL1        0.0375
     36 C         -70.0748  -56.6698  -26.0299 C.ar    1  UNL1        0.0031
     37 C         -70.8772  -56.1588  -24.9741 C.ar    1  UNL1        0.0002
     38 C         -70.2915  -55.3058  -24.0079 C.ar    1  UNL1        0.0028
     39 C         -68.9358  -54.9980  -24.1328 C.ar    1  UNL1        0.0337
     40 C         -72.3158  -56.5157  -24.8842 C.ar    1  UNL1        0.0000
     41 C         -73.0580  -56.7950  -26.0475 C.ar    1  UNL1        0.0000
     42 C         -74.4128  -57.1300  -25.9600 C.ar    1  UNL1        0.0000
     43 C         -75.0408  -57.1907  -24.7140 C.ar    1  UNL1        0.0000
     44 C         -74.3155  -56.9160  -23.5527 C.ar    1  UNL1        0.0000
     45 C         -72.9607  -56.5797  -23.6342 C.ar    1  UNL1        0.0000
@<TRIPOS>BOND
     1    30    31    1
     2    31    32   ar
     3    32    26    1
     4    26    27    2
     5    26    28   am
     6    28     1    1
     7     1     2   ar
     8     2     3   ar
     9     3     4   ar
    10     4     7    1
    11     7     8    1
    12     8     9    1
    13     9    10    1
    14    10    13    1
    15    13    14    1
    16    14    15    1
    17    15    16   ar
    18    16    17   ar
    19    17    18   ar
    20    18    19   ar
    21    19    22    1
    22    22    23    2
    23    22    24    1
    24    19    20   ar
    25    20    21    1
    26    10    11    1
    27    11    12    1
    28     4     5   ar
    29     5     6   ar
    30    32    33   ar
    31    33    34   ar
    32    34    35   ar
    33    35    36   ar
    34    36    37   ar
    35    37    40    1
    36    40    41   ar
    37    41    42   ar
    38    42    43   ar
    39    43    44   ar
    40    44    45   ar
    41    37    38   ar
    42    38    39   ar
    43    39    31   ar
    44     6     1   ar
    45    39    34   ar
    46    12     7    1
    47    45    40   ar
    48    20    15   ar
    49    28    29    1
    50    24    25    1
@<TRIPOS>MOLECULE
*****
 45 50 0 0 0
SMALL
GASTEIGER

@<TRIPOS>ATOM
      1 C         -64.0331  -50.9912  -24.1329 C.ar    1  UNL1        0.0702
      2 C         -62.9363  -51.3923  -23.3622 C.ar    1  UNL1        0.0191
      3 C         -61.8734  -50.5160  -23.1386 C.ar    1  UNL1        0.0356
      4 C         -61.8996  -49.2291  -23.7067 C.ar    1  UNL1        0.1318
      5 N         -62.9678  -48.8742  -24.4753 N.ar    1  UNL1       -0.2279
      6 C         -64.0154  -49.7093  -24.7034 C.ar    1  UNL1        0.1149
      7 N         -60.8226  -48.2862  -23.4907 N.pl3   1  UNL1       -0.2932
      8 C         -60.4367  -47.8853  -22.1256 C.3     1  UNL1        0.0923
      9 C         -59.5326  -46.6435  -22.1274 C.3     1  UNL1        0.0252
     10 C         -60.0624  -45.6077  -23.1343 C.3     1  UNL1        0.0472
     11 C         -60.0942  -46.1792  -24.5780 C.3     1  UNL1        0.0252
     12 C         -60.0845  -47.7164  -24.6294 C.3     1  UNL1        0.0923
     13 C         -59.2352  -44.3101  -23.0608 C.3     1  UNL1        0.2055
     14 O         -60.0363  -43.1713  -23.3816 O.3     1  UNL1       -0.4732
     15 C         -60.8261  -42.4438  -22.4754 C.ar    1  UNL1        0.1660
     16 C         -60.4295  -42.2038  -21.1466 C.ar    1  UNL1        0.0392
     17 C         -61.2538  -41.4757  -20.2885 C.ar    1  UNL1        0.0035
     18 C         -62.4773  -40.9789  -20.7398 C.ar    1  UNL1        0.0089
     19 C         -62.8948  -41.2066  -22.0625 C.ar    1  UNL1        0.1059
     20 C         -62.0529  -41.9365  -22.9275 C.ar    1  UNL1        0.1800
     21 F         -62.4304  -42.1859  -24.2082 F       1  UNL1       -0.2008
     22 C         -64.1914  -40.6676  -22.5418 C.2     1  UNL1        0.3403
     23 O         -65.2554  -41.3091  -22.3345 O.2     1  UNL1       -0.2450
     24 O         -64.2686  -39.4521  -23.2203 O.3     1  UNL1       -0.4770
     25 H         -63.4678  -38.8444  -23.3368 H       1  UNL1        0.2954
     26 C         -65.2896  -53.1448  -23.6549 C.2     1  UNL1        0.2839
     27 O         -64.3579  -53.6050  -22.9416 O.2     1  UNL1       -0.2665
     28 N         -65.1102  -51.9132  -24.3729 N.am    1  UNL1       -0.2766
     29 H         -65.7514  -51.7150  -25.1743 H       1  UNL1        0.1553
     30 C         -67.8314  -52.9860  -21.7089 C.3     1  UNL1        0.0345
     31 C         -67.6669  -53.8251  -22.9403 C.ar    1  UNL1        0.0202
     32 C         -66.5547  -53.8921  -23.7869 C.ar    1  UNL1        0.1946
     33 O         -66.7854  -54.7445  -24.7696 O.2     1  UNL1       -0.4492
     34 C         -67.9896  -55.2344  -24.6037 C.ar    1  UNL1        0.1452
     35 C         -68.6403  -56.1646  -25.4066 C.ar    1  UNL1        0.0375
     36 C         -69.9412  -56.5543  -25.0441 C.ar    1  UNL1        0.0031
     37 C         -70.5696  -56.0117  -23.8906 C.ar    1  UNL1        0.0002
     38 C         -69.8717  -55.0673  -23.0998 C.ar    1  UNL1        0.0028
     39 C         -68.5816  -54.7035  -23.4892 C.ar    1  UNL1        0.0337
     40 C         -71.9444  -56.4308  -23.5176 C.ar    1  UNL1        0.0000
     41 C         -72.9676  -56.4705  -24.4839 C.ar    1  UNL1        0.0000
     42 C         -74.2616  -56.8647  -24.1296 C.ar    1  UNL1        0.0000
     43 C         -74.5487  -57.2237  -22.8107 C.ar    1  UNL1        0.0000
     44 C         -73.5424  -57.1886  -21.8430 C.ar    1  UNL1        0.0000
     45 C         -72.2469  -56.7944  -22.1914 C.ar    1  UNL1        0.0000
@<TRIPOS>BOND
     1    30    31    1
     2    31    32   ar
     3    32    26    1
     4    26    27    2
     5    26    28   am
     6    28     1    1
     7     1     2   ar
     8     2     3   ar
     9     3     4   ar
    10     4     7    1
    11     7     8    1
    12     8     9    1
    13     9    10    1
    14    10    13    1
    15    13    14    1
    16    14    15    1
    17    15    16   ar
    18    16    17   ar
    19    17    18   ar
    20    18    19   ar
    21    19    22    1
    22    22    23    2
    23    22    24    1
    24    19    20   ar
    25    20    21    1
    26    10    11    1
    27    11    12    1
    28     4     5   ar
    29     5     6   ar
    30    32    33   ar
    31    33    34   ar
    32    34    35   ar
    33    35    36   ar
    34    36    37   ar
    35    37    40    1
    36    40    41   ar
    37    41    42   ar
    38    42    43   ar
    39    43    44   ar
    40    44    45   ar
    41    37    38   ar
    42    38    39   ar
    43    39    31   ar
    44     6     1   ar
    45    39    34   ar
    46    12     7    1
    47    45    40   ar
    48    20    15   ar
    49    28    29    1
    50    24    25    1
@<TRIPOS>MOLECULE
*****
 45 50 0 0 0
SMALL
GASTEIGER

@<TRIPOS>ATOM
      1 C         -64.3441  -52.2065  -24.6686 C.ar    1  UNL1        0.0702
      2 C         -63.6843  -52.5169  -23.4745 C.ar    1  UNL1        0.0191
      3 C         -64.1891  -53.5028  -22.6255 C.ar    1  UNL1        0.0356
      4 C         -65.3775  -54.1745  -22.9665 C.ar    1  UNL1        0.1318
      5 N         -66.0141  -53.8332  -24.1224 N.ar    1  UNL1       -0.2279
      6 C         -65.5390  -52.8794  -24.9658 C.ar    1  UNL1        0.1149
      7 N         -65.9292  -55.2105  -22.1192 N.pl3   1  UNL1       -0.2932
      8 C         -66.4913  -56.4410  -22.7051 C.3     1  UNL1        0.0923
      9 C         -67.3213  -57.2340  -21.6844 C.3     1  UNL1        0.0252
     10 C         -68.2029  -56.2760  -20.8644 C.3     1  UNL1        0.0472
     11 C         -67.3482  -55.2396  -20.0851 C.3     1  UNL1        0.0252
     12 C         -65.9309  -55.0607  -20.6551 C.3     1  UNL1        0.0923
     13 C         -69.1275  -57.0672  -19.9197 C.3     1  UNL1        0.2055
     14 O         -69.8856  -56.1876  -19.0871 O.3     1  UNL1       -0.4732
     15 C         -70.2241  -56.4206  -17.7434 C.ar    1  UNL1        0.1660
     16 C         -71.4367  -57.0235  -17.3605 C.ar    1  UNL1        0.0392
     17 C         -71.7225  -57.2302  -16.0109 C.ar    1  UNL1        0.0035
     18 C         -70.8093  -56.8419  -15.0297 C.ar    1  UNL1        0.0089
     19 C         -69.5922  -56.2373  -15.3881 C.ar    1  UNL1        0.1059
     20 C         -69.3055  -56.0386  -16.7550 C.ar    1  UNL1        0.1800
     21 F         -68.1445  -55.4459  -17.1365 F       1  UNL1       -0.2008
     22 C         -68.6190  -55.8356  -14.3425 C.2     1  UNL1        0.3403
     23 O         -67.4044  -56.1481  -14.4592 O.2     1  UNL1       -0.2450
     24 O         -69.0142  -55.1077  -13.2210 O.3     1  UNL1       -0.4770
     25 H         -69.9530  -54.7455  -13.1130 H       1  UNL1        0.2954
     26 C         -64.0010  -49.7670  -25.2822 C.2     1  UNL1        0.2839
     27 O         -64.8466  -49.3692  -24.4364 O.2     1  UNL1       -0.2665
     28 N         -63.8237  -51.1726  -25.5219 N.am    1  UNL1       -0.2766
     29 H         -63.3619  -51.4635  -26.4134 H       1  UNL1        0.1553
     30 C         -64.0962  -49.3062  -28.4526 C.3     1  UNL1        0.0345
     31 C         -63.2576  -48.5820  -27.4429 C.ar    1  UNL1        0.0202
     32 C         -63.2184  -48.7870  -26.0590 C.ar    1  UNL1        0.1946
     33 O         -62.3564  -47.9543  -25.5031 O.2     1  UNL1       -0.4492
     34 C         -61.8339  -47.2202  -26.4549 C.ar    1  UNL1        0.1452
     35 C         -60.8832  -46.2148  -26.3196 C.ar    1  UNL1        0.0375
     36 C         -60.4589  -45.5468  -27.4812 C.ar    1  UNL1        0.0031
     37 C         -60.9880  -45.8916  -28.7543 C.ar    1  UNL1        0.0002
     38 C         -61.9542  -46.9220  -28.8483 C.ar    1  UNL1        0.0028
     39 C         -62.3522  -47.5641  -27.6745 C.ar    1  UNL1        0.0337
     40 C         -60.5323  -45.1788  -29.9747 C.ar    1  UNL1        0.0000
     41 C         -61.4217  -44.3657  -30.7028 C.ar    1  UNL1        0.0000
     42 C         -60.9901  -43.6963  -31.8522 C.ar    1  UNL1        0.0000
     43 C         -59.6695  -43.8294  -32.2867 C.ar    1  UNL1        0.0000
     44 C         -58.7775  -44.6328  -31.5730 C.ar    1  UNL1        0.0000
     45 C         -59.2038  -45.3052  -30.4235 C.ar    1  UNL1        0.0000
@<TRIPOS>BOND
     1    30    31    1
     2    31    32   ar
     3    32    26    1
     4    26    27    2
     5    26    28   am
     6    28     1    1
     7     1     2   ar
     8     2     3   ar
     9     3     4   ar
    10     4     7    1
    11     7     8    1
    12     8     9    1
    13     9    10    1
    14    10    13    1
    15    13    14    1
    16    14    15    1
    17    15    16   ar
    18    16    17   ar
    19    17    18   ar
    20    18    19   ar
    21    19    22    1
    22    22    23    2
    23    22    24    1
    24    19    20   ar
    25    20    21    1
    26    10    11    1
    27    11    12    1
    28     4     5   ar
    29     5     6   ar
    30    32    33   ar
    31    33    34   ar
    32    34    35   ar
    33    35    36   ar
    34    36    37   ar
    35    37    40    1
    36    40    41   ar
    37    41    42   ar
    38    42    43   ar
    39    43    44   ar
    40    44    45   ar
    41    37    38   ar
    42    38    39   ar
    43    39    31   ar
    44     6     1   ar
    45    39    34   ar
    46    12     7    1
    47    45    40   ar
    48    20    15   ar
    49    28    29    1
    50    24    25    1
@<TRIPOS>MOLECULE
*****
 45 50 0 0 0
SMALL
GASTEIGER

@<TRIPOS>ATOM
      1 C         -72.6076  -56.0041  -21.9572 C.ar    1  UNL1        0.0702
      2 C         -71.3775  -56.5993  -21.6570 C.ar    1  UNL1        0.0191
      3 C         -71.0353  -56.8822  -20.3339 C.ar    1  UNL1        0.0356
      4 C         -71.9266  -56.5502  -19.2971 C.ar    1  UNL1        0.1318
      5 N         -73.1064  -55.9466  -19.6159 N.ar    1  UNL1       -0.2279
      6 C         -73.4621  -55.6652  -20.8970 C.ar    1  UNL1        0.1149
      7 N         -71.6148  -56.8359  -17.9127 N.pl3   1  UNL1       -0.2932
      8 C         -72.6764  -57.2300  -16.9687 C.3     1  UNL1        0.0923
      9 C         -72.2044  -57.1478  -15.5092 C.3     1  UNL1        0.0252
     10 C         -71.3915  -55.8599  -15.2903 C.3     1  UNL1        0.0472
     11 C         -70.1358  -55.8152  -16.2030 C.3     1  UNL1        0.0252
     12 C         -70.2300  -56.7486  -17.4219 C.3     1  UNL1        0.0923
     13 C         -71.0132  -55.7053  -13.8049 C.3     1  UNL1        0.2055
     14 O         -71.5991  -54.5283  -13.2453 O.3     1  UNL1       -0.4732
     15 C         -72.8599  -54.0039  -13.5766 C.ar    1  UNL1        0.1660
     16 C         -74.0258  -54.3191  -12.8543 C.ar    1  UNL1        0.0392
     17 C         -75.2528  -53.7705  -13.2276 C.ar    1  UNL1        0.0035
     18 C         -75.3348  -52.9048  -14.3191 C.ar    1  UNL1        0.0089
     19 C         -74.1839  -52.5760  -15.0559 C.ar    1  UNL1        0.1059
     20 C         -72.9448  -53.1276  -14.6681 C.ar    1  UNL1        0.1800
     21 F         -71.8148  -52.8414  -15.3652 F       1  UNL1       -0.2008
     22 C         -74.2732  -51.6467  -16.2092 C.2     1  UNL1        0.3403
     23 O         -74.9275  -51.9757  -17.2340 O.2     1  UNL1       -0.2450
     24 O         -73.6492  -50.4001  -16.1898 O.3     1  UNL1       -0.4770
     25 H         -73.1885  -50.0372  -15.3651 H       1  UNL1        0.2954
     26 C         -71.9892  -55.7246  -24.4036 C.2     1  UNL1        0.2839
     27 O         -70.7530  -55.7734  -24.1626 O.2     1  UNL1       -0.2665
     28 N         -72.9363  -55.6984  -23.3234 N.am    1  UNL1       -0.2766
     29 H         -73.9026  -55.3554  -23.5267 H       1  UNL1        0.1553
     30 C         -71.2151  -53.5142  -26.5917 C.3     1  UNL1        0.0345
     31 C         -72.1300  -54.6903  -26.7564 C.ar    1  UNL1        0.0202
     32 C         -72.4661  -55.6529  -25.7978 C.ar    1  UNL1        0.1946
     33 O         -73.3005  -56.5358  -26.3172 O.2     1  UNL1       -0.4492
     34 C         -73.5235  -56.1953  -27.5630 C.ar    1  UNL1        0.1452
     35 C         -74.3387  -56.8456  -28.4826 C.ar    1  UNL1        0.0375
     36 C         -74.4341  -56.3066  -29.7772 C.ar    1  UNL1        0.0031
     37 C         -73.7175  -55.1318  -30.1320 C.ar    1  UNL1        0.0002
     38 C         -72.8987  -54.4999  -29.1652 C.ar    1  UNL1        0.0028
     39 C         -72.8277  -55.0623  -27.8897 C.ar    1  UNL1        0.0337
     40 C         -73.8260  -54.5715  -31.5029 C.ar    1  UNL1        0.0000
     41 C         -74.4372  -53.3218  -31.7191 C.ar    1  UNL1        0.0000
     42 C         -74.5388  -52.7970  -33.0112 C.ar    1  UNL1        0.0000
     43 C         -74.0323  -53.5108  -34.0996 C.ar    1  UNL1        0.0000
     44 C         -73.4235  -54.7514  -33.8982 C.ar    1  UNL1        0.0000
     45 C         -73.3199  -55.2814  -32.6085 C.ar    1  UNL1        0.0000
@<TRIPOS>BOND
     1    30    31    1
     2    31    32   ar
     3    32    26    1
     4    26    27    2
     5    26    28   am
     6    28     1    1
     7     1     2   ar
     8     2     3   ar
     9     3     4   ar
    10     4     7    1
    11     7     8    1
    12     8     9    1
    13     9    10    1
    14    10    13    1
    15    13    14    1
    16    14    15    1
    17    15    16   ar
    18    16    17   ar
    19    17    18   ar
    20    18    19   ar
    21    19    22    1
    22    22    23    2
    23    22    24    1
    24    19    20   ar
    25    20    21    1
    26    10    11    1
    27    11    12    1
    28     4     5   ar
    29     5     6   ar
    30    32    33   ar
    31    33    34   ar
    32    34    35   ar
    33    35    36   ar
    34    36    37   ar
    35    37    40    1
    36    40    41   ar
    37    41    42   ar
    38    42    43   ar
    39    43    44   ar
    40    44    45   ar
    41    37    38   ar
    42    38    39   ar
    43    39    31   ar
    44     6     1   ar
    45    39    34   ar
    46    12     7    1
    47    45    40   ar
    48    20    15   ar
    49    28    29    1
    50    24    25    1
@<TRIPOS>MOLECULE
*****
 45 50 0 0 0
SMALL
GASTEIGER

@<TRIPOS>ATOM
      1 C         -63.9781  -51.1883  -24.0953 C.ar    1  UNL1        0.0702
      2 C         -63.7860  -50.0850  -24.9339 C.ar    1  UNL1        0.0191
      3 C         -62.7510  -49.1822  -24.6857 C.ar    1  UNL1        0.0356
      4 C         -61.9086  -49.3757  -23.5754 C.ar    1  UNL1        0.1318
      5 N         -62.1352  -50.4440  -22.7598 N.ar    1  UNL1       -0.2279
      6 C         -63.1342  -51.3377  -22.9842 C.ar    1  UNL1        0.1149
      7 N         -60.8173  -48.4690  -23.2884 N.pl3   1  UNL1       -0.2932
      8 C         -60.4320  -48.1729  -21.8965 C.3     1  UNL1        0.0923
      9 C         -59.5074  -46.9497  -21.8061 C.3     1  UNL1        0.0252
     10 C         -60.0145  -45.8360  -22.7388 C.3     1  UNL1        0.0472
     11 C         -60.0480  -46.3026  -24.2197 C.3     1  UNL1        0.0252
     12 C         -60.0637  -47.8322  -24.3805 C.3     1  UNL1        0.0923
     13 C         -59.1663  -44.5611  -22.5696 C.3     1  UNL1        0.2055
     14 O         -59.4792  -43.5982  -23.5778 O.3     1  UNL1       -0.4732
     15 C         -60.7320  -42.9921  -23.7710 C.ar    1  UNL1        0.1660
     16 C         -61.4786  -42.4404  -22.7133 C.ar    1  UNL1        0.0392
     17 C         -62.7184  -41.8511  -22.9617 C.ar    1  UNL1        0.0035
     18 C         -63.2283  -41.8030  -24.2598 C.ar    1  UNL1        0.0089
     19 C         -62.5010  -42.3480  -25.3319 C.ar    1  UNL1        0.1059
     20 C         -61.2442  -42.9351  -25.0752 C.ar    1  UNL1        0.1800
     21 F         -60.5202  -43.4826  -26.0856 F       1  UNL1       -0.2008
     22 C         -63.0416  -42.2854  -26.7123 C.2     1  UNL1        0.3403
     23 O         -63.0517  -41.1909  -27.3357 O.2     1  UNL1       -0.2450
     24 O         -63.5414  -43.4196  -27.3507 O.3     1  UNL1       -0.4770
     25 H         -63.4768  -44.3437  -26.9433 H       1  UNL1        0.2954
     26 C         -65.2861  -53.3104  -23.6144 C.2     1  UNL1        0.2839
     27 O         -64.3858  -53.7709  -22.8621 O.2     1  UNL1       -0.2665
     28 N         -65.0627  -52.0972  -24.3512 N.am    1  UNL1       -0.2766
     29 H         -65.6743  -51.9053  -25.1769 H       1  UNL1        0.1553
     30 C         -67.8820  -53.0771  -21.7491 C.3     1  UNL1        0.0345
     31 C         -67.6947  -53.9398  -22.9607 C.ar    1  UNL1        0.0202
     32 C         -66.5589  -54.0393  -23.7722 C.ar    1  UNL1        0.1946
     33 O         -66.7743  -54.9046  -24.7470 O.2     1  UNL1       -0.4492
     34 C         -67.9910  -55.3721  -24.6094 C.ar    1  UNL1        0.1452
     35 C         -68.6327  -56.3054  -25.4159 C.ar    1  UNL1        0.0375
     36 C         -69.9501  -56.6677  -25.0864 C.ar    1  UNL1        0.0031
     37 C         -70.6036  -56.0953  -23.9617 C.ar    1  UNL1        0.0002
     38 C         -69.9142  -55.1488  -23.1661 C.ar    1  UNL1        0.0028
     39 C         -68.6071  -54.8126  -23.5223 C.ar    1  UNL1        0.0337
     40 C         -71.9958  -56.4856  -23.6234 C.ar    1  UNL1        0.0000
     41 C         -72.9218  -56.7872  -24.6402 C.ar    1  UNL1        0.0000
     42 C         -74.2324  -57.1536  -24.3188 C.ar    1  UNL1        0.0000
     43 C         -74.6330  -57.2240  -22.9827 C.ar    1  UNL1        0.0000
     44 C         -73.7238  -56.9275  -21.9649 C.ar    1  UNL1        0.0000
     45 C         -72.4123  -56.5597  -22.2804 C.ar    1  UNL1        0.0000
@<TRIPOS>BOND
     1    30    31    1
     2    31    32   ar
     3    32    26    1
     4    26    27    2
     5    26    28   am
     6    28     1    1
     7     1     2   ar
     8     2     3   ar
     9     3     4   ar
    10     4     7    1
    11     7     8    1
    12     8     9    1
    13     9    10    1
    14    10    13    1
    15    13    14    1
    16    14    15    1
    17    15    16   ar
    18    16    17   ar
    19    17    18   ar
    20    18    19   ar
    21    19    22    1
    22    22    23    2
    23    22    24    1
    24    19    20   ar
    25    20    21    1
    26    10    11    1
    27    11    12    1
    28     4     5   ar
    29     5     6   ar
    30    32    33   ar
    31    33    34   ar
    32    34    35   ar
    33    35    36   ar
    34    36    37   ar
    35    37    40    1
    36    40    41   ar
    37    41    42   ar
    38    42    43   ar
    39    43    44   ar
    40    44    45   ar
    41    37    38   ar
    42    38    39   ar
    43    39    31   ar
    44     6     1   ar
    45    39    34   ar
    46    12     7    1
    47    45    40   ar
    48    20    15   ar
    49    28    29    1
    50    24    25    1
@<TRIPOS>MOLECULE
*****
 45 50 0 0 0
SMALL
GASTEIGER

@<TRIPOS>ATOM
      1 C         -63.9058  -51.1186  -24.2826 C.ar    1  UNL1        0.0702
      2 C         -63.1135  -52.0017  -23.5410 C.ar    1  UNL1        0.0191
      3 C         -63.6328  -53.2236  -23.1108 C.ar    1  UNL1        0.0356
      4 C         -64.9659  -53.5588  -23.4110 C.ar    1  UNL1        0.1318
      5 N         -65.7233  -52.6681  -24.1116 N.ar    1  UNL1       -0.2279
      6 C         -65.2377  -51.4747  -24.5438 C.ar    1  UNL1        0.1149
      7 N         -65.5400  -54.8201  -22.9926 N.pl3   1  UNL1       -0.2932
      8 C         -66.5590  -55.4932  -23.8185 C.3     1  UNL1        0.0923
      9 C         -67.2756  -56.6107  -23.0458 C.3     1  UNL1        0.0252
     10 C         -67.6025  -56.1380  -21.6185 C.3     1  UNL1        0.0472
     11 C         -66.3167  -55.7614  -20.8332 C.3     1  UNL1        0.0252
     12 C         -65.1106  -55.4611  -21.7393 C.3     1  UNL1        0.0923
     13 C         -68.4261  -57.2042  -20.8713 C.3     1  UNL1        0.2055
     14 O         -69.1192  -56.6326  -19.7601 O.3     1  UNL1       -0.4732
     15 C         -70.4445  -56.1663  -19.7733 C.ar    1  UNL1        0.1660
     16 C         -71.4894  -56.8689  -20.4019 C.ar    1  UNL1        0.0392
     17 C         -72.7877  -56.3591  -20.3855 C.ar    1  UNL1        0.0035
     18 C         -73.0617  -55.1495  -19.7457 C.ar    1  UNL1        0.0089
     19 C         -72.0343  -54.4298  -19.1117 C.ar    1  UNL1        0.1059
     20 C         -70.7251  -54.9549  -19.1249 C.ar    1  UNL1        0.1800
     21 F         -69.7059  -54.2797  -18.5331 F       1  UNL1       -0.2008
     22 C         -72.3315  -53.1494  -18.4233 C.2     1  UNL1        0.3403
     23 O         -72.5207  -53.1330  -17.1781 O.2     1  UNL1       -0.2450
     24 O         -72.4037  -51.9459  -19.1234 O.3     1  UNL1       -0.4770
     25 H         -72.1706  -51.8753  -20.1057 H       1  UNL1        0.2954
     26 C         -63.6187  -49.2518  -25.9790 C.2     1  UNL1        0.2839
     27 O         -64.1352  -49.9298  -26.9076 O.2     1  UNL1       -0.2665
     28 N         -63.3634  -49.8537  -24.6995 N.am    1  UNL1       -0.2766
     29 H         -62.6756  -49.3862  -24.0662 H       1  UNL1        0.1553
     30 C         -63.6725  -47.6894  -28.7770 C.3     1  UNL1        0.0345
     31 C         -63.2596  -47.1607  -27.4364 C.ar    1  UNL1        0.0202
     32 C         -63.2368  -47.8468  -26.2168 C.ar    1  UNL1        0.1946
     33 O         -62.8145  -47.0452  -25.2552 O.2     1  UNL1       -0.4492
     34 C         -62.5616  -45.8749  -25.7880 C.ar    1  UNL1        0.1452
     35 C         -62.0978  -44.7352  -25.1405 C.ar    1  UNL1        0.0375
     36 C         -61.8944  -43.5761  -25.9089 C.ar    1  UNL1        0.0031
     37 C         -62.1560  -43.5726  -27.3058 C.ar    1  UNL1        0.0002
     38 C         -62.6269  -44.7547  -27.9264 C.ar    1  UNL1        0.0028
     39 C         -62.8173  -45.8872  -27.1330 C.ar    1  UNL1        0.0337
     40 C         -61.9375  -42.3419  -28.1074 C.ar    1  UNL1        0.0000
     41 C         -62.9257  -41.8840  -28.9996 C.ar    1  UNL1        0.0000
     42 C         -62.7170  -40.7252  -29.7539 C.ar    1  UNL1        0.0000
     43 C         -61.5234  -40.0113  -29.6263 C.ar    1  UNL1        0.0000
     44 C         -60.5355  -40.4550  -28.7445 C.ar    1  UNL1        0.0000
     45 C         -60.7385  -41.6135  -27.9884 C.ar    1  UNL1        0.0000
@<TRIPOS>BOND
     1    30    31    1
     2    31    32   ar
     3    32    26    1
     4    26    27    2
     5    26    28   am
     6    28     1    1
     7     1     2   ar
     8     2     3   ar
     9     3     4   ar
    10     4     7    1
    11     7     8    1
    12     8     9    1
    13     9    10    1
    14    10    13    1
    15    13    14    1
    16    14    15    1
    17    15    16   ar
    18    16    17   ar
    19    17    18   ar
    20    18    19   ar
    21    19    22    1
    22    22    23    2
    23    22    24    1
    24    19    20   ar
    25    20    21    1
    26    10    11    1
    27    11    12    1
    28     4     5   ar
    29     5     6   ar
    30    32    33   ar
    31    33    34   ar
    32    34    35   ar
    33    35    36   ar
    34    36    37   ar
    35    37    40    1
    36    40    41   ar
    37    41    42   ar
    38    42    43   ar
    39    43    44   ar
    40    44    45   ar
    41    37    38   ar
    42    38    39   ar
    43    39    31   ar
    44     6     1   ar
    45    39    34   ar
    46    12     7    1
    47    45    40   ar
    48    20    15   ar
    49    28    29    1
    50    24    25    1
@<TRIPOS>MOLECULE
*****
 45 50 0 0 0
SMALL
GASTEIGER

@<TRIPOS>ATOM
      1 C         -62.4714  -40.9720  -20.1845 C.ar    1  UNL1        0.0702
      2 C         -61.0767  -41.0350  -20.0933 C.ar    1  UNL1        0.0191
      3 C         -60.3879  -42.1483  -20.5768 C.ar    1  UNL1        0.0356
      4 C         -61.1039  -43.2192  -21.1427 C.ar    1  UNL1        0.1318
      5 N         -62.4638  -43.1431  -21.1944 N.ar    1  UNL1       -0.2279
      6 C         -63.1550  -42.0677  -20.7334 C.ar    1  UNL1        0.1149
      7 N         -60.4274  -44.3875  -21.6653 N.pl3   1  UNL1       -0.2932
      8 C         -59.2164  -44.2472  -22.4942 C.3     1  UNL1        0.0923
      9 C         -58.8651  -45.5542  -23.2208 C.3     1  UNL1        0.0252
     10 C         -60.1407  -46.1997  -23.7896 C.3     1  UNL1        0.0472
     11 C         -61.1604  -46.5348  -22.6672 C.3     1  UNL1        0.0252
     12 C         -60.9293  -45.7394  -21.3712 C.3     1  UNL1        0.0923
     13 C         -59.7900  -47.4476  -24.6221 C.3     1  UNL1        0.2055
     14 O         -60.9409  -47.9516  -25.3025 O.3     1  UNL1       -0.4732
     15 C         -61.7968  -48.9600  -24.8282 C.ar    1  UNL1        0.1660
     16 C         -63.1705  -48.9935  -25.1320 C.ar    1  UNL1        0.0392
     17 C         -63.9751  -50.0181  -24.6332 C.ar    1  UNL1        0.0035
     18 C         -63.4252  -51.0181  -23.8300 C.ar    1  UNL1        0.0089
     19 C         -62.0561  -51.0051  -23.5126 C.ar    1  UNL1        0.1059
     20 C         -61.2464  -49.9708  -24.0270 C.ar    1  UNL1        0.1800
     21 F         -59.9219  -49.9202  -23.7301 F       1  UNL1       -0.2008
     22 C         -61.4730  -52.0760  -22.6671 C.2     1  UNL1        0.3403
     23 O         -60.2494  -52.0476  -22.3698 O.2     1  UNL1       -0.2450
     24 O         -62.2519  -53.1252  -22.1811 O.3     1  UNL1       -0.4770
     25 H         -63.2559  -53.1573  -22.3042 H       1  UNL1        0.2954
     26 C         -63.1581  -38.5296  -20.2768 C.2     1  UNL1        0.2839
     27 O         -62.3220  -38.2627  -21.1814 O.2     1  UNL1       -0.2665
     28 N         -63.1685  -39.8281  -19.6615 N.am    1  UNL1       -0.2766
     29 H         -63.6409  -39.9276  -18.7344 H       1  UNL1        0.1553
     30 C         -66.3495  -38.5707  -20.5693 C.3     1  UNL1        0.0345
     31 C         -65.4971  -37.5085  -19.9430 C.ar    1  UNL1        0.0202
     32 C         -64.1033  -37.4941  -19.8180 C.ar    1  UNL1        0.1946
     33 O         -63.7158  -36.3888  -19.2066 O.2     1  UNL1       -0.4492
     34 C         -64.7862  -35.6853  -18.9292 C.ar    1  UNL1        0.1452
     35 C         -64.8433  -34.4530  -18.2876 C.ar    1  UNL1        0.0375
     36 C         -66.1068  -33.8707  -18.0879 C.ar    1  UNL1        0.0031
     37 C         -67.2886  -34.5246  -18.5300 C.ar    1  UNL1        0.0002
     38 C         -67.1863  -35.7783  -19.1797 C.ar    1  UNL1        0.0028
     39 C         -65.9157  -36.3269  -19.3614 C.ar    1  UNL1        0.0337
     40 C         -68.6181  -33.8997  -18.3133 C.ar    1  UNL1        0.0000
     41 C         -69.7629  -34.4129  -18.9524 C.ar    1  UNL1        0.0000
     42 C         -71.0135  -33.8220  -18.7472 C.ar    1  UNL1        0.0000
     43 C         -71.1362  -32.7156  -17.9036 C.ar    1  UNL1        0.0000
     44 C         -70.0082  -32.1974  -17.2637 C.ar    1  UNL1        0.0000
     45 C         -68.7550  -32.7837  -17.4658 C.ar    1  UNL1        0.0000
@<TRIPOS>BOND
     1    30    31    1
     2    31    32   ar
     3    32    26    1
     4    26    27    2
     5    26    28   am
     6    28     1    1
     7     1     2   ar
     8     2     3   ar
     9     3     4   ar
    10     4     7    1
    11     7     8    1
    12     8     9    1
    13     9    10    1
    14    10    13    1
    15    13    14    1
    16    14    15    1
    17    15    16   ar
    18    16    17   ar
    19    17    18   ar
    20    18    19   ar
    21    19    22    1
    22    22    23    2
    23    22    24    1
    24    19    20   ar
    25    20    21    1
    26    10    11    1
    27    11    12    1
    28     4     5   ar
    29     5     6   ar
    30    32    33   ar
    31    33    34   ar
    32    34    35   ar
    33    35    36   ar
    34    36    37   ar
    35    37    40    1
    36    40    41   ar
    37    41    42   ar
    38    42    43   ar
    39    43    44   ar
    40    44    45   ar
    41    37    38   ar
    42    38    39   ar
    43    39    31   ar
    44     6     1   ar
    45    39    34   ar
    46    12     7    1
    47    45    40   ar
    48    20    15   ar
    49    28    29    1
    50    24    25    1
