@<TRIPOS>MOLECULE
*****
 52 57 0 0 0
SMALL
GASTEIGER

@<TRIPOS>ATOM
      1 C          61.4600   86.8366   13.7511 C.ar    1  UNL1        0.0502
      2 C          61.9352   85.7130   13.0607 C.ar    1  UNL1        0.0148
      3 C          61.0618   84.6860   12.6950 C.ar    1  UNL1        0.0080
      4 C          59.6970   84.7582   13.0216 C.ar    1  UNL1        0.0808
      5 C          59.2160   85.8967   13.6977 C.ar    1  UNL1        0.1457
      6 F          57.8947   86.0429   13.9704 F       1  UNL1       -0.2040
      7 C          60.0936   86.9235   14.0595 C.ar    1  UNL1        0.0443
      8 C          62.3894   89.1457   13.3588 C.3     1  UNL1        0.1223
      9 C          62.6385   90.3296   14.3042 C.3     1  UNL1        0.1144
     10 N          63.7742   90.0400   15.1860 N.pl3   1  UNL1       -0.2897
     11 C          63.7161   88.8101   15.9846 C.3     1  UNL1        0.1136
     12 C          63.4581   87.6058   15.0755 C.3     1  UNL1        0.1123
     13 N          62.3657   87.8899   14.1322 N.pl3   1  UNL1       -0.3034
     14 C          64.8719   90.9671   15.2946 C.ar    1  UNL1        0.1318
     15 C          64.8796   91.9715   16.2747 C.ar    1  UNL1        0.0343
     16 C          65.9588   92.8535   16.3488 C.ar    1  UNL1        0.0083
     17 C          67.0363   92.7285   15.4592 C.ar    1  UNL1        0.0906
     18 C          66.9726   91.7336   14.4712 C.ar    1  UNL1        0.1041
     19 N          65.9107   90.8873   14.4178 N.ar    1  UNL1       -0.2292
     20 C          68.1833   93.7059   15.4960 C.3     1  UNL1        0.4200
     21 F          68.4709   94.0715   16.7996 F       1  UNL1       -0.1658
     22 F          67.8423   94.8354   14.7759 F       1  UNL1       -0.1658
     23 F          69.3209   93.1442   14.9426 F       1  UNL1       -0.1658
     24 C          63.4538   89.0810   12.2507 C.3     1  UNL1        0.1636
     25 C          62.7246   90.3645   10.4824 C.3     1  UNL1        0.1742
     26 O          63.5529   90.3421   11.6225 O.3     1  UNL1       -0.3493
     27 C          58.7933   83.6525   12.6314 C.2     1  UNL1        0.2483
     28 O          57.6119   83.9166   12.2764 O.2     1  UNL1       -0.2701
     29 N          59.2547   82.2921   12.6185 N.am    1  UNL1       -0.2945
     30 H          60.2823   82.1109   12.6809 H       1  UNL1        0.1501
     31 C          58.3602   81.1707   12.3211 C.3     1  UNL1        0.1535
     32 C          58.0767   81.1278   10.8413 C.2     1  UNL1        0.2443
     33 O          57.5465   80.0965   10.3462 O.2     1  UNL1       -0.2730
     34 N          58.3712   82.2622   10.0113 N.am    1  UNL1       -0.2825
     35 H          58.4601   83.1956   10.4728 H       1  UNL1        0.1549
     36 C          58.5262   82.1968    8.5828 C.ar    1  UNL1        0.0535
     37 C          59.6334   82.8113    7.9824 C.ar    1  UNL1        0.0353
     38 C          59.8126   82.7167    6.6003 C.ar    1  UNL1        0.1002
     39 N          58.9264   82.0169    5.8440 N.ar    1  UNL1       -0.2422
     40 C          57.8530   81.3947    6.3987 C.ar    1  UNL1        0.1002
     41 C          57.6341   81.4680    7.7763 C.ar    1  UNL1        0.0353
     42 C          58.9814   79.8499   12.8164 C.3     1  UNL1        0.0569
     43 C          60.4714   79.8257   12.6172 C.ar    1  UNL1       -0.0017
     44 C          61.1566   79.1670   11.6006 C.ar    1  UNL1        0.0681
     45 N          62.4776   79.4506   11.6605 N.ar    1  UNL1       -0.3523
     46 C          62.6314   80.2891   12.7000 C.ar    1  UNL1        0.0563
     47 C          63.8145   80.8832   13.1369 C.ar    1  UNL1        0.0170
     48 C          63.7446   81.7582   14.2362 C.ar    1  UNL1        0.0015
     49 C          62.5082   82.0158   14.8679 C.ar    1  UNL1        0.0001
     50 C          61.3302   81.4019   14.4059 C.ar    1  UNL1        0.0012
     51 C          61.4293   80.5420   13.3105 C.ar    1  UNL1        0.0131
     52 H          63.2210   79.1035   11.0145 H       1  UNL1        0.1660
@<TRIPOS>BOND
     1    25    26    1
     2    26    24    1
     3    24     8    1
     4     8     9    1
     5     9    10    1
     6    10    14    1
     7    14    15   ar
     8    15    16   ar
     9    16    17   ar
    10    17    20    1
    11    20    21    1
    12    20    22    1
    13    20    23    1
    14    17    18   ar
    15    18    19   ar
    16    10    11    1
    17    11    12    1
    18    12    13    1
    19    13     1    1
    20     1     2   ar
    21     2     3   ar
    22     3     4   ar
    23     4    27    1
    24    27    28    2
    25    27    29   am
    26    29    31    1
    27    31    42    1
    28    42    43    1
    29    43    44   ar
    30    44    45   ar
    31    45    46   ar
    32    46    47   ar
    33    47    48   ar
    34    48    49   ar
    35    49    50   ar
    36    50    51   ar
    37    31    32    1
    38    32    33    2
    39    32    34   am
    40    34    36    1
    41    36    37   ar
    42    37    38   ar
    43    38    39   ar
    44    39    40   ar
    45    40    41   ar
    46     4     5   ar
    47     5     6    1
    48     5     7   ar
    49    13     8    1
    50     7     1   ar
    51    19    14   ar
    52    51    43   ar
    53    41    36   ar
    54    51    46   ar
    55    29    30    1
    56    45    52    1
    57    34    35    1
@<TRIPOS>MOLECULE
*****
 52 57 0 0 0
SMALL
GASTEIGER

@<TRIPOS>ATOM
      1 C          61.6436   87.1427   13.9021 C.ar    1  UNL1        0.0502
      2 C          62.0318   85.9797   13.2224 C.ar    1  UNL1        0.0148
      3 C          61.0994   84.9764   12.9480 C.ar    1  UNL1        0.0080
      4 C          59.7619   85.1122   13.3571 C.ar    1  UNL1        0.0808
      5 C          59.3676   86.2898   14.0224 C.ar    1  UNL1        0.1457
      6 F          58.0728   86.4963   14.3723 F       1  UNL1       -0.2040
      7 C          60.3039   87.2927   14.2925 C.ar    1  UNL1        0.0443
      8 C          63.8622   88.2321   13.4112 C.3     1  UNL1        0.1223
      9 C          64.2632   89.6979   13.1920 C.3     1  UNL1        0.1144
     10 N          64.2017   90.4322   14.4602 N.pl3   1  UNL1       -0.2897
     11 C          62.9349   90.4014   15.2007 C.3     1  UNL1        0.1136
     12 C          62.4962   88.9528   15.4299 C.3     1  UNL1        0.1123
     13 N          62.6102   88.1715   14.1888 N.pl3   1  UNL1       -0.3034
     14 C          65.3335   91.1965   14.9195 C.ar    1  UNL1        0.1318
     15 C          65.2090   92.1176   15.9709 C.ar    1  UNL1        0.0343
     16 C          66.3266   92.8424   16.3879 C.ar    1  UNL1        0.0083
     17 C          67.5701   92.6415   15.7703 C.ar    1  UNL1        0.0906
     18 C          67.6437   91.7378   14.6989 C.ar    1  UNL1        0.1041
     19 N          66.5415   91.0445   14.3096 N.ar    1  UNL1       -0.2292
     20 C          68.7727   93.4543   16.1769 C.3     1  UNL1        0.4200
     21 F          69.5544   93.7536   15.0745 F       1  UNL1       -0.1658
     22 F          69.5270   92.7304   17.0811 F       1  UNL1       -0.1658
     23 F          68.3810   94.6440   16.7660 F       1  UNL1       -0.1658
     24 C          64.9791   87.4461   14.1181 C.3     1  UNL1        0.1636
     25 C          65.1206   85.3122   14.9740 C.3     1  UNL1        0.1742
     26 O          64.4040   86.5249   15.0211 O.3     1  UNL1       -0.3493
     27 C          58.7949   84.0307   13.0629 C.2     1  UNL1        0.2483
     28 O          57.5591   84.2834   13.0890 O.2     1  UNL1       -0.2701
     29 N          59.2461   82.7119   12.7151 N.am    1  UNL1       -0.2945
     30 H          60.2521   82.5760   12.4660 H       1  UNL1        0.1501
     31 C          58.3137   81.6019   12.5042 C.3     1  UNL1        0.1535
     32 C          58.0788   81.4115   11.0275 C.2     1  UNL1        0.2443
     33 O          57.6563   80.2993   10.6103 O.2     1  UNL1       -0.2730
     34 N          58.2966   82.4954   10.1109 N.am    1  UNL1       -0.2825
     35 H          58.2894   83.4679   10.4933 H       1  UNL1        0.1549
     36 C          58.4989   82.3265    8.6969 C.ar    1  UNL1        0.0535
     37 C          59.6185   82.9092    8.0879 C.ar    1  UNL1        0.0353
     38 C          59.8437   82.7149    6.7230 C.ar    1  UNL1        0.1002
     39 N          58.9901   81.9497    5.9931 N.ar    1  UNL1       -0.2422
     40 C          57.9058   81.3564    6.5582 C.ar    1  UNL1        0.1002
     41 C          57.6413   81.5285    7.9188 C.ar    1  UNL1        0.0353
     42 C          58.8591   80.3181   13.1602 C.3     1  UNL1        0.0569
     43 C          60.3291   80.1406   12.8997 C.ar    1  UNL1       -0.0017
     44 C          60.9007   79.3616   11.8981 C.ar    1  UNL1        0.0681
     45 N          62.2437   79.5211   11.8840 N.ar    1  UNL1       -0.3523
     46 C          62.5242   80.4001   12.8616 C.ar    1  UNL1        0.0563
     47 C          63.7769   80.9033   13.2099 C.ar    1  UNL1        0.0170
     48 C          63.8412   81.8435   14.2544 C.ar    1  UNL1        0.0015
     49 C          62.6658   82.2540   14.9207 C.ar    1  UNL1        0.0001
     50 C          61.4151   81.7292   14.5484 C.ar    1  UNL1        0.0012
     51 C          61.3815   80.8015   13.5057 C.ar    1  UNL1        0.0131
     52 H          62.9198   79.0678   11.2300 H       1  UNL1        0.1660
@<TRIPOS>BOND
     1    25    26    1
     2    26    24    1
     3    24     8    1
     4     8     9    1
     5     9    10    1
     6    10    14    1
     7    14    15   ar
     8    15    16   ar
     9    16    17   ar
    10    17    20    1
    11    20    21    1
    12    20    22    1
    13    20    23    1
    14    17    18   ar
    15    18    19   ar
    16    10    11    1
    17    11    12    1
    18    12    13    1
    19    13     1    1
    20     1     2   ar
    21     2     3   ar
    22     3     4   ar
    23     4    27    1
    24    27    28    2
    25    27    29   am
    26    29    31    1
    27    31    42    1
    28    42    43    1
    29    43    44   ar
    30    44    45   ar
    31    45    46   ar
    32    46    47   ar
    33    47    48   ar
    34    48    49   ar
    35    49    50   ar
    36    50    51   ar
    37    31    32    1
    38    32    33    2
    39    32    34   am
    40    34    36    1
    41    36    37   ar
    42    37    38   ar
    43    38    39   ar
    44    39    40   ar
    45    40    41   ar
    46     4     5   ar
    47     5     6    1
    48     5     7   ar
    49    13     8    1
    50     7     1   ar
    51    19    14   ar
    52    51    43   ar
    53    41    36   ar
    54    51    46   ar
    55    29    30    1
    56    45    52    1
    57    34    35    1
@<TRIPOS>MOLECULE
*****
 52 57 0 0 0
SMALL
GASTEIGER

@<TRIPOS>ATOM
      1 C          61.6234   87.0995   13.8276 C.ar    1  UNL1        0.0502
      2 C          62.0360   85.9443   13.1489 C.ar    1  UNL1        0.0148
      3 C          61.1038   84.9750   12.7711 C.ar    1  UNL1        0.0080
      4 C          59.7412   85.1375   13.0736 C.ar    1  UNL1        0.0808
      5 C          59.3240   86.3078   13.7378 C.ar    1  UNL1        0.1457
      6 F          58.0106   86.5412   13.9869 F       1  UNL1       -0.2040
      7 C          60.2605   87.2767   14.1118 C.ar    1  UNL1        0.0443
      8 C          62.6200   89.3944   13.5276 C.3     1  UNL1        0.1223
      9 C          62.9667   90.5052   14.5292 C.3     1  UNL1        0.1144
     10 N          64.1367   90.1190   15.3249 N.pl3   1  UNL1       -0.2897
     11 C          64.0742   88.8430   16.0473 C.3     1  UNL1        0.1136
     12 C          63.7196   87.7098   15.0811 C.3     1  UNL1        0.1123
     13 N          62.5893   88.0929   14.2213 N.pl3   1  UNL1       -0.3034
     14 C          65.2743   90.9972   15.4283 C.ar    1  UNL1        0.1318
     15 C          65.2305   92.1511   16.2259 C.ar    1  UNL1        0.0343
     16 C          66.3509   92.9801   16.3003 C.ar    1  UNL1        0.0083
     17 C          67.5189   92.6552   15.5943 C.ar    1  UNL1        0.0906
     18 C          67.5089   91.5121   14.7800 C.ar    1  UNL1        0.1041
     19 N          66.4054   90.7208   14.7223 N.ar    1  UNL1       -0.2292
     20 C          68.7176   93.5685   15.6259 C.3     1  UNL1        0.4200
     21 F          69.5684   93.2932   14.5693 F       1  UNL1       -0.1658
     22 F          69.3998   93.3836   16.8138 F       1  UNL1       -0.1658
     23 F          68.3249   94.8925   15.5322 F       1  UNL1       -0.1658
     24 C          63.6188   89.3632   12.3586 C.3     1  UNL1        0.1636
     25 C          63.4828   91.0301   10.7746 C.3     1  UNL1        0.1742
     26 O          64.0045   90.6833   12.0371 O.3     1  UNL1       -0.3493
     27 C          58.7741   84.0916   12.6710 C.2     1  UNL1        0.2483
     28 O          57.6319   84.4327   12.2577 O.2     1  UNL1       -0.2701
     29 N          59.1318   82.7008   12.7118 N.am    1  UNL1       -0.2945
     30 H          60.1392   82.4457   12.8240 H       1  UNL1        0.1501
     31 C          58.1687   81.6412   12.4026 C.3     1  UNL1        0.1535
     32 C          57.9740   81.5533   10.9105 C.2     1  UNL1        0.2443
     33 O          57.4463   80.5192   10.4189 O.2     1  UNL1       -0.2730
     34 N          58.3494   82.6499   10.0624 N.am    1  UNL1       -0.2825
     35 H          58.4361   83.5963   10.4969 H       1  UNL1        0.1549
     36 C          58.5886   82.5301    8.6492 C.ar    1  UNL1        0.0535
     37 C          59.7065   83.1594    8.0852 C.ar    1  UNL1        0.0353
     38 C          59.9682   83.0134    6.7208 C.ar    1  UNL1        0.1002
     39 N          59.1517   82.2501    5.9477 N.ar    1  UNL1       -0.2422
     40 C          58.0703   81.6124    6.4684 C.ar    1  UNL1        0.1002
     41 C          57.7701   81.7355    7.8269 C.ar    1  UNL1        0.0353
     42 C          58.6484   80.2994   12.9902 C.3     1  UNL1        0.0569
     43 C          60.1329   80.1212   12.8329 C.ar    1  UNL1       -0.0017
     44 C          61.0608   79.9874   13.8615 C.ar    1  UNL1        0.0681
     45 N          62.2901   79.7325   13.3587 N.ar    1  UNL1       -0.3523
     46 C          62.1452   79.6953   12.0228 C.ar    1  UNL1        0.0563
     47 C          63.1323   79.4315   11.0741 C.ar    1  UNL1        0.0170
     48 C          62.7545   79.4132    9.7191 C.ar    1  UNL1        0.0015
     49 C          61.4145   79.6576    9.3467 C.ar    1  UNL1        0.0001
     50 C          60.4395   79.9215   10.3255 C.ar    1  UNL1        0.0012
     51 C          60.8425   79.9286   11.6621 C.ar    1  UNL1        0.0131
     52 H          63.1674   79.5752   13.9029 H       1  UNL1        0.1660
@<TRIPOS>BOND
     1    25    26    1
     2    26    24    1
     3    24     8    1
     4     8     9    1
     5     9    10    1
     6    10    14    1
     7    14    15   ar
     8    15    16   ar
     9    16    17   ar
    10    17    20    1
    11    20    21    1
    12    20    22    1
    13    20    23    1
    14    17    18   ar
    15    18    19   ar
    16    10    11    1
    17    11    12    1
    18    12    13    1
    19    13     1    1
    20     1     2   ar
    21     2     3   ar
    22     3     4   ar
    23     4    27    1
    24    27    28    2
    25    27    29   am
    26    29    31    1
    27    31    42    1
    28    42    43    1
    29    43    44   ar
    30    44    45   ar
    31    45    46   ar
    32    46    47   ar
    33    47    48   ar
    34    48    49   ar
    35    49    50   ar
    36    50    51   ar
    37    31    32    1
    38    32    33    2
    39    32    34   am
    40    34    36    1
    41    36    37   ar
    42    37    38   ar
    43    38    39   ar
    44    39    40   ar
    45    40    41   ar
    46     4     5   ar
    47     5     6    1
    48     5     7   ar
    49    13     8    1
    50     7     1   ar
    51    19    14   ar
    52    51    43   ar
    53    41    36   ar
    54    51    46   ar
    55    29    30    1
    56    45    52    1
    57    34    35    1
@<TRIPOS>MOLECULE
*****
 52 57 0 0 0
SMALL
GASTEIGER

@<TRIPOS>ATOM
      1 C          61.9505   86.3004   12.7867 C.ar    1  UNL1        0.0502
      2 C          62.5526   85.2764   12.0425 C.ar    1  UNL1        0.0148
      3 C          61.7838   84.2288   11.5298 C.ar    1  UNL1        0.0080
      4 C          60.3984   84.1797   11.7601 C.ar    1  UNL1        0.0808
      5 C          59.7904   85.2194   12.4909 C.ar    1  UNL1        0.1457
      6 F          58.4466   85.2516   12.6769 F       1  UNL1       -0.2040
      7 C          60.5637   86.2675   12.9999 C.ar    1  UNL1        0.0443
      8 C          62.4241   88.7691   12.9629 C.3     1  UNL1        0.1223
      9 C          62.6848   89.6840   14.1681 C.3     1  UNL1        0.1144
     10 N          64.0089   89.4061   14.7345 N.pl3   1  UNL1       -0.2897
     11 C          64.3015   88.0227   15.1276 C.3     1  UNL1        0.1136
     12 C          64.0426   87.0772   13.9519 C.3     1  UNL1        0.1123
     13 N          62.7485   87.3749   13.3192 N.pl3   1  UNL1       -0.3034
     14 C          64.9548   90.4729   14.9428 C.ar    1  UNL1        0.1318
     15 C          64.6802   91.5233   15.8321 C.ar    1  UNL1        0.0343
     16 C          65.6190   92.5412   16.0070 C.ar    1  UNL1        0.0083
     17 C          66.8360   92.5078   15.3097 C.ar    1  UNL1        0.0906
     18 C          67.0559   91.4592   14.4031 C.ar    1  UNL1        0.1041
     19 N          66.1262   90.4800   14.2486 N.ar    1  UNL1       -0.2292
     20 C          67.8360   93.6268   15.4511 C.3     1  UNL1        0.4200
     21 F          69.0674   93.2472   14.9456 F       1  UNL1       -0.1658
     22 F          67.9767   93.9454   16.7888 F       1  UNL1       -0.1658
     23 F          67.4123   94.7498   14.7618 F       1  UNL1       -0.1658
     24 C          63.2329   89.2179   11.7344 C.3     1  UNL1        0.1636
     25 C          61.5846   90.1185   10.4010 C.3     1  UNL1        0.1742
     26 O          62.6868   90.4175   11.2269 O.3     1  UNL1       -0.3493
     27 C          59.6070   83.0540   11.2144 C.2     1  UNL1        0.2483
     28 O          58.5051   82.7561   11.7519 O.2     1  UNL1       -0.2701
     29 N          60.0599   82.3231   10.0636 N.am    1  UNL1       -0.2945
     30 H          60.8381   82.7220    9.4910 H       1  UNL1        0.1501
     31 C          59.3424   81.1516    9.5549 C.3     1  UNL1        0.1535
     32 C          58.7900   80.3554   10.7094 C.2     1  UNL1        0.2443
     33 O          57.5903   79.9693   10.6722 O.2     1  UNL1       -0.2730
     34 N          59.6303   80.0074   11.8208 N.am    1  UNL1       -0.2825
     35 H          60.6647   80.0144   11.6725 H       1  UNL1        0.1549
     36 C          59.1356   79.6261   13.1165 C.ar    1  UNL1        0.0535
     37 C          58.6405   80.6118   13.9809 C.ar    1  UNL1        0.0353
     38 C          58.1204   80.2445   15.2242 C.ar    1  UNL1        0.1002
     39 N          58.0789   78.9352   15.5862 N.ar    1  UNL1       -0.2422
     40 C          58.5344   77.9545   14.7630 C.ar    1  UNL1        0.1002
     41 C          59.0665   78.2787   13.5129 C.ar    1  UNL1        0.0353
     42 C          58.2270   81.5911    8.5861 C.3     1  UNL1        0.0569
     43 C          58.0735   83.0864    8.5548 C.ar    1  UNL1       -0.0017
     44 C          57.0063   83.8165    9.0693 C.ar    1  UNL1        0.0681
     45 N          57.2493   85.1431    8.9686 N.ar    1  UNL1       -0.3523
     46 C          58.4636   85.2571    8.4034 C.ar    1  UNL1        0.0563
     47 C          59.1582   86.4338    8.1262 C.ar    1  UNL1        0.0170
     48 C          60.4385   86.3229    7.5540 C.ar    1  UNL1        0.0015
     49 C          60.9892   85.0532    7.2735 C.ar    1  UNL1        0.0001
     50 C          60.2655   83.8826    7.5634 C.ar    1  UNL1        0.0012
     51 C          58.9996   84.0233    8.1351 C.ar    1  UNL1        0.0131
     52 H          56.6262   85.9183    9.2869 H       1  UNL1        0.1660
@<TRIPOS>BOND
     1    25    26    1
     2    26    24    1
     3    24     8    1
     4     8     9    1
     5     9    10    1
     6    10    14    1
     7    14    15   ar
     8    15    16   ar
     9    16    17   ar
    10    17    20    1
    11    20    21    1
    12    20    22    1
    13    20    23    1
    14    17    18   ar
    15    18    19   ar
    16    10    11    1
    17    11    12    1
    18    12    13    1
    19    13     1    1
    20     1     2   ar
    21     2     3   ar
    22     3     4   ar
    23     4    27    1
    24    27    28    2
    25    27    29   am
    26    29    31    1
    27    31    42    1
    28    42    43    1
    29    43    44   ar
    30    44    45   ar
    31    45    46   ar
    32    46    47   ar
    33    47    48   ar
    34    48    49   ar
    35    49    50   ar
    36    50    51   ar
    37    31    32    1
    38    32    33    2
    39    32    34   am
    40    34    36    1
    41    36    37   ar
    42    37    38   ar
    43    38    39   ar
    44    39    40   ar
    45    40    41   ar
    46     4     5   ar
    47     5     6    1
    48     5     7   ar
    49    13     8    1
    50     7     1   ar
    51    19    14   ar
    52    51    43   ar
    53    41    36   ar
    54    51    46   ar
    55    29    30    1
    56    45    52    1
    57    34    35    1
@<TRIPOS>MOLECULE
*****
 52 57 0 0 0
SMALL
GASTEIGER

@<TRIPOS>ATOM
      1 C          60.1354   86.9851    9.9618 C.ar    1  UNL1        0.0502
      2 C          59.1023   86.0710   10.2117 C.ar    1  UNL1        0.0148
      3 C          59.2221   85.1319   11.2388 C.ar    1  UNL1        0.0080
      4 C          60.3822   85.0820   12.0301 C.ar    1  UNL1        0.0808
      5 C          61.4118   86.0136   11.7918 C.ar    1  UNL1        0.1457
      6 F          62.5187   86.0498   12.5762 F       1  UNL1       -0.2040
      7 C          61.2865   86.9537   10.7642 C.ar    1  UNL1        0.0443
      8 C          59.2703   87.5871    7.6729 C.3     1  UNL1        0.1223
      9 C          58.5101   88.8140    7.1495 C.3     1  UNL1        0.1144
     10 N          59.4029   89.9767    7.1000 N.pl3   1  UNL1       -0.2897
     11 C          60.0972   90.3516    8.3375 C.3     1  UNL1        0.1136
     12 C          60.8601   89.1479    8.8965 C.3     1  UNL1        0.1123
     13 N          60.0103   87.9472    8.8971 N.pl3   1  UNL1       -0.3034
     14 C          59.5383   90.7449    5.8885 C.ar    1  UNL1        0.1318
     15 C          58.4307   91.3750    5.3008 C.ar    1  UNL1        0.0343
     16 C          58.5989   92.1090    4.1257 C.ar    1  UNL1        0.0083
     17 C          59.8694   92.2291    3.5429 C.ar    1  UNL1        0.0906
     18 C          60.9439   91.5537    4.1424 C.ar    1  UNL1        0.1041
     19 N          60.7554   90.8437    5.2858 N.ar    1  UNL1       -0.2292
     20 C          60.0553   92.9761    2.2469 C.3     1  UNL1        0.4200
     21 F          61.2637   92.6419    1.6605 F       1  UNL1       -0.1658
     22 F          60.0368   94.3352    2.4981 F       1  UNL1       -0.1658
     23 F          59.0416   92.6678    1.3563 F       1  UNL1       -0.1658
     24 C          60.2252   87.0239    6.6070 C.3     1  UNL1        0.1636
     25 C          61.3516   85.1033    7.1975 C.3     1  UNL1        0.1742
     26 O          60.1682   85.6128    6.6261 O.3     1  UNL1       -0.3493
     27 C          60.4892   84.0712   13.1063 C.2     1  UNL1        0.2483
     28 O          59.4410   83.6684   13.6815 O.2     1  UNL1       -0.2701
     29 N          61.7630   83.5202   13.4772 N.am    1  UNL1       -0.2945
     30 H          62.5805   83.6784   12.8454 H       1  UNL1        0.1501
     31 C          61.9095   82.5845   14.5948 C.3     1  UNL1        0.1535
     32 C          61.3615   81.2365   14.2019 C.2     1  UNL1        0.2443
     33 O          62.1591   80.2763   14.0240 O.2     1  UNL1       -0.2730
     34 N          59.9453   81.0378   14.0692 N.am    1  UNL1       -0.2825
     35 H          59.3098   81.7091   14.5566 H       1  UNL1        0.1549
     36 C          59.3491   79.9585   13.3286 C.ar    1  UNL1        0.0535
     37 C          59.1351   80.1054   11.9514 C.ar    1  UNL1        0.0353
     38 C          58.5947   79.0464   11.2180 C.ar    1  UNL1        0.1002
     39 N          58.2943   77.8731   11.8346 N.ar    1  UNL1       -0.2422
     40 C          58.5071   77.6934   13.1648 C.ar    1  UNL1        0.1002
     41 C          59.0416   78.7280   13.9359 C.ar    1  UNL1        0.0353
     42 C          63.3882   82.4919   15.0198 C.3     1  UNL1        0.0569
     43 C          64.0511   83.8413   15.0280 C.ar    1  UNL1       -0.0017
     44 C          65.2296   84.1848   14.3725 C.ar    1  UNL1        0.0681
     45 N          65.4746   85.5084   14.5036 N.ar    1  UNL1       -0.3523
     46 C          64.4571   86.0051   15.2282 C.ar    1  UNL1        0.0563
     47 C          64.2530   87.3345   15.5956 C.ar    1  UNL1        0.0170
     48 C          63.0974   87.6424   16.3364 C.ar    1  UNL1        0.0015
     49 C          62.1830   86.6263   16.6907 C.ar    1  UNL1        0.0001
     50 C          62.4147   85.2933   16.3068 C.ar    1  UNL1        0.0012
     51 C          63.5671   85.0182   15.5684 C.ar    1  UNL1        0.0131
     52 H          66.2809   86.0372   14.1027 H       1  UNL1        0.1660
@<TRIPOS>BOND
     1    25    26    1
     2    26    24    1
     3    24     8    1
     4     8     9    1
     5     9    10    1
     6    10    14    1
     7    14    15   ar
     8    15    16   ar
     9    16    17   ar
    10    17    20    1
    11    20    21    1
    12    20    22    1
    13    20    23    1
    14    17    18   ar
    15    18    19   ar
    16    10    11    1
    17    11    12    1
    18    12    13    1
    19    13     1    1
    20     1     2   ar
    21     2     3   ar
    22     3     4   ar
    23     4    27    1
    24    27    28    2
    25    27    29   am
    26    29    31    1
    27    31    42    1
    28    42    43    1
    29    43    44   ar
    30    44    45   ar
    31    45    46   ar
    32    46    47   ar
    33    47    48   ar
    34    48    49   ar
    35    49    50   ar
    36    50    51   ar
    37    31    32    1
    38    32    33    2
    39    32    34   am
    40    34    36    1
    41    36    37   ar
    42    37    38   ar
    43    38    39   ar
    44    39    40   ar
    45    40    41   ar
    46     4     5   ar
    47     5     6    1
    48     5     7   ar
    49    13     8    1
    50     7     1   ar
    51    19    14   ar
    52    51    43   ar
    53    41    36   ar
    54    51    46   ar
    55    29    30    1
    56    45    52    1
    57    34    35    1
