@<TRIPOS>MOLECULE
*****
 47 52 0 0 0
SMALL
GASTEIGER

@<TRIPOS>ATOM
      1 C          60.6981   89.7200    9.3755 C.ar    1  UNL1        0.0702
      2 C          60.0361   90.4087   10.4035 C.ar    1  UNL1        0.0191
      3 C          59.8859   89.8174   11.6590 C.ar    1  UNL1        0.0356
      4 C          60.3779   88.5208   11.8779 C.ar    1  UNL1        0.1318
      5 N          61.0095   87.8696   10.8619 N.ar    1  UNL1       -0.2279
      6 C          61.1672   88.4260    9.6319 C.ar    1  UNL1        0.1149
      7 N          60.2617   87.8869   13.1657 N.pl3   1  UNL1       -0.2932
      8 C          60.0041   88.6655   14.3853 C.3     1  UNL1        0.0923
      9 C          60.9957   88.2827   15.4971 C.3     1  UNL1        0.0252
     10 C          61.4350   86.7935   15.4463 C.3     1  UNL1        0.0472
     11 C          60.4116   85.9268   14.6899 C.3     1  UNL1        0.0252
     12 C          60.2719   86.4183   13.2408 C.3     1  UNL1        0.0923
     13 C          61.6801   86.2319   16.8598 C.3     1  UNL1        0.2054
     14 O          62.8074   85.3542   16.8757 O.3     1  UNL1       -0.4755
     15 C          63.3208   84.6596   15.7677 C.ar    1  UNL1        0.1388
     16 C          64.3388   85.2653   15.0291 C.ar    1  UNL1        0.0382
     17 C          64.8894   84.6244   13.9195 C.ar    1  UNL1        0.0174
     18 C          64.4354   83.3575   13.5265 C.ar    1  UNL1        0.0480
     19 N          65.0813   82.7056   12.4239 N.pl3   1  UNL1       -0.3568
     20 C          63.3927   82.7354   14.2566 C.ar    1  UNL1        0.0913
     21 C          62.8547   83.3894   15.3795 C.ar    1  UNL1        0.0446
     22 H          64.9505   81.6902   12.2254 H       1  UNL1        0.1424
     23 H          65.7880   83.2160   11.8486 H       1  UNL1        0.1424
     24 C          62.8148   81.4339   13.8512 C.2     1  UNL1        0.3393
     25 O          63.4671   80.6563   13.1056 O.2     1  UNL1       -0.2450
     26 O          61.5313   81.0666   14.2498 O.3     1  UNL1       -0.4771
     27 H          60.9846   81.6420   14.8790 H       1  UNL1        0.2954
     28 C          59.8985   90.1141    6.9968 C.2     1  UNL1        0.2839
     29 O          58.8853   89.3821    7.1554 O.2     1  UNL1       -0.2665
     30 N          60.8512   90.2816    8.0615 N.am    1  UNL1       -0.2766
     31 H          61.6823   90.8911    7.9008 H       1  UNL1        0.1553
     32 C          57.6237   91.3416    5.0469 C.3     1  UNL1        0.0345
     33 C          59.1100   91.3179    4.8555 C.ar    1  UNL1        0.0202
     34 C          60.0906   90.7692    5.6914 C.ar    1  UNL1        0.1946
     35 O          61.2818   90.8960    5.1337 O.2     1  UNL1       -0.4492
     36 C          61.1277   91.5204    3.9918 C.ar    1  UNL1        0.1452
     37 C          62.1162   91.8690    3.0780 C.ar    1  UNL1        0.0375
     38 C          61.7243   92.5382    1.9052 C.ar    1  UNL1        0.0031
     39 C          60.3578   92.8468    1.6640 C.ar    1  UNL1        0.0002
     40 C          59.3834   92.4729    2.6203 C.ar    1  UNL1        0.0028
     41 C          59.8090   91.8122    3.7727 C.ar    1  UNL1        0.0337
     42 C          59.9555   93.5538    0.4217 C.ar    1  UNL1        0.0000
     43 C          60.9269   94.1121   -0.4309 C.ar    1  UNL1        0.0000
     44 C          60.5451   94.7763   -1.6007 C.ar    1  UNL1        0.0000
     45 C          59.1933   94.8915   -1.9321 C.ar    1  UNL1        0.0000
     46 C          58.2200   94.3421   -1.0945 C.ar    1  UNL1        0.0000
     47 C          58.5961   93.6760    0.0760 C.ar    1  UNL1        0.0000
@<TRIPOS>BOND
     1    32    33    1
     2    33    34   ar
     3    34    28    1
     4    28    29    2
     5    28    30   am
     6    30     1    1
     7     1     2   ar
     8     2     3   ar
     9     3     4   ar
    10     4     7    1
    11     7     8    1
    12     8     9    1
    13     9    10    1
    14    10    13    1
    15    13    14    1
    16    14    15    1
    17    15    16   ar
    18    16    17   ar
    19    17    18   ar
    20    18    19    1
    21    18    20   ar
    22    20    24    1
    23    24    25    2
    24    24    26    1
    25    20    21   ar
    26    10    11    1
    27    11    12    1
    28     4     5   ar
    29     5     6   ar
    30    34    35   ar
    31    35    36   ar
    32    36    37   ar
    33    37    38   ar
    34    38    39   ar
    35    39    42    1
    36    42    43   ar
    37    43    44   ar
    38    44    45   ar
    39    45    46   ar
    40    46    47   ar
    41    39    40   ar
    42    40    41   ar
    43    41    33   ar
    44     6     1   ar
    45    41    36   ar
    46    12     7    1
    47    47    42   ar
    48    21    15   ar
    49    30    31    1
    50    19    22    1
    51    19    23    1
    52    26    27    1
@<TRIPOS>MOLECULE
*****
 47 52 0 0 0
SMALL
GASTEIGER

@<TRIPOS>ATOM
      1 C          61.1988   89.6984    9.3721 C.ar    1  UNL1        0.0702
      2 C          60.4914   90.3040   10.4220 C.ar    1  UNL1        0.0191
      3 C          60.4452   89.6959   11.6775 C.ar    1  UNL1        0.0356
      4 C          61.0881   88.4636   11.8751 C.ar    1  UNL1        0.1318
      5 N          61.7613   87.8917   10.8383 N.ar    1  UNL1       -0.2279
      6 C          61.8198   88.4659    9.6078 C.ar    1  UNL1        0.1149
      7 N          61.0813   87.8170   13.1619 N.pl3   1  UNL1       -0.2932
      8 C          61.9844   88.2421   14.2407 C.3     1  UNL1        0.0923
      9 C          62.7155   87.0332   14.8488 C.3     1  UNL1        0.0252
     10 C          61.8716   85.7292   14.8322 C.3     1  UNL1        0.0472
     11 C          60.3647   86.0312   14.7383 C.3     1  UNL1        0.0252
     12 C          60.0594   86.7971   13.4418 C.3     1  UNL1        0.0923
     13 C          62.1718   84.8503   16.0614 C.3     1  UNL1        0.2054
     14 O          62.6665   83.5688   15.6684 O.3     1  UNL1       -0.4755
     15 C          62.4965   82.9768   14.4057 C.ar    1  UNL1        0.1388
     16 C          61.4726   82.0401   14.2538 C.ar    1  UNL1        0.0382
     17 C          61.2540   81.4196   13.0240 C.ar    1  UNL1        0.0174
     18 C          62.0545   81.7273   11.9148 C.ar    1  UNL1        0.0480
     19 N          61.7461   81.1191   10.6527 N.pl3   1  UNL1       -0.3568
     20 C          63.1073   82.6648   12.0561 C.ar    1  UNL1        0.0913
     21 C          63.3087   83.2902   13.2996 C.ar    1  UNL1        0.0446
     22 H          62.1480   81.4676    9.7557 H       1  UNL1        0.1424
     23 H          61.0219   80.3691   10.5904 H       1  UNL1        0.1424
     24 C          64.0368   82.9787   10.9471 C.2     1  UNL1        0.3393
     25 O          65.2767   83.0409   11.1587 O.2     1  UNL1       -0.2450
     26 O          63.5569   83.2504    9.6677 O.3     1  UNL1       -0.4771
     27 H          62.5724   83.1759    9.4418 H       1  UNL1        0.2954
     28 C          60.2558   90.0591    7.0411 C.2     1  UNL1        0.2839
     29 O          59.2985   89.2652    7.2435 O.2     1  UNL1       -0.2665
     30 N          61.2498   90.2775    8.0577 N.am    1  UNL1       -0.2766
     31 H          62.0329   90.9379    7.8612 H       1  UNL1        0.1553
     32 C          57.8139   91.1664    5.2259 C.3     1  UNL1        0.0345
     33 C          59.2868   91.2307    4.9567 C.ar    1  UNL1        0.0202
     34 C          60.3403   90.7338    5.7343 C.ar    1  UNL1        0.1946
     35 O          61.4911   90.9338    5.1162 O.2     1  UNL1       -0.4492
     36 C          61.2409   91.5566    3.9905 C.ar    1  UNL1        0.1452
     37 C          62.1579   91.9688    3.0298 C.ar    1  UNL1        0.0375
     38 C          61.6665   92.6226    1.8862 C.ar    1  UNL1        0.0031
     39 C          60.2737   92.8529    1.7202 C.ar    1  UNL1        0.0002
     40 C          59.3744   92.4160    2.7224 C.ar    1  UNL1        0.0028
     41 C          59.8979   91.7727    3.8440 C.ar    1  UNL1        0.0337
     42 C          59.7661   93.5443    0.5081 C.ar    1  UNL1        0.0000
     43 C          58.3865   93.5809    0.2296 C.ar    1  UNL1        0.0000
     44 C          57.9114   94.2339   -0.9120 C.ar    1  UNL1        0.0000
     45 C          58.8049   94.8556   -1.7870 C.ar    1  UNL1        0.0000
     46 C          60.1759   94.8261   -1.5220 C.ar    1  UNL1        0.0000
     47 C          60.6565   94.1756   -0.3814 C.ar    1  UNL1        0.0000
@<TRIPOS>BOND
     1    32    33    1
     2    33    34   ar
     3    34    28    1
     4    28    29    2
     5    28    30   am
     6    30     1    1
     7     1     2   ar
     8     2     3   ar
     9     3     4   ar
    10     4     7    1
    11     7     8    1
    12     8     9    1
    13     9    10    1
    14    10    13    1
    15    13    14    1
    16    14    15    1
    17    15    16   ar
    18    16    17   ar
    19    17    18   ar
    20    18    19    1
    21    18    20   ar
    22    20    24    1
    23    24    25    2
    24    24    26    1
    25    20    21   ar
    26    10    11    1
    27    11    12    1
    28     4     5   ar
    29     5     6   ar
    30    34    35   ar
    31    35    36   ar
    32    36    37   ar
    33    37    38   ar
    34    38    39   ar
    35    39    42    1
    36    42    43   ar
    37    43    44   ar
    38    44    45   ar
    39    45    46   ar
    40    46    47   ar
    41    39    40   ar
    42    40    41   ar
    43    41    33   ar
    44     6     1   ar
    45    41    36   ar
    46    12     7    1
    47    47    42   ar
    48    21    15   ar
    49    30    31    1
    50    19    22    1
    51    19    23    1
    52    26    27    1
