@<TRIPOS>MOLECULE
*****
 47 52 0 0 0
SMALL
GASTEIGER

@<TRIPOS>ATOM
      1 O          -8.3448  -10.7417   32.2938 O.2     1  UNL1       -0.2701
      2 C          -8.7906  -10.6422   31.1189 C.2     1  UNL1        0.2483
      3 N          -9.5954   -9.5069   30.7796 N.am    1  UNL1       -0.2945
      4 H          -9.2132   -8.8084   30.1034 H       1  UNL1        0.1501
      5 C          -8.5249  -11.7201   30.1286 C.ar    1  UNL1        0.0808
      6 C          -7.2105  -11.9357   29.6757 C.ar    1  UNL1        0.0080
      7 C          -6.9134  -13.0009   28.8224 C.ar    1  UNL1        0.0148
      8 C          -7.9221  -13.8782   28.3966 C.ar    1  UNL1        0.0502
      9 C          -9.2393  -13.6555   28.8303 C.ar    1  UNL1        0.0443
     10 C          -9.5443  -12.5846   29.6744 C.ar    1  UNL1        0.1457
     11 F         -10.8351  -12.4240   30.0574 F       1  UNL1       -0.2040
     12 N          -7.5960  -15.0230   27.5791 N.pl3   1  UNL1       -0.3040
     13 C          -6.3964  -15.0387   26.7287 C.3     1  UNL1        0.1122
     14 C          -6.8216  -15.0973   25.2564 C.3     1  UNL1        0.1122
     15 N          -7.9502  -16.0257   25.0658 N.pl3   1  UNL1       -0.3040
     16 C          -8.3208  -16.9317   26.1644 C.3     1  UNL1        0.1122
     17 C          -8.5760  -16.1150   27.4384 C.3     1  UNL1        0.1122
     18 C          -8.7486  -15.9378   23.8667 C.ar    1  UNL1        0.0488
     19 C          -8.1781  -15.5127   22.6539 C.ar    1  UNL1        0.0154
     20 C          -8.9453  -15.4667   21.4876 C.ar    1  UNL1        0.0135
     21 C         -10.2908  -15.8451   21.5121 C.ar    1  UNL1        0.0683
     22 CL        -11.2216  -15.7789   20.0218 Cl      1  UNL1       -0.0814
     23 C         -10.8716  -16.2744   22.7164 C.ar    1  UNL1        0.0694
     24 CL        -12.5596  -16.7617   22.7904 Cl      1  UNL1       -0.0813
     25 C         -10.1009  -16.3216   23.8840 C.ar    1  UNL1        0.0268
     26 C         -10.9877   -9.3777   31.2181 C.3     1  UNL1        0.1535
     27 C         -11.2169  -10.2179   32.4558 C.2     1  UNL1        0.2443
     28 O         -10.7513   -9.8506   33.5692 O.2     1  UNL1       -0.2730
     29 N         -11.9279  -11.4605   32.3435 N.am    1  UNL1       -0.2825
     30 H         -12.5818  -11.5704   31.5355 H       1  UNL1        0.1549
     31 C         -11.7841  -12.5715   33.2485 C.ar    1  UNL1        0.0535
     32 C         -10.6155  -12.7672   34.0076 C.ar    1  UNL1        0.0353
     33 C         -10.5077  -13.8895   34.8318 C.ar    1  UNL1        0.1002
     34 N         -11.5198  -14.7940   34.8901 N.ar    1  UNL1       -0.2422
     35 C         -12.6532  -14.6414   34.1569 C.ar    1  UNL1        0.1002
     36 C         -12.8026  -13.5328   33.3201 C.ar    1  UNL1        0.0353
     37 C         -11.3517   -7.8918   31.4120 C.3     1  UNL1        0.0569
     38 C         -10.3745   -6.9873   30.7161 C.ar    1  UNL1       -0.0017
     39 C         -10.5497   -6.3631   29.4843 C.ar    1  UNL1        0.0681
     40 N          -9.4397   -5.6684   29.1452 N.ar    1  UNL1       -0.3523
     41 C          -8.5640   -5.8540   30.1481 C.ar    1  UNL1        0.0563
     42 C          -7.2703   -5.3435   30.2459 C.ar    1  UNL1        0.0170
     43 C          -6.5168   -5.6756   31.3868 C.ar    1  UNL1        0.0015
     44 C          -7.0664   -6.5025   32.3919 C.ar    1  UNL1        0.0001
     45 C          -8.3747   -7.0042   32.2658 C.ar    1  UNL1        0.0012
     46 C          -9.0974   -6.6558   31.1244 C.ar    1  UNL1        0.0131
     47 H          -9.2937   -5.1097   28.2752 H       1  UNL1        0.1660
@<TRIPOS>BOND
     1     1     2    2
     2     2     3   am
     3     3    26    1
     4    26    37    1
     5    37    38    1
     6    38    39   ar
     7    39    40   ar
     8    40    41   ar
     9    41    42   ar
    10    42    43   ar
    11    43    44   ar
    12    44    45   ar
    13    45    46   ar
    14    26    27    1
    15    27    28    2
    16    27    29   am
    17    29    31    1
    18    31    32   ar
    19    32    33   ar
    20    33    34   ar
    21    34    35   ar
    22    35    36   ar
    23     2     5    1
    24     5     6   ar
    25     6     7   ar
    26     7     8   ar
    27     8    12    1
    28    12    13    1
    29    13    14    1
    30    14    15    1
    31    15    18    1
    32    18    19   ar
    33    19    20   ar
    34    20    21   ar
    35    21    22    1
    36    21    23   ar
    37    23    24    1
    38    23    25   ar
    39    15    16    1
    40    16    17    1
    41     8     9   ar
    42     9    10   ar
    43    10    11    1
    44    46    38   ar
    45    36    31   ar
    46    10     5   ar
    47    46    41   ar
    48    17    12    1
    49    25    18   ar
    50     3     4    1
    51    40    47    1
    52    29    30    1
@<TRIPOS>MOLECULE
*****
 47 52 0 0 0
SMALL
GASTEIGER

@<TRIPOS>ATOM
      1 O          -7.9553   -9.9492   29.9359 O.2     1  UNL1       -0.2701
      2 C          -8.5105  -11.0304   30.2705 C.2     1  UNL1        0.2483
      3 N          -9.3389  -11.0483   31.4389 N.am    1  UNL1       -0.2945
      4 H         -10.3657  -11.1994   31.3204 H       1  UNL1        0.1501
      5 C          -8.2558  -12.2704   29.4892 C.ar    1  UNL1        0.0808
      6 C          -9.3339  -13.1075   29.1480 C.ar    1  UNL1        0.0080
      7 C          -9.1415  -14.2256   28.3330 C.ar    1  UNL1        0.0148
      8 C          -7.8663  -14.5388   27.8389 C.ar    1  UNL1        0.0502
      9 C          -6.7835  -13.7173   28.1928 C.ar    1  UNL1        0.0443
     10 C          -6.9679  -12.6044   29.0174 C.ar    1  UNL1        0.1457
     11 F          -5.8822  -11.8515   29.3222 F       1  UNL1       -0.2040
     12 N          -7.6874  -15.6492   26.9333 N.pl3   1  UNL1       -0.3040
     13 C          -6.6678  -15.6157   25.8741 C.3     1  UNL1        0.1122
     14 C          -7.3603  -15.6308   24.5058 C.3     1  UNL1        0.1122
     15 N          -8.4954  -16.5707   24.4949 N.pl3   1  UNL1       -0.3040
     16 C          -8.6450  -17.5199   25.6092 C.3     1  UNL1        0.1122
     17 C          -8.6656  -16.7519   26.9377 C.3     1  UNL1        0.1122
     18 C          -9.5046  -16.4549   23.4698 C.ar    1  UNL1        0.0488
     19 C          -9.2052  -15.8604   22.2313 C.ar    1  UNL1        0.0154
     20 C         -10.1743  -15.7859   21.2282 C.ar    1  UNL1        0.0135
     21 C         -11.4547  -16.3039   21.4436 C.ar    1  UNL1        0.0683
     22 CL        -12.6453  -16.1963   20.1540 Cl      1  UNL1       -0.0814
     23 C         -11.7655  -16.9029   22.6750 C.ar    1  UNL1        0.0694
     24 CL        -13.3628  -17.5693   22.9862 Cl      1  UNL1       -0.0813
     25 C         -10.7925  -16.9783   23.6787 C.ar    1  UNL1        0.0268
     26 C          -8.7794  -11.0259   32.7932 C.3     1  UNL1        0.1535
     27 C          -7.9423   -9.7795   32.9830 C.2     1  UNL1        0.2443
     28 O          -8.4871   -8.6924   33.3187 O.2     1  UNL1       -0.2730
     29 N          -6.5295   -9.8332   32.7314 N.am    1  UNL1       -0.2825
     30 H          -6.0624  -10.7656   32.8019 H       1  UNL1        0.1549
     31 C          -5.7188   -8.7007   32.3649 C.ar    1  UNL1        0.0535
     32 C          -4.9621   -7.9884   33.3136 C.ar    1  UNL1        0.0353
     33 C          -4.2334   -6.8661   32.9134 C.ar    1  UNL1        0.1002
     34 N          -4.2656   -6.4569   31.6183 N.ar    1  UNL1       -0.2422
     35 C          -4.9995   -7.1138   30.6828 C.ar    1  UNL1        0.1002
     36 C          -5.7426   -8.2416   31.0400 C.ar    1  UNL1        0.0353
     37 C          -9.9033  -11.1725   33.8387 C.3     1  UNL1        0.0569
     38 C         -11.1311  -11.8045   33.2467 C.ar    1  UNL1       -0.0017
     39 C         -11.9991  -11.2309   32.3220 C.ar    1  UNL1        0.0681
     40 N         -13.0263  -12.0696   32.0555 N.ar    1  UNL1       -0.3523
     41 C         -12.8180  -13.1636   32.8084 C.ar    1  UNL1        0.0563
     42 C         -13.6189  -14.3024   32.8845 C.ar    1  UNL1        0.0170
     43 C         -13.2158  -15.3328   33.7535 C.ar    1  UNL1        0.0015
     44 C         -12.0358  -15.2028   34.5195 C.ar    1  UNL1        0.0001
     45 C         -11.2477  -14.0415   34.4230 C.ar    1  UNL1        0.0012
     46 C         -11.6722  -13.0382   33.5514 C.ar    1  UNL1        0.0131
     47 H         -13.8228  -11.8947   31.4031 H       1  UNL1        0.1660
@<TRIPOS>BOND
     1     1     2    2
     2     2     3   am
     3     3    26    1
     4    26    37    1
     5    37    38    1
     6    38    39   ar
     7    39    40   ar
     8    40    41   ar
     9    41    42   ar
    10    42    43   ar
    11    43    44   ar
    12    44    45   ar
    13    45    46   ar
    14    26    27    1
    15    27    28    2
    16    27    29   am
    17    29    31    1
    18    31    32   ar
    19    32    33   ar
    20    33    34   ar
    21    34    35   ar
    22    35    36   ar
    23     2     5    1
    24     5     6   ar
    25     6     7   ar
    26     7     8   ar
    27     8    12    1
    28    12    13    1
    29    13    14    1
    30    14    15    1
    31    15    18    1
    32    18    19   ar
    33    19    20   ar
    34    20    21   ar
    35    21    22    1
    36    21    23   ar
    37    23    24    1
    38    23    25   ar
    39    15    16    1
    40    16    17    1
    41     8     9   ar
    42     9    10   ar
    43    10    11    1
    44    46    38   ar
    45    36    31   ar
    46    10     5   ar
    47    46    41   ar
    48    17    12    1
    49    25    18   ar
    50     3     4    1
    51    40    47    1
    52    29    30    1
@<TRIPOS>MOLECULE
*****
 47 52 0 0 0
SMALL
GASTEIGER

@<TRIPOS>ATOM
      1 O          -8.2499  -11.0258   31.6005 O.2     1  UNL1       -0.2701
      2 C          -8.8569  -11.2180   30.5125 C.2     1  UNL1        0.2483
      3 N          -9.9122  -10.3228   30.1432 N.am    1  UNL1       -0.2945
      4 H          -9.7716   -9.6992   29.3170 H       1  UNL1        0.1501
      5 C          -8.5108  -12.3902   29.6646 C.ar    1  UNL1        0.0808
      6 C          -9.5320  -13.2522   29.2244 C.ar    1  UNL1        0.0080
      7 C          -9.2528  -14.3035   28.3481 C.ar    1  UNL1        0.0148
      8 C          -7.9451  -14.5235   27.8896 C.ar    1  UNL1        0.0502
      9 C          -6.9189  -13.6777   28.3416 C.ar    1  UNL1        0.0443
     10 C          -7.1904  -12.6318   29.2275 C.ar    1  UNL1        0.1457
     11 F          -6.1559  -11.8511   29.6262 F       1  UNL1       -0.2040
     12 N          -7.6762  -15.5618   26.9229 N.pl3   1  UNL1       -0.3040
     13 C          -6.6656  -15.3830   25.8696 C.3     1  UNL1        0.1122
     14 C          -7.3577  -15.3782   24.5010 C.3     1  UNL1        0.1122
     15 N          -8.4102  -16.4077   24.4342 N.pl3   1  UNL1       -0.3040
     16 C          -8.4770  -17.4279   25.4924 C.3     1  UNL1        0.1122
     17 C          -8.5585  -16.7410   26.8624 C.3     1  UNL1        0.1122
     18 C          -9.4281  -16.3189   23.4150 C.ar    1  UNL1        0.0488
     19 C          -9.1287  -15.7954   22.1449 C.ar    1  UNL1        0.0154
     20 C         -10.1072  -15.7476   21.1493 C.ar    1  UNL1        0.0135
     21 C         -11.3973  -16.2220   21.4040 C.ar    1  UNL1        0.0683
     22 CL        -12.5997  -16.1501   20.1231 Cl      1  UNL1       -0.0814
     23 C         -11.7083  -16.7499   22.6675 C.ar    1  UNL1        0.0694
     24 CL        -13.3177  -17.3598   23.0287 Cl      1  UNL1       -0.0813
     25 C         -10.7259  -16.7987   23.6636 C.ar    1  UNL1        0.0268
     26 C         -11.2320  -10.3673   30.7786 C.3     1  UNL1        0.1535
     27 C         -11.5878  -11.7968   31.1250 C.2     1  UNL1        0.2443
     28 O         -12.5123  -12.3904   30.5051 O.2     1  UNL1       -0.2730
     29 N         -10.8966  -12.4561   32.1972 N.am    1  UNL1       -0.2825
     30 H          -9.9454  -12.1021   32.4473 H       1  UNL1        0.1549
     31 C         -11.4309  -13.5502   32.9664 C.ar    1  UNL1        0.0535
     32 C         -12.1285  -14.6134   32.3639 C.ar    1  UNL1        0.0353
     33 C         -12.6706  -15.6233   33.1618 C.ar    1  UNL1        0.1002
     34 N         -12.5366  -15.5726   34.5128 N.ar    1  UNL1       -0.2422
     35 C         -11.8831  -14.5510   35.1248 C.ar    1  UNL1        0.1002
     36 C         -11.3250  -13.5205   34.3645 C.ar    1  UNL1        0.0353
     37 C         -11.2741   -9.4158   31.9914 C.3     1  UNL1        0.0569
     38 C         -11.5430   -7.9979   31.5735 C.ar    1  UNL1       -0.0017
     39 C         -12.7664   -7.3352   31.6165 C.ar    1  UNL1        0.0681
     40 N         -12.6449   -6.0869   31.1102 N.ar    1  UNL1       -0.3523
     41 C         -11.3584   -5.9584   30.7421 C.ar    1  UNL1        0.0563
     42 C         -10.7540   -4.8473   30.1556 C.ar    1  UNL1        0.0170
     43 C          -9.3858   -4.9338   29.8388 C.ar    1  UNL1        0.0015
     44 C          -8.6613   -6.1158   30.1106 C.ar    1  UNL1        0.0001
     45 C          -9.2980   -7.2220   30.7023 C.ar    1  UNL1        0.0012
     46 C         -10.6546   -7.1052   31.0067 C.ar    1  UNL1        0.0131
     47 H         -13.4021   -5.3737   31.0175 H       1  UNL1        0.1660
@<TRIPOS>BOND
     1     1     2    2
     2     2     3   am
     3     3    26    1
     4    26    37    1
     5    37    38    1
     6    38    39   ar
     7    39    40   ar
     8    40    41   ar
     9    41    42   ar
    10    42    43   ar
    11    43    44   ar
    12    44    45   ar
    13    45    46   ar
    14    26    27    1
    15    27    28    2
    16    27    29   am
    17    29    31    1
    18    31    32   ar
    19    32    33   ar
    20    33    34   ar
    21    34    35   ar
    22    35    36   ar
    23     2     5    1
    24     5     6   ar
    25     6     7   ar
    26     7     8   ar
    27     8    12    1
    28    12    13    1
    29    13    14    1
    30    14    15    1
    31    15    18    1
    32    18    19   ar
    33    19    20   ar
    34    20    21   ar
    35    21    22    1
    36    21    23   ar
    37    23    24    1
    38    23    25   ar
    39    15    16    1
    40    16    17    1
    41     8     9   ar
    42     9    10   ar
    43    10    11    1
    44    46    38   ar
    45    36    31   ar
    46    10     5   ar
    47    46    41   ar
    48    17    12    1
    49    25    18   ar
    50     3     4    1
    51    40    47    1
    52    29    30    1
@<TRIPOS>MOLECULE
*****
 47 52 0 0 0
SMALL
GASTEIGER

@<TRIPOS>ATOM
      1 O          -5.0185  -15.5292   26.3202 O.2     1  UNL1       -0.2701
      2 C          -6.2649  -15.3843   26.1993 C.2     1  UNL1        0.2483
      3 N          -6.9039  -15.8666   25.0116 N.am    1  UNL1       -0.2945
      4 H          -7.5621  -16.6739   25.0916 H       1  UNL1        0.1501
      5 C          -7.0369  -14.6731   27.2533 C.ar    1  UNL1        0.0808
      6 C          -6.4444  -13.5964   27.9382 C.ar    1  UNL1        0.0080
      7 C          -7.1756  -12.8469   28.8626 C.ar    1  UNL1        0.0148
      8 C          -8.5182  -13.1545   29.1296 C.ar    1  UNL1        0.0502
      9 C          -9.1085  -14.2406   28.4630 C.ar    1  UNL1        0.0443
     10 C          -8.3784  -15.0012   27.5460 C.ar    1  UNL1        0.1457
     11 F          -9.0059  -16.0368   26.9358 F       1  UNL1       -0.2040
     12 N          -9.2915  -12.3280   30.0264 N.pl3   1  UNL1       -0.3040
     13 C         -10.5732  -11.7393   29.6102 C.3     1  UNL1        0.1122
     14 C         -10.4409  -10.2117   29.5789 C.3     1  UNL1        0.1122
     15 N          -9.6729   -9.7209   30.7370 N.pl3   1  UNL1       -0.3040
     16 C          -9.3929  -10.6432   31.8488 C.3     1  UNL1        0.1122
     17 C          -8.7018  -11.9024   31.3085 C.3     1  UNL1        0.1122
     18 C          -9.1002   -8.3967   30.7010 C.ar    1  UNL1        0.0488
     19 C          -7.7341   -8.1977   30.9676 C.ar    1  UNL1        0.0154
     20 C          -7.1763   -6.9194   30.8932 C.ar    1  UNL1        0.0135
     21 C          -7.9707   -5.8213   30.5505 C.ar    1  UNL1        0.0683
     22 CL         -7.2302   -4.2289   30.4615 Cl      1  UNL1       -0.0814
     23 C          -9.3358   -6.0070   30.2789 C.ar    1  UNL1        0.0694
     24 CL        -10.3698   -4.6536   29.8415 Cl      1  UNL1       -0.0813
     25 C          -9.8928   -7.2893   30.3522 C.ar    1  UNL1        0.0268
     26 C          -6.7932  -15.1696   23.7273 C.3     1  UNL1        0.1535
     27 C          -5.3987  -15.3444   23.1660 C.2     1  UNL1        0.2443
     28 O          -4.9295  -14.5011   22.3538 O.2     1  UNL1       -0.2730
     29 N          -4.6322  -16.5033   23.5289 N.am    1  UNL1       -0.2825
     30 H          -4.8734  -16.9788   24.4279 H       1  UNL1        0.1549
     31 C          -3.5754  -17.0695   22.7310 C.ar    1  UNL1        0.0535
     32 C          -2.6535  -16.2644   22.0366 C.ar    1  UNL1        0.0353
     33 C          -1.6792  -16.8644   21.2357 C.ar    1  UNL1        0.1002
     34 N          -1.6301  -18.2170   21.1175 N.ar    1  UNL1       -0.2422
     35 C          -2.5161  -19.0199   21.7620 C.ar    1  UNL1        0.1002
     36 C          -3.5063  -18.4613   22.5738 C.ar    1  UNL1        0.0353
     37 C          -7.9027  -15.6408   22.7655 C.3     1  UNL1        0.0569
     38 C          -7.9956  -17.1397   22.7196 C.ar    1  UNL1       -0.0017
     39 C          -7.2884  -17.9920   21.8764 C.ar    1  UNL1        0.0681
     40 N          -7.6674  -19.2750   22.0763 N.ar    1  UNL1       -0.3523
     41 C          -8.6116  -19.2391   23.0326 C.ar    1  UNL1        0.0563
     42 C          -9.3126  -20.3183   23.5692 C.ar    1  UNL1        0.0170
     43 C         -10.2734  -20.0502   24.5615 C.ar    1  UNL1        0.0015
     44 C         -10.5104  -18.7247   24.9891 C.ar    1  UNL1        0.0001
     45 C          -9.7884  -17.6551   24.4288 C.ar    1  UNL1        0.0012
     46 C          -8.8413  -17.9527   23.4486 C.ar    1  UNL1        0.0131
     47 H          -7.3040  -20.1186   21.5796 H       1  UNL1        0.1660
@<TRIPOS>BOND
     1     1     2    2
     2     2     3   am
     3     3    26    1
     4    26    37    1
     5    37    38    1
     6    38    39   ar
     7    39    40   ar
     8    40    41   ar
     9    41    42   ar
    10    42    43   ar
    11    43    44   ar
    12    44    45   ar
    13    45    46   ar
    14    26    27    1
    15    27    28    2
    16    27    29   am
    17    29    31    1
    18    31    32   ar
    19    32    33   ar
    20    33    34   ar
    21    34    35   ar
    22    35    36   ar
    23     2     5    1
    24     5     6   ar
    25     6     7   ar
    26     7     8   ar
    27     8    12    1
    28    12    13    1
    29    13    14    1
    30    14    15    1
    31    15    18    1
    32    18    19   ar
    33    19    20   ar
    34    20    21   ar
    35    21    22    1
    36    21    23   ar
    37    23    24    1
    38    23    25   ar
    39    15    16    1
    40    16    17    1
    41     8     9   ar
    42     9    10   ar
    43    10    11    1
    44    46    38   ar
    45    36    31   ar
    46    10     5   ar
    47    46    41   ar
    48    17    12    1
    49    25    18   ar
    50     3     4    1
    51    40    47    1
    52    29    30    1
@<TRIPOS>MOLECULE
*****
 47 52 0 0 0
SMALL
GASTEIGER

@<TRIPOS>ATOM
      1 O          -8.5721  -16.8128   27.8014 O.2     1  UNL1       -0.2701
      2 C          -8.6383  -15.6932   27.2259 C.2     1  UNL1        0.2483
      3 N          -9.1206  -15.6370   25.8784 N.am    1  UNL1       -0.2945
      4 H         -10.0347  -15.1658   25.6947 H       1  UNL1        0.1501
      5 C          -8.1675  -14.4679   27.9260 C.ar    1  UNL1        0.0808
      6 C          -9.0736  -13.7228   28.7026 C.ar    1  UNL1        0.0080
      7 C          -8.6411  -12.6248   29.4500 C.ar    1  UNL1        0.0148
      8 C          -7.2919  -12.2402   29.4397 C.ar    1  UNL1        0.0502
      9 C          -6.3871  -12.9690   28.6506 C.ar    1  UNL1        0.0443
     10 C          -6.8162  -14.0609   27.8916 C.ar    1  UNL1        0.1457
     11 F          -5.8933  -14.7229   27.1509 F       1  UNL1       -0.2040
     12 N          -6.8366  -11.1541   30.2754 N.pl3   1  UNL1       -0.3040
     13 C          -7.2434  -11.0512   31.6849 C.3     1  UNL1        0.1122
     14 C          -8.1011   -9.7939   31.8726 C.3     1  UNL1        0.1122
     15 N          -7.5510   -8.6570   31.1131 N.pl3   1  UNL1       -0.3040
     16 C          -6.1990   -8.7684   30.5432 C.3     1  UNL1        0.1122
     17 C          -6.1151  -10.0235   29.6640 C.3     1  UNL1        0.1122
     18 C          -8.3906   -7.5176   30.8307 C.ar    1  UNL1        0.0488
     19 C          -7.8462   -6.3429   30.2823 C.ar    1  UNL1        0.0154
     20 C          -8.6690   -5.2571   29.9744 C.ar    1  UNL1        0.0135
     21 C         -10.0458   -5.3262   30.2066 C.ar    1  UNL1        0.0683
     22 CL        -11.0490   -3.9405   29.8001 Cl      1  UNL1       -0.0814
     23 C         -10.6023   -6.4948   30.7511 C.ar    1  UNL1        0.0694
     24 CL        -12.3293   -6.6246   31.0564 Cl      1  UNL1       -0.0813
     25 C          -9.7764   -7.5829   31.0575 C.ar    1  UNL1        0.0268
     26 C          -8.3064  -16.0687   24.7390 C.3     1  UNL1        0.1535
     27 C          -9.1939  -16.6738   23.6730 C.2     1  UNL1        0.2443
     28 O          -8.8570  -17.7444   23.0971 O.2     1  UNL1       -0.2730
     29 N         -10.3991  -15.9941   23.2888 N.am    1  UNL1       -0.2825
     30 H         -10.8256  -15.3393   23.9830 H       1  UNL1        0.1549
     31 C         -11.0448  -16.1312   22.0088 C.ar    1  UNL1        0.0535
     32 C         -10.4502  -15.6663   20.8212 C.ar    1  UNL1        0.0353
     33 C         -11.1421  -15.7782   19.6132 C.ar    1  UNL1        0.1002
     34 N         -12.3874  -16.3207   19.5869 N.ar    1  UNL1       -0.2422
     35 C         -12.9944  -16.7633   20.7187 C.ar    1  UNL1        0.1002
     36 C         -12.3377  -16.6710   21.9482 C.ar    1  UNL1        0.0353
     37 C          -7.4435  -14.8989   24.2244 C.3     1  UNL1        0.0569
     38 C          -6.7045  -15.2666   22.9689 C.ar    1  UNL1       -0.0017
     39 C          -7.0711  -14.9494   21.6641 C.ar    1  UNL1        0.0681
     40 N          -6.1990  -15.4916   20.7838 N.ar    1  UNL1       -0.3523
     41 C          -5.2899  -16.1533   21.5206 C.ar    1  UNL1        0.0563
     42 C          -4.1968  -16.8845   21.0575 C.ar    1  UNL1        0.0170
     43 C          -3.3739  -17.5118   22.0109 C.ar    1  UNL1        0.0015
     44 C          -3.6597  -17.3970   23.3897 C.ar    1  UNL1        0.0001
     45 C          -4.7705  -16.6533   23.8279 C.ar    1  UNL1        0.0012
     46 C          -5.5665  -16.0414   22.8591 C.ar    1  UNL1        0.0131
     47 H          -6.2338  -15.4165   19.7428 H       1  UNL1        0.1660
@<TRIPOS>BOND
     1     1     2    2
     2     2     3   am
     3     3    26    1
     4    26    37    1
     5    37    38    1
     6    38    39   ar
     7    39    40   ar
     8    40    41   ar
     9    41    42   ar
    10    42    43   ar
    11    43    44   ar
    12    44    45   ar
    13    45    46   ar
    14    26    27    1
    15    27    28    2
    16    27    29   am
    17    29    31    1
    18    31    32   ar
    19    32    33   ar
    20    33    34   ar
    21    34    35   ar
    22    35    36   ar
    23     2     5    1
    24     5     6   ar
    25     6     7   ar
    26     7     8   ar
    27     8    12    1
    28    12    13    1
    29    13    14    1
    30    14    15    1
    31    15    18    1
    32    18    19   ar
    33    19    20   ar
    34    20    21   ar
    35    21    22    1
    36    21    23   ar
    37    23    24    1
    38    23    25   ar
    39    15    16    1
    40    16    17    1
    41     8     9   ar
    42     9    10   ar
    43    10    11    1
    44    46    38   ar
    45    36    31   ar
    46    10     5   ar
    47    46    41   ar
    48    17    12    1
    49    25    18   ar
    50     3     4    1
    51    40    47    1
    52    29    30    1
@<TRIPOS>MOLECULE
*****
 47 52 0 0 0
SMALL
GASTEIGER

@<TRIPOS>ATOM
      1 O          -8.3859   -9.7113   29.8134 O.2     1  UNL1       -0.2701
      2 C          -8.8124  -10.8091   30.2628 C.2     1  UNL1        0.2483
      3 N          -9.5547  -10.8121   31.4878 N.am    1  UNL1       -0.2945
      4 H         -10.5683  -11.0630   31.4566 H       1  UNL1        0.1501
      5 C          -8.4948  -12.0773   29.5529 C.ar    1  UNL1        0.0808
      6 C          -9.5385  -12.9487   29.1914 C.ar    1  UNL1        0.0080
      7 C          -9.2833  -14.0976   28.4392 C.ar    1  UNL1        0.0148
      8 C          -7.9778  -14.4082   28.0297 C.ar    1  UNL1        0.0502
      9 C          -6.9297  -13.5518   28.4047 C.ar    1  UNL1        0.0443
     10 C          -7.1775  -12.4074   29.1673 C.ar    1  UNL1        0.1457
     11 F          -6.1227  -11.6216   29.4966 F       1  UNL1       -0.2040
     12 N          -7.7311  -15.5538   27.1859 N.pl3   1  UNL1       -0.3040
     13 C          -6.6997  -15.5240   26.1381 C.3     1  UNL1        0.1122
     14 C          -7.3712  -15.6451   24.7647 C.3     1  UNL1        0.1122
     15 N          -8.4578  -16.6404   24.7903 N.pl3   1  UNL1       -0.3040
     16 C          -8.5756  -17.5368   25.9512 C.3     1  UNL1        0.1122
     17 C          -8.6531  -16.7027   27.2371 C.3     1  UNL1        0.1122
     18 C          -9.4571  -16.6292   23.7491 C.ar    1  UNL1        0.0488
     19 C         -10.6587  -17.3437   23.8994 C.ar    1  UNL1        0.0154
     20 C         -11.6393  -17.2982   22.9058 C.ar    1  UNL1        0.0135
     21 C         -11.4380  -16.5391   21.7493 C.ar    1  UNL1        0.0683
     22 CL        -12.6987  -16.5025   20.5241 Cl      1  UNL1       -0.0814
     23 C         -10.2435  -15.8187   21.5884 C.ar    1  UNL1        0.0694
     24 CL         -9.9512  -14.8494   20.1505 Cl      1  UNL1       -0.0813
     25 C          -9.2624  -15.8640   22.5860 C.ar    1  UNL1        0.0268
     26 C          -8.9098  -10.6367   32.7920 C.3     1  UNL1        0.1535
     27 C          -8.1171   -9.3476   32.8042 C.2     1  UNL1        0.2443
     28 O          -8.6862   -8.2485   32.5607 O.2     1  UNL1       -0.2730
     29 N          -6.7026   -9.3913   33.0484 N.am    1  UNL1       -0.2825
     30 H          -6.3294  -10.2136   33.5746 H       1  UNL1        0.1549
     31 C          -5.7623   -8.3978   32.5980 C.ar    1  UNL1        0.0535
     32 C          -4.8448   -7.7894   33.4744 C.ar    1  UNL1        0.0353
     33 C          -3.9892   -6.7944   32.9962 C.ar    1  UNL1        0.1002
     34 N          -4.0516   -6.4070   31.6955 N.ar    1  UNL1       -0.2422
     35 C          -4.9375   -6.9637   30.8293 C.ar    1  UNL1        0.1002
     36 C          -5.8111   -7.9627   31.2657 C.ar    1  UNL1        0.0353
     37 C          -9.9559  -10.7217   33.9217 C.3     1  UNL1        0.0569
     38 C         -10.3186  -12.1459   34.2342 C.ar    1  UNL1       -0.0017
     39 C          -9.6701  -12.9930   35.1283 C.ar    1  UNL1        0.0681
     40 N         -10.2379  -14.2205   35.1119 N.ar    1  UNL1       -0.3523
     41 C         -11.2338  -14.1576   34.2111 C.ar    1  UNL1        0.0563
     42 C         -12.1004  -15.1833   33.8361 C.ar    1  UNL1        0.0170
     43 C         -13.0707  -14.8995   32.8575 C.ar    1  UNL1        0.0015
     44 C         -13.1510  -13.6121   32.2812 C.ar    1  UNL1        0.0001
     45 C         -12.2622  -12.5966   32.6784 C.ar    1  UNL1        0.0012
     46 C         -11.3126  -12.9078   33.6520 C.ar    1  UNL1        0.0131
     47 H          -9.9515  -15.0492   35.6792 H       1  UNL1        0.1660
@<TRIPOS>BOND
     1     1     2    2
     2     2     3   am
     3     3    26    1
     4    26    37    1
     5    37    38    1
     6    38    39   ar
     7    39    40   ar
     8    40    41   ar
     9    41    42   ar
    10    42    43   ar
    11    43    44   ar
    12    44    45   ar
    13    45    46   ar
    14    26    27    1
    15    27    28    2
    16    27    29   am
    17    29    31    1
    18    31    32   ar
    19    32    33   ar
    20    33    34   ar
    21    34    35   ar
    22    35    36   ar
    23     2     5    1
    24     5     6   ar
    25     6     7   ar
    26     7     8   ar
    27     8    12    1
    28    12    13    1
    29    13    14    1
    30    14    15    1
    31    15    18    1
    32    18    19   ar
    33    19    20   ar
    34    20    21   ar
    35    21    22    1
    36    21    23   ar
    37    23    24    1
    38    23    25   ar
    39    15    16    1
    40    16    17    1
    41     8     9   ar
    42     9    10   ar
    43    10    11    1
    44    46    38   ar
    45    36    31   ar
    46    10     5   ar
    47    46    41   ar
    48    17    12    1
    49    25    18   ar
    50     3     4    1
    51    40    47    1
    52    29    30    1
@<TRIPOS>MOLECULE
*****
 47 52 0 0 0
SMALL
GASTEIGER

@<TRIPOS>ATOM
      1 O          -9.1981  -14.6232   28.3645 O.2     1  UNL1       -0.2701
      2 C          -8.0225  -14.4219   27.9567 C.2     1  UNL1        0.2483
      3 N          -7.1276  -13.6620   28.7773 N.am    1  UNL1       -0.2945
      4 H          -6.3067  -14.1477   29.2032 H       1  UNL1        0.1501
      5 C          -7.6028  -14.9223   26.6201 C.ar    1  UNL1        0.0808
      6 C          -8.5645  -15.4739   25.7539 C.ar    1  UNL1        0.0080
      7 C          -8.2204  -15.8620   24.4569 C.ar    1  UNL1        0.0148
      8 C          -6.9056  -15.7116   23.9911 C.ar    1  UNL1        0.0502
      9 C          -5.9376  -15.1797   24.8586 C.ar    1  UNL1        0.0443
     10 C          -6.2734  -14.8008   26.1610 C.ar    1  UNL1        0.1457
     11 F          -5.2931  -14.2940   26.9488 F       1  UNL1       -0.2040
     12 N          -6.5737  -16.0406   22.6247 N.pl3   1  UNL1       -0.3040
     13 C          -7.0738  -17.2697   21.9908 C.3     1  UNL1        0.1122
     14 C          -5.8901  -18.1911   21.6717 C.3     1  UNL1        0.1122
     15 N          -4.7479  -17.4248   21.1422 N.pl3   1  UNL1       -0.3040
     16 C          -4.9541  -16.0241   20.7415 C.3     1  UNL1        0.1122
     17 C          -5.5614  -15.2400   21.9127 C.3     1  UNL1        0.1122
     18 C          -3.4307  -18.0146   21.1508 C.ar    1  UNL1        0.0488
     19 C          -3.2350  -19.3276   21.6143 C.ar    1  UNL1        0.0154
     20 C          -1.9648  -19.9078   21.5843 C.ar    1  UNL1        0.0135
     21 C          -0.8719  -19.1893   21.0906 C.ar    1  UNL1        0.0683
     22 CL          0.7100  -19.9565   21.0638 Cl      1  UNL1       -0.0814
     23 C          -1.0547  -17.8782   20.6221 C.ar    1  UNL1        0.0694
     24 CL          0.2924  -16.9407   19.9906 Cl      1  UNL1       -0.0813
     25 C          -2.3287  -17.2989   20.6512 C.ar    1  UNL1        0.0268
     26 C          -7.2318  -12.2058   28.9052 C.3     1  UNL1        0.1535
     27 C          -8.5691  -11.8374   29.5104 C.2     1  UNL1        0.2443
     28 O          -9.1518  -10.7730   29.1656 O.2     1  UNL1       -0.2730
     29 N          -9.1465  -12.6853   30.5153 N.am    1  UNL1       -0.2825
     30 H          -8.8496  -13.6874   30.5294 H       1  UNL1        0.1549
     31 C         -10.0832  -12.2471   31.5177 C.ar    1  UNL1        0.0535
     32 C         -11.3994  -12.7416   31.5739 C.ar    1  UNL1        0.0353
     33 C         -12.2828  -12.2450   32.5349 C.ar    1  UNL1        0.1002
     34 N         -11.8776  -11.2808   33.4019 N.ar    1  UNL1       -0.2422
     35 C         -10.6188  -10.7718   33.3620 C.ar    1  UNL1        0.1002
     36 C          -9.7029  -11.2407   32.4171 C.ar    1  UNL1        0.0353
     37 C          -6.0296  -11.6510   29.6955 C.3     1  UNL1        0.0569
     38 C          -5.9421  -10.1546   29.5920 C.ar    1  UNL1       -0.0017
     39 C          -5.6439   -9.4152   28.4510 C.ar    1  UNL1        0.0681
     40 N          -5.5985   -8.0952   28.7426 N.ar    1  UNL1       -0.3523
     41 C          -5.8586   -7.9957   30.0577 C.ar    1  UNL1        0.0563
     42 C          -5.9103   -6.8316   30.8234 C.ar    1  UNL1        0.0170
     43 C          -6.1904   -6.9596   32.1963 C.ar    1  UNL1        0.0015
     44 C          -6.4083   -8.2336   32.7668 C.ar    1  UNL1        0.0001
     45 C          -6.3489   -9.3912   31.9696 C.ar    1  UNL1        0.0012
     46 C          -6.0711   -9.2320   30.6117 C.ar    1  UNL1        0.0131
     47 H          -5.3936   -7.3153   28.0790 H       1  UNL1        0.1660
@<TRIPOS>BOND
     1     1     2    2
     2     2     3   am
     3     3    26    1
     4    26    37    1
     5    37    38    1
     6    38    39   ar
     7    39    40   ar
     8    40    41   ar
     9    41    42   ar
    10    42    43   ar
    11    43    44   ar
    12    44    45   ar
    13    45    46   ar
    14    26    27    1
    15    27    28    2
    16    27    29   am
    17    29    31    1
    18    31    32   ar
    19    32    33   ar
    20    33    34   ar
    21    34    35   ar
    22    35    36   ar
    23     2     5    1
    24     5     6   ar
    25     6     7   ar
    26     7     8   ar
    27     8    12    1
    28    12    13    1
    29    13    14    1
    30    14    15    1
    31    15    18    1
    32    18    19   ar
    33    19    20   ar
    34    20    21   ar
    35    21    22    1
    36    21    23   ar
    37    23    24    1
    38    23    25   ar
    39    15    16    1
    40    16    17    1
    41     8     9   ar
    42     9    10   ar
    43    10    11    1
    44    46    38   ar
    45    36    31   ar
    46    10     5   ar
    47    46    41   ar
    48    17    12    1
    49    25    18   ar
    50     3     4    1
    51    40    47    1
    52    29    30    1
@<TRIPOS>MOLECULE
*****
 47 52 0 0 0
SMALL
GASTEIGER

@<TRIPOS>ATOM
      1 O          -8.2192   -9.7488   29.9886 O.2     1  UNL1       -0.2701
      2 C          -8.8412  -10.8095   30.2664 C.2     1  UNL1        0.2483
      3 N          -9.8086  -10.7861   31.3224 N.am    1  UNL1       -0.2945
      4 H         -10.8165  -10.9129   31.0788 H       1  UNL1        0.1501
      5 C          -8.5255  -12.0689   29.5403 C.ar    1  UNL1        0.0808
      6 C          -9.5703  -12.9356   29.1706 C.ar    1  UNL1        0.0080
      7 C          -9.3171  -14.0752   28.4037 C.ar    1  UNL1        0.0148
      8 C          -8.0127  -14.3811   27.9873 C.ar    1  UNL1        0.0502
      9 C          -6.9635  -13.5295   28.3704 C.ar    1  UNL1        0.0443
     10 C          -7.2093  -12.3945   29.1475 C.ar    1  UNL1        0.1457
     11 F          -6.1535  -11.6131   29.4839 F       1  UNL1       -0.2040
     12 N          -7.7682  -15.5163   27.1290 N.pl3   1  UNL1       -0.3040
     13 C          -6.6782  -15.5081   26.1419 C.3     1  UNL1        0.1122
     14 C          -7.2745  -15.5663   24.7302 C.3     1  UNL1        0.1122
     15 N          -8.4032  -16.5120   24.6687 N.pl3   1  UNL1       -0.3040
     16 C          -8.6263  -17.4294   25.7972 C.3     1  UNL1        0.1122
     17 C          -8.7409  -16.6234   27.0982 C.3     1  UNL1        0.1122
     18 C          -9.3397  -16.4311   23.5736 C.ar    1  UNL1        0.0488
     19 C          -8.9618  -15.8579   22.3465 C.ar    1  UNL1        0.0154
     20 C          -9.8593  -15.8172   21.2770 C.ar    1  UNL1        0.0135
     21 C         -11.1451  -16.3484   21.4137 C.ar    1  UNL1        0.0683
     22 CL        -12.2439  -16.2835   20.0425 Cl      1  UNL1       -0.0814
     23 C         -11.5338  -16.9263   22.6331 C.ar    1  UNL1        0.0694
     24 CL        -13.1406  -17.6082   22.8465 Cl      1  UNL1       -0.0813
     25 C         -10.6325  -16.9678   23.7034 C.ar    1  UNL1        0.0268
     26 C          -9.4215  -10.7547   32.7354 C.3     1  UNL1        0.1535
     27 C         -10.0670  -11.9090   33.4710 C.2     1  UNL1        0.2443
     28 O          -9.4204  -12.5466   34.3466 O.2     1  UNL1       -0.2730
     29 N         -11.4054  -12.3027   33.1305 N.am    1  UNL1       -0.2825
     30 H         -12.0215  -11.5837   32.6878 H       1  UNL1        0.1549
     31 C         -11.9478  -13.6216   33.3318 C.ar    1  UNL1        0.0535
     32 C         -12.0977  -14.5348   32.2718 C.ar    1  UNL1        0.0353
     33 C         -12.6770  -15.7827   32.5126 C.ar    1  UNL1        0.1002
     34 N         -13.1052  -16.1077   33.7603 N.ar    1  UNL1       -0.2422
     35 C         -12.9892  -15.2415   34.8002 C.ar    1  UNL1        0.1002
     36 C         -12.4152  -13.9832   34.6035 C.ar    1  UNL1        0.0353
     37 C          -7.8854  -10.7274   32.8687 C.3     1  UNL1        0.0569
     38 C          -7.3623   -9.3216   32.9550 C.ar    1  UNL1       -0.0017
     39 C          -7.8097   -8.3179   33.8095 C.ar    1  UNL1        0.0681
     40 N          -7.1450   -7.1643   33.5713 N.ar    1  UNL1       -0.3523
     41 C          -6.2875   -7.4290   32.5703 C.ar    1  UNL1        0.0563
     42 C          -5.3931   -6.5454   31.9676 C.ar    1  UNL1        0.0170
     43 C          -4.5904   -7.0346   30.9208 C.ar    1  UNL1        0.0015
     44 C          -4.6996   -8.3799   30.5034 C.ar    1  UNL1        0.0001
     45 C          -5.6120   -9.2486   31.1295 C.ar    1  UNL1        0.0012
     46 C          -6.3926   -8.7350   32.1656 C.ar    1  UNL1        0.0131
     47 H          -7.2802   -6.2524   34.0619 H       1  UNL1        0.1660
@<TRIPOS>BOND
     1     1     2    2
     2     2     3   am
     3     3    26    1
     4    26    37    1
     5    37    38    1
     6    38    39   ar
     7    39    40   ar
     8    40    41   ar
     9    41    42   ar
    10    42    43   ar
    11    43    44   ar
    12    44    45   ar
    13    45    46   ar
    14    26    27    1
    15    27    28    2
    16    27    29   am
    17    29    31    1
    18    31    32   ar
    19    32    33   ar
    20    33    34   ar
    21    34    35   ar
    22    35    36   ar
    23     2     5    1
    24     5     6   ar
    25     6     7   ar
    26     7     8   ar
    27     8    12    1
    28    12    13    1
    29    13    14    1
    30    14    15    1
    31    15    18    1
    32    18    19   ar
    33    19    20   ar
    34    20    21   ar
    35    21    22    1
    36    21    23   ar
    37    23    24    1
    38    23    25   ar
    39    15    16    1
    40    16    17    1
    41     8     9   ar
    42     9    10   ar
    43    10    11    1
    44    46    38   ar
    45    36    31   ar
    46    10     5   ar
    47    46    41   ar
    48    17    12    1
    49    25    18   ar
    50     3     4    1
    51    40    47    1
    52    29    30    1
@<TRIPOS>MOLECULE
*****
 47 52 0 0 0
SMALL
GASTEIGER

@<TRIPOS>ATOM
      1 O          -6.7979  -10.9322   30.5706 O.2     1  UNL1       -0.2701
      2 C          -7.7951  -11.3115   29.8992 C.2     1  UNL1        0.2483
      3 N          -8.9824  -10.5105   29.9138 N.am    1  UNL1       -0.2945
      4 H          -9.2692  -10.0270   29.0333 H       1  UNL1        0.1501
      5 C          -7.7450  -12.5988   29.1552 C.ar    1  UNL1        0.0808
      6 C          -8.9100  -13.3796   29.0431 C.ar    1  UNL1        0.0080
      7 C          -8.9202  -14.5427   28.2697 C.ar    1  UNL1        0.0148
      8 C          -7.7658  -14.9584   27.5892 C.ar    1  UNL1        0.0502
      9 C          -6.5949  -14.1929   27.7137 C.ar    1  UNL1        0.0443
     10 C          -6.5756  -13.0350   28.4956 C.ar    1  UNL1        0.1457
     11 F          -5.4139  -12.3403   28.5751 F       1  UNL1       -0.2040
     12 N          -7.8041  -16.1171   26.7283 N.pl3   1  UNL1       -0.3040
     13 C          -6.8110  -16.3101   25.6610 C.3     1  UNL1        0.1122
     14 C          -7.5148  -16.2524   24.2996 C.3     1  UNL1        0.1122
     15 N          -8.8012  -16.9706   24.3356 N.pl3   1  UNL1       -0.3040
     16 C          -9.1036  -17.8331   25.4887 C.3     1  UNL1        0.1122
     17 C          -8.9653  -17.0232   26.7849 C.3     1  UNL1        0.1122
     18 C          -9.7879  -16.7136   23.3142 C.ar    1  UNL1        0.0488
     19 C          -9.4549  -15.9779   22.1631 C.ar    1  UNL1        0.0154
     20 C         -10.4025  -15.7652   21.1593 C.ar    1  UNL1        0.0135
     21 C         -11.6945  -16.2836   21.2866 C.ar    1  UNL1        0.0683
     22 CL        -12.8572  -15.9994   19.9985 Cl      1  UNL1       -0.0814
     23 C         -12.0388  -17.0227   22.4299 C.ar    1  UNL1        0.0694
     24 CL        -13.6517  -17.6946   22.6285 Cl      1  UNL1       -0.0813
     25 C         -11.0873  -17.2364   23.4343 C.ar    1  UNL1        0.0268
     26 C          -9.8885  -10.4782   31.0651 C.3     1  UNL1        0.1535
     27 C         -10.5797   -9.1339   31.1379 C.2     1  UNL1        0.2443
     28 O         -11.8371   -9.0607   31.0701 O.2     1  UNL1       -0.2730
     29 N          -9.7897   -7.9387   31.2368 N.am    1  UNL1       -0.2825
     30 H          -8.8267   -8.0288   31.6331 H       1  UNL1        0.1549
     31 C         -10.2204   -6.6338   30.8057 C.ar    1  UNL1        0.0535
     32 C          -9.5983   -5.9590   29.7391 C.ar    1  UNL1        0.0353
     33 C         -10.0219   -4.6735   29.3948 C.ar    1  UNL1        0.1002
     34 N         -11.0199   -4.0729   30.0941 N.ar    1  UNL1       -0.2422
     35 C         -11.6285   -4.6919   31.1389 C.ar    1  UNL1        0.1002
     36 C         -11.2363   -5.9784   31.5164 C.ar    1  UNL1        0.0353
     37 C         -10.8688  -11.6672   31.0078 C.3     1  UNL1        0.0569
     38 C         -10.9035  -12.4192   32.3080 C.ar    1  UNL1       -0.0017
     39 C         -10.0160  -12.2838   33.3719 C.ar    1  UNL1        0.0681
     40 N         -10.3212  -13.1606   34.3556 N.ar    1  UNL1       -0.3523
     41 C         -11.3883  -13.8522   33.9194 C.ar    1  UNL1        0.0563
     42 C         -12.0591  -14.8786   34.5830 C.ar    1  UNL1        0.0170
     43 C         -13.1534  -15.4773   33.9322 C.ar    1  UNL1        0.0015
     44 C         -13.5471  -15.0428   32.6468 C.ar    1  UNL1        0.0001
     45 C         -12.8506  -14.0052   32.0007 C.ar    1  UNL1        0.0012
     46 C         -11.7713  -13.4301   32.6722 C.ar    1  UNL1        0.0131
     47 H          -9.8208  -13.2791   35.2644 H       1  UNL1        0.1660
@<TRIPOS>BOND
     1     1     2    2
     2     2     3   am
     3     3    26    1
     4    26    37    1
     5    37    38    1
     6    38    39   ar
     7    39    40   ar
     8    40    41   ar
     9    41    42   ar
    10    42    43   ar
    11    43    44   ar
    12    44    45   ar
    13    45    46   ar
    14    26    27    1
    15    27    28    2
    16    27    29   am
    17    29    31    1
    18    31    32   ar
    19    32    33   ar
    20    33    34   ar
    21    34    35   ar
    22    35    36   ar
    23     2     5    1
    24     5     6   ar
    25     6     7   ar
    26     7     8   ar
    27     8    12    1
    28    12    13    1
    29    13    14    1
    30    14    15    1
    31    15    18    1
    32    18    19   ar
    33    19    20   ar
    34    20    21   ar
    35    21    22    1
    36    21    23   ar
    37    23    24    1
    38    23    25   ar
    39    15    16    1
    40    16    17    1
    41     8     9   ar
    42     9    10   ar
    43    10    11    1
    44    46    38   ar
    45    36    31   ar
    46    10     5   ar
    47    46    41   ar
    48    17    12    1
    49    25    18   ar
    50     3     4    1
    51    40    47    1
    52    29    30    1
