@<TRIPOS>MOLECULE
*****
 37 40 0 0 0
SMALL
GASTEIGER

@<TRIPOS>ATOM
      1 N          -9.1199   -9.8335   29.9925 N.am    1  UNL1       -0.2685
      2 C          -8.7723  -11.1753   30.3990 C.2     1  UNL1        0.2672
      3 O          -7.8871  -11.8043   29.7561 O.2     1  UNL1       -0.2682
      4 C          -9.4175  -11.8175   31.5673 C.ar    1  UNL1        0.1347
      5 C         -10.4667  -12.7369   31.3984 C.ar    1  UNL1        0.0238
      6 C         -11.0383  -13.3492   32.5217 C.ar    1  UNL1        0.0031
      7 C         -12.0854  -14.2736   32.3835 C.ar    1  UNL1        0.0001
      8 C         -12.6420  -14.8766   33.5157 C.ar    1  UNL1        0.0000
      9 C         -12.1593  -14.5626   34.7896 C.ar    1  UNL1        0.0000
     10 C         -11.1168  -13.6433   34.9398 C.ar    1  UNL1        0.0015
     11 C         -10.5522  -13.0329   33.8099 C.ar    1  UNL1        0.0192
     12 C          -9.5070  -12.1111   33.9324 C.ar    1  UNL1        0.0989
     13 N          -8.9712  -11.5401   32.8225 N.ar    1  UNL1       -0.2393
     14 C         -10.5155   -9.6005   29.5462 C.3     1  UNL1        0.1007
     15 C         -10.5474   -9.2419   28.0525 C.3     1  UNL1        0.0265
     16 C         -11.2783   -8.6570   30.4761 C.ar    1  UNL1        0.0234
     17 C         -11.2257   -7.2779   30.1904 C.ar    1  UNL1        0.0019
     18 C         -11.9089   -6.3514   30.9801 C.ar    1  UNL1        0.0295
     19 C         -12.6494   -6.7815   32.0794 C.ar    1  UNL1        0.1424
     20 F         -13.3171   -5.8813   32.8419 F       1  UNL1       -0.2041
     21 C         -12.7093   -8.1402   32.3890 C.ar    1  UNL1        0.0590
     22 C         -12.0362   -9.0795   31.5991 C.ar    1  UNL1        0.1399
     23 F         -12.1694  -10.3864   31.9303 F       1  UNL1       -0.2044
     24 C          -8.0114   -8.9536   29.5577 C.3     1  UNL1        0.1205
     25 C          -6.3234   -8.1264   31.3470 C.ar    1  UNL1        0.0111
     26 C          -7.5612   -7.9944   30.6444 C.ar    1  UNL1       -0.0037
     27 C          -8.4136   -6.9192   30.9473 C.ar    1  UNL1       -0.0028
     28 C          -8.1140   -6.0366   31.9760 C.ar    1  UNL1       -0.0001
     29 C          -6.9509   -6.1971   32.7163 C.ar    1  UNL1        0.0062
     30 C          -6.0367   -7.2186   32.4125 C.ar    1  UNL1        0.0736
     31 C          -4.8140   -7.3052   33.2518 C.2     1  UNL1        0.3378
     32 O          -3.7673   -6.6988   32.8959 O.2     1  UNL1       -0.2451
     33 O          -4.7848   -8.0811   34.4059 O.3     1  UNL1       -0.4771
     34 H          -3.9460   -8.1440   34.9704 H       1  UNL1        0.2954
     35 C          -5.3252   -9.2116   30.9864 C.3     1  UNL1        0.1686
     36 C          -4.5876  -11.3140   31.5822 C.3     1  UNL1        0.1746
     37 O          -5.6652  -10.4071   31.6581 O.3     1  UNL1       -0.3463
@<TRIPOS>BOND
     1    36    37    1
     2    37    35    1
     3    35    25    1
     4    25    26   ar
     5    26    24    1
     6    24     1    1
     7     1     2   am
     8     2     3    2
     9     2     4    1
    10     4     5   ar
    11     5     6   ar
    12     6     7   ar
    13     7     8   ar
    14     8     9   ar
    15     9    10   ar
    16    10    11   ar
    17    11    12   ar
    18    12    13   ar
    19     1    14    1
    20    14    15    1
    21    14    16    1
    22    16    17   ar
    23    17    18   ar
    24    18    19   ar
    25    19    20    1
    26    19    21   ar
    27    21    22   ar
    28    22    23    1
    29    26    27   ar
    30    27    28   ar
    31    28    29   ar
    32    29    30   ar
    33    30    31    1
    34    31    32    2
    35    31    33    1
    36    30    25   ar
    37    13     4   ar
    38    22    16   ar
    39    11     6   ar
    40    33    34    1
@<TRIPOS>MOLECULE
*****
 37 40 0 0 0
SMALL
GASTEIGER

@<TRIPOS>ATOM
      1 N          -9.4211  -10.2266   30.2124 N.am    1  UNL1       -0.2685
      2 C          -9.2992  -11.6461   30.4504 C.2     1  UNL1        0.2672
      3 O          -8.6235  -12.3496   29.6496 O.2     1  UNL1       -0.2682
      4 C          -9.9317  -12.2868   31.6264 C.ar    1  UNL1        0.1347
      5 C         -11.0148  -13.1688   31.4732 C.ar    1  UNL1        0.0238
      6 C         -11.5742  -13.7813   32.6026 C.ar    1  UNL1        0.0031
      7 C         -12.6545  -14.6690   32.4798 C.ar    1  UNL1        0.0001
      8 C         -13.1983  -15.2728   33.6178 C.ar    1  UNL1        0.0000
      9 C         -12.6697  -14.9961   34.8820 C.ar    1  UNL1        0.0000
     10 C         -11.5938  -14.1136   35.0168 C.ar    1  UNL1        0.0015
     11 C         -11.0417  -13.5027   33.8811 C.ar    1  UNL1        0.0192
     12 C          -9.9638  -12.6174   33.9881 C.ar    1  UNL1        0.0989
     13 N          -9.4412  -12.0452   32.8725 N.ar    1  UNL1       -0.2393
     14 C         -10.7839   -9.6956   29.9635 C.3     1  UNL1        0.1007
     15 C         -11.3411  -10.2480   28.6426 C.3     1  UNL1        0.0265
     16 C         -10.8631   -8.1792   30.1399 C.ar    1  UNL1        0.0234
     17 C         -10.1040   -7.3810   29.2608 C.ar    1  UNL1        0.0019
     18 C         -10.1346   -5.9877   29.3436 C.ar    1  UNL1        0.0295
     19 C         -10.9146   -5.3623   30.3143 C.ar    1  UNL1        0.1424
     20 F         -10.9479   -4.0093   30.3898 F       1  UNL1       -0.2041
     21 C         -11.6674   -6.1303   31.2025 C.ar    1  UNL1        0.0590
     22 C         -11.6522   -7.5277   31.1232 C.ar    1  UNL1        0.1399
     23 F         -12.4379   -8.2124   31.9888 F       1  UNL1       -0.2044
     24 C          -8.2146   -9.5197   29.7259 C.3     1  UNL1        0.1205
     25 C          -6.5359   -8.5804   31.4680 C.ar    1  UNL1        0.0111
     26 C          -7.0330   -9.6561   30.6686 C.ar    1  UNL1       -0.0037
     27 C          -6.4220  -10.9185   30.7563 C.ar    1  UNL1       -0.0028
     28 C          -5.2919  -11.1135   31.5384 C.ar    1  UNL1       -0.0001
     29 C          -4.7538  -10.0584   32.2621 C.ar    1  UNL1        0.0062
     30 C          -5.3635   -8.7936   32.2563 C.ar    1  UNL1        0.0736
     31 C          -4.7227   -7.7289   33.0705 C.2     1  UNL1        0.3378
     32 O          -4.2551   -6.7044   32.5032 O.2     1  UNL1       -0.2451
     33 O          -4.5869   -7.8581   34.4488 O.3     1  UNL1       -0.4771
     34 H          -4.1415   -7.1334   34.9987 H       1  UNL1        0.2954
     35 C          -7.2239   -7.2274   31.4829 C.3     1  UNL1        0.1686
     36 C          -6.9809   -5.1182   30.5825 C.3     1  UNL1        0.1746
     37 O          -6.8591   -6.5001   30.3281 O.3     1  UNL1       -0.3463
@<TRIPOS>BOND
     1    36    37    1
     2    37    35    1
     3    35    25    1
     4    25    26   ar
     5    26    24    1
     6    24     1    1
     7     1     2   am
     8     2     3    2
     9     2     4    1
    10     4     5   ar
    11     5     6   ar
    12     6     7   ar
    13     7     8   ar
    14     8     9   ar
    15     9    10   ar
    16    10    11   ar
    17    11    12   ar
    18    12    13   ar
    19     1    14    1
    20    14    15    1
    21    14    16    1
    22    16    17   ar
    23    17    18   ar
    24    18    19   ar
    25    19    20    1
    26    19    21   ar
    27    21    22   ar
    28    22    23    1
    29    26    27   ar
    30    27    28   ar
    31    28    29   ar
    32    29    30   ar
    33    30    31    1
    34    31    32    2
    35    31    33    1
    36    30    25   ar
    37    13     4   ar
    38    22    16   ar
    39    11     6   ar
    40    33    34    1
@<TRIPOS>MOLECULE
*****
 37 40 0 0 0
SMALL
GASTEIGER

@<TRIPOS>ATOM
      1 N          -8.4431   -9.9509   32.0385 N.am    1  UNL1       -0.2685
      2 C          -8.7595  -11.0027   32.9767 C.2     1  UNL1        0.2672
      3 O          -7.9569  -11.2505   33.9185 O.2     1  UNL1       -0.2682
      4 C         -10.0160  -11.7792   32.8679 C.ar    1  UNL1        0.1347
      5 C         -10.2608  -12.8788   33.7080 C.ar    1  UNL1        0.0238
      6 C         -11.4711  -13.5766   33.6002 C.ar    1  UNL1        0.0031
      7 C         -11.7444  -14.6767   34.4280 C.ar    1  UNL1        0.0001
      8 C         -12.9588  -15.3596   34.3079 C.ar    1  UNL1        0.0000
      9 C         -13.9058  -14.9508   33.3643 C.ar    1  UNL1        0.0000
     10 C         -13.6448  -13.8565   32.5343 C.ar    1  UNL1        0.0015
     11 C         -12.4293  -13.1654   32.6470 C.ar    1  UNL1        0.0192
     12 C         -12.1440  -12.0662   31.8300 C.ar    1  UNL1        0.0989
     13 N         -10.9633  -11.4080   31.9644 N.ar    1  UNL1       -0.2393
     14 C          -8.2616  -10.3410   30.6187 C.3     1  UNL1        0.1007
     15 C          -8.8653  -11.7305   30.3635 C.3     1  UNL1        0.0265
     16 C          -6.8263  -10.1369   30.1338 C.ar    1  UNL1        0.0234
     17 C          -6.6328   -9.3346   28.9914 C.ar    1  UNL1        0.0019
     18 C          -5.3524   -9.0843   28.4946 C.ar    1  UNL1        0.0295
     19 C          -4.2387   -9.6403   29.1211 C.ar    1  UNL1        0.1424
     20 F          -2.9956   -9.3917   28.6409 F       1  UNL1       -0.2041
     21 C          -4.4043  -10.4459   30.2475 C.ar    1  UNL1        0.0590
     22 C          -5.6824  -10.6963   30.7605 C.ar    1  UNL1        0.1399
     23 F          -5.7701  -11.4528   31.8810 F       1  UNL1       -0.2044
     24 C          -7.8270   -8.7219   32.5880 C.3     1  UNL1        0.1205
     25 C          -9.3332   -6.9993   31.3635 C.ar    1  UNL1        0.0111
     26 C          -8.0412   -7.5094   31.7005 C.ar    1  UNL1       -0.0037
     27 C          -6.8954   -6.8609   31.2094 C.ar    1  UNL1       -0.0028
     28 C          -7.0001   -5.7891   30.3334 C.ar    1  UNL1       -0.0001
     29 C          -8.2492   -5.3303   29.9387 C.ar    1  UNL1        0.0062
     30 C          -9.4241   -5.9048   30.4495 C.ar    1  UNL1        0.0736
     31 C         -10.7148   -5.3398   29.9786 C.2     1  UNL1        0.3378
     32 O         -10.8785   -4.0897   29.9554 O.2     1  UNL1       -0.2451
     33 O         -11.7691   -6.1652   29.6018 O.3     1  UNL1       -0.4771
     34 H         -12.6503   -5.7754   29.2896 H       1  UNL1        0.2954
     35 C         -10.5959   -7.6041   31.9500 C.3     1  UNL1        0.1686
     36 C         -12.6203   -8.4981   31.3008 C.3     1  UNL1        0.1746
     37 O         -11.2581   -8.3647   30.9606 O.3     1  UNL1       -0.3463
@<TRIPOS>BOND
     1    36    37    1
     2    37    35    1
     3    35    25    1
     4    25    26   ar
     5    26    24    1
     6    24     1    1
     7     1     2   am
     8     2     3    2
     9     2     4    1
    10     4     5   ar
    11     5     6   ar
    12     6     7   ar
    13     7     8   ar
    14     8     9   ar
    15     9    10   ar
    16    10    11   ar
    17    11    12   ar
    18    12    13   ar
    19     1    14    1
    20    14    15    1
    21    14    16    1
    22    16    17   ar
    23    17    18   ar
    24    18    19   ar
    25    19    20    1
    26    19    21   ar
    27    21    22   ar
    28    22    23    1
    29    26    27   ar
    30    27    28   ar
    31    28    29   ar
    32    29    30   ar
    33    30    31    1
    34    31    32    2
    35    31    33    1
    36    30    25   ar
    37    13     4   ar
    38    22    16   ar
    39    11     6   ar
    40    33    34    1
@<TRIPOS>MOLECULE
*****
 37 40 0 0 0
SMALL
GASTEIGER

@<TRIPOS>ATOM
      1 N         -10.0380   -9.6366   31.1681 N.am    1  UNL1       -0.2685
      2 C          -9.7963   -8.2178   31.2898 C.2     1  UNL1        0.2672
      3 O         -10.7788   -7.4270   31.3371 O.2     1  UNL1       -0.2682
      4 C          -8.4210   -7.6760   31.3829 C.ar    1  UNL1        0.1347
      5 C          -7.5644   -8.0552   32.4302 C.ar    1  UNL1        0.0238
      6 C          -6.2593   -7.5474   32.4757 C.ar    1  UNL1        0.0031
      7 C          -5.3804   -7.9109   33.5080 C.ar    1  UNL1        0.0001
      8 C          -4.0806   -7.3960   33.5358 C.ar    1  UNL1        0.0000
      9 C          -3.6500   -6.5178   32.5370 C.ar    1  UNL1        0.0000
     10 C          -4.5163   -6.1485   31.5037 C.ar    1  UNL1        0.0015
     11 C          -5.8223   -6.6595   31.4675 C.ar    1  UNL1        0.0192
     12 C          -6.7084   -6.3074   30.4438 C.ar    1  UNL1        0.0989
     13 N          -7.9652   -6.8225   30.4261 N.ar    1  UNL1       -0.2393
     14 C          -9.5238  -10.3098   29.9501 C.3     1  UNL1        0.1007
     15 C         -10.2491  -11.6463   29.7301 C.3     1  UNL1        0.0265
     16 C          -7.9966  -10.3643   29.9113 C.ar    1  UNL1        0.0234
     17 C          -7.3417   -9.5833   28.9378 C.ar    1  UNL1        0.0019
     18 C          -5.9488   -9.5633   28.8470 C.ar    1  UNL1        0.0295
     19 C          -5.1806  -10.3325   29.7188 C.ar    1  UNL1        0.1424
     20 F          -3.8279  -10.3075   29.6332 F       1  UNL1       -0.2041
     21 C          -5.8050  -11.1214   30.6847 C.ar    1  UNL1        0.0590
     22 C          -7.2005  -11.1425   30.7915 C.ar    1  UNL1        0.1399
     23 F          -7.7415  -11.8976   31.7777 F       1  UNL1       -0.2044
     24 C         -11.1705  -10.1952   31.9411 C.3     1  UNL1        0.1205
     25 C         -11.5013  -12.3959   33.2763 C.ar    1  UNL1        0.0111
     26 C         -10.7329  -11.2334   32.9582 C.ar    1  UNL1       -0.0037
     27 C          -9.4974  -11.0291   33.5955 C.ar    1  UNL1       -0.0028
     28 C          -9.0545  -11.8902   34.5902 C.ar    1  UNL1       -0.0001
     29 C          -9.8262  -12.9824   34.9619 C.ar    1  UNL1        0.0062
     30 C         -11.0387  -13.2643   34.3124 C.ar    1  UNL1        0.0736
     31 C         -11.7901  -14.4613   34.7702 C.2     1  UNL1        0.3378
     32 O         -11.4480  -15.6061   34.3668 O.2     1  UNL1       -0.2451
     33 O         -12.8970  -14.3429   35.6042 O.3     1  UNL1       -0.4771
     34 H         -13.4114  -15.1613   35.9067 H       1  UNL1        0.2954
     35 C         -12.7923  -12.7114   32.5428 C.3     1  UNL1        0.1686
     36 C         -13.7058  -14.7750   32.0674 C.3     1  UNL1        0.1746
     37 O         -12.6325  -13.9007   31.7972 O.3     1  UNL1       -0.3463
@<TRIPOS>BOND
     1    36    37    1
     2    37    35    1
     3    35    25    1
     4    25    26   ar
     5    26    24    1
     6    24     1    1
     7     1     2   am
     8     2     3    2
     9     2     4    1
    10     4     5   ar
    11     5     6   ar
    12     6     7   ar
    13     7     8   ar
    14     8     9   ar
    15     9    10   ar
    16    10    11   ar
    17    11    12   ar
    18    12    13   ar
    19     1    14    1
    20    14    15    1
    21    14    16    1
    22    16    17   ar
    23    17    18   ar
    24    18    19   ar
    25    19    20    1
    26    19    21   ar
    27    21    22   ar
    28    22    23    1
    29    26    27   ar
    30    27    28   ar
    31    28    29   ar
    32    29    30   ar
    33    30    31    1
    34    31    32    2
    35    31    33    1
    36    30    25   ar
    37    13     4   ar
    38    22    16   ar
    39    11     6   ar
    40    33    34    1
@<TRIPOS>MOLECULE
*****
 37 40 0 0 0
SMALL
GASTEIGER

@<TRIPOS>ATOM
      1 N          -8.2560  -10.1459   32.3238 N.am    1  UNL1       -0.2685
      2 C          -9.1564  -10.7014   33.3073 C.2     1  UNL1        0.2672
      3 O          -9.2121  -10.1809   34.4556 O.2     1  UNL1       -0.2682
      4 C         -10.0303  -11.8537   32.9874 C.ar    1  UNL1        0.1347
      5 C         -10.6169  -12.6208   34.0082 C.ar    1  UNL1        0.0238
      6 C         -11.4616  -13.6878   33.6741 C.ar    1  UNL1        0.0031
      7 C         -12.0640  -14.4694   34.6723 C.ar    1  UNL1        0.0001
      8 C         -12.9060  -15.5287   34.3202 C.ar    1  UNL1        0.0000
      9 C         -13.1523  -15.8146   32.9741 C.ar    1  UNL1        0.0000
     10 C         -12.5580  -15.0431   31.9711 C.ar    1  UNL1        0.0015
     11 C         -11.7114  -13.9785   32.3144 C.ar    1  UNL1        0.0192
     12 C         -11.1057  -13.1899   31.3304 C.ar    1  UNL1        0.0989
     13 N         -10.2967  -12.1591   31.6885 N.ar    1  UNL1       -0.2393
     14 C          -7.1729  -11.0270   31.8221 C.3     1  UNL1        0.1007
     15 C          -6.2468  -11.4464   32.9740 C.3     1  UNL1        0.0265
     16 C          -6.4821  -10.4585   30.5826 C.ar    1  UNL1        0.0234
     17 C          -5.0742  -10.3942   30.5939 C.ar    1  UNL1        0.0019
     18 C          -4.3661   -9.9048   29.4948 C.ar    1  UNL1        0.0295
     19 C          -5.0496   -9.4578   28.3658 C.ar    1  UNL1        0.1424
     20 F          -4.3604   -8.9882   27.2971 F       1  UNL1       -0.2041
     21 C          -6.4433   -9.5019   28.3337 C.ar    1  UNL1        0.0590
     22 C          -7.1639   -9.9993   29.4258 C.ar    1  UNL1        0.1399
     23 F          -8.5130  -10.0530   29.3136 F       1  UNL1       -0.2044
     24 C          -8.1375   -8.6709   32.2770 C.3     1  UNL1        0.1205
     25 C          -9.1939   -6.6950   30.9673 C.ar    1  UNL1        0.0111
     26 C          -9.2725   -8.0138   31.5130 C.ar    1  UNL1       -0.0037
     27 C         -10.4456   -8.7655   31.3307 C.ar    1  UNL1       -0.0028
     28 C         -11.5576   -8.2163   30.7072 C.ar    1  UNL1       -0.0001
     29 C         -11.5206   -6.9103   30.2385 C.ar    1  UNL1        0.0062
     30 C         -10.3518   -6.1391   30.3414 C.ar    1  UNL1        0.0736
     31 C         -10.4029   -4.7561   29.8012 C.2     1  UNL1        0.3378
     32 O          -9.3880   -4.2692   29.2328 O.2     1  UNL1       -0.2451
     33 O         -11.5380   -3.9657   29.9481 O.3     1  UNL1       -0.4771
     34 H         -11.5651   -3.0202   29.5857 H       1  UNL1        0.2954
     35 C          -7.9140   -5.8832   31.0514 C.3     1  UNL1        0.1686
     36 C          -5.7223   -6.3655   30.5202 C.3     1  UNL1        0.1746
     37 O          -7.0368   -6.2773   30.0166 O.3     1  UNL1       -0.3463
@<TRIPOS>BOND
     1    36    37    1
     2    37    35    1
     3    35    25    1
     4    25    26   ar
     5    26    24    1
     6    24     1    1
     7     1     2   am
     8     2     3    2
     9     2     4    1
    10     4     5   ar
    11     5     6   ar
    12     6     7   ar
    13     7     8   ar
    14     8     9   ar
    15     9    10   ar
    16    10    11   ar
    17    11    12   ar
    18    12    13   ar
    19     1    14    1
    20    14    15    1
    21    14    16    1
    22    16    17   ar
    23    17    18   ar
    24    18    19   ar
    25    19    20    1
    26    19    21   ar
    27    21    22   ar
    28    22    23    1
    29    26    27   ar
    30    27    28   ar
    31    28    29   ar
    32    29    30   ar
    33    30    31    1
    34    31    32    2
    35    31    33    1
    36    30    25   ar
    37    13     4   ar
    38    22    16   ar
    39    11     6   ar
    40    33    34    1
@<TRIPOS>MOLECULE
*****
 37 40 0 0 0
SMALL
GASTEIGER

@<TRIPOS>ATOM
      1 N          -9.4768  -10.1404   31.7418 N.am    1  UNL1       -0.2685
      2 C          -9.1847  -11.5408   31.9417 C.2     1  UNL1        0.2672
      3 O          -8.0785  -12.0022   31.5466 O.2     1  UNL1       -0.2682
      4 C         -10.1472  -12.4390   32.6204 C.ar    1  UNL1        0.1347
      5 C         -11.0940  -13.1715   31.8847 C.ar    1  UNL1        0.0238
      6 C         -11.9730  -14.0345   32.5527 C.ar    1  UNL1        0.0031
      7 C         -12.9270  -14.7812   31.8439 C.ar    1  UNL1        0.0001
      8 C         -13.7943  -15.6392   32.5271 C.ar    1  UNL1        0.0000
      9 C         -13.7160  -15.7580   33.9178 C.ar    1  UNL1        0.0000
     10 C         -12.7699  -15.0194   34.6347 C.ar    1  UNL1        0.0015
     11 C         -11.8957  -14.1557   33.9581 C.ar    1  UNL1        0.0192
     12 C         -10.9387  -13.4068   34.6513 C.ar    1  UNL1        0.0989
     13 N         -10.0978  -12.5839   33.9725 N.ar    1  UNL1       -0.2393
     14 C         -10.6359   -9.8063   30.8781 C.3     1  UNL1        0.1007
     15 C         -10.5640  -10.5898   29.5584 C.3     1  UNL1        0.0265
     16 C         -10.8551   -8.2989   30.7489 C.ar    1  UNL1        0.0234
     17 C         -10.0647   -7.6039   29.8116 C.ar    1  UNL1        0.0019
     18 C         -10.2152   -6.2293   29.6198 C.ar    1  UNL1        0.0295
     19 C         -11.1499   -5.5174   30.3690 C.ar    1  UNL1        0.1424
     20 F         -11.2989   -4.1837   30.1777 F       1  UNL1       -0.2041
     21 C         -11.9375   -6.1804   31.3100 C.ar    1  UNL1        0.0590
     22 C         -11.8023   -7.5600   31.5045 C.ar    1  UNL1        0.1399
     23 F         -12.6264   -8.1491   32.4040 F       1  UNL1       -0.2044
     24 C          -8.3650   -9.1848   31.9483 C.3     1  UNL1        0.1205
     25 C          -6.4033   -9.4127   30.2645 C.ar    1  UNL1        0.0111
     26 C          -7.0225   -9.7411   31.5102 C.ar    1  UNL1       -0.0037
     27 C          -6.3649  -10.6091   32.3983 C.ar    1  UNL1       -0.0028
     28 C          -5.1684  -11.2196   32.0476 C.ar    1  UNL1       -0.0001
     29 C          -4.5932  -10.9674   30.8098 C.ar    1  UNL1        0.0062
     30 C          -5.1794  -10.0605   29.9124 C.ar    1  UNL1        0.0736
     31 C          -4.4856   -9.8456   28.6164 C.2     1  UNL1        0.3378
     32 O          -4.9545  -10.3581   27.5640 O.2     1  UNL1       -0.2451
     33 O          -3.2988   -9.1238   28.5445 O.3     1  UNL1       -0.4771
     34 H          -2.8247   -8.9873   27.6598 H       1  UNL1        0.2954
     35 C          -7.0265   -8.4032   29.3175 C.3     1  UNL1        0.1686
     36 C          -6.5807   -6.3171   30.1941 C.3     1  UNL1        0.1746
     37 O          -6.1932   -7.2661   29.2253 O.3     1  UNL1       -0.3463
@<TRIPOS>BOND
     1    36    37    1
     2    37    35    1
     3    35    25    1
     4    25    26   ar
     5    26    24    1
     6    24     1    1
     7     1     2   am
     8     2     3    2
     9     2     4    1
    10     4     5   ar
    11     5     6   ar
    12     6     7   ar
    13     7     8   ar
    14     8     9   ar
    15     9    10   ar
    16    10    11   ar
    17    11    12   ar
    18    12    13   ar
    19     1    14    1
    20    14    15    1
    21    14    16    1
    22    16    17   ar
    23    17    18   ar
    24    18    19   ar
    25    19    20    1
    26    19    21   ar
    27    21    22   ar
    28    22    23    1
    29    26    27   ar
    30    27    28   ar
    31    28    29   ar
    32    29    30   ar
    33    30    31    1
    34    31    32    2
    35    31    33    1
    36    30    25   ar
    37    13     4   ar
    38    22    16   ar
    39    11     6   ar
    40    33    34    1
@<TRIPOS>MOLECULE
*****
 37 40 0 0 0
SMALL
GASTEIGER

@<TRIPOS>ATOM
      1 N          -8.8490  -10.3810   32.0620 N.am    1  UNL1       -0.2685
      2 C          -9.2518  -11.4011   33.0020 C.2     1  UNL1        0.2672
      3 O          -8.5213  -11.6400   34.0030 O.2     1  UNL1       -0.2682
      4 C         -10.5144  -12.1550   32.8260 C.ar    1  UNL1        0.1347
      5 C         -10.7529  -13.3415   33.5400 C.ar    1  UNL1        0.0238
      6 C         -11.9689  -14.0175   33.3732 C.ar    1  UNL1        0.0031
      7 C         -12.2362  -15.2031   34.0754 C.ar    1  UNL1        0.0001
      8 C         -13.4563  -15.8628   33.8982 C.ar    1  UNL1        0.0000
      9 C         -14.4152  -15.3459   33.0221 C.ar    1  UNL1        0.0000
     10 C         -14.1603  -14.1657   32.3172 C.ar    1  UNL1        0.0015
     11 C         -12.9391  -13.4969   32.4881 C.ar    1  UNL1        0.0192
     12 C         -12.6598  -12.3135   31.7963 C.ar    1  UNL1        0.0989
     13 N         -11.4732  -11.6798   31.9855 N.ar    1  UNL1       -0.2393
     14 C          -8.5790  -10.8119   30.6683 C.3     1  UNL1        0.1007
     15 C          -9.0257  -12.2673   30.4615 C.3     1  UNL1        0.0265
     16 C          -7.1569  -10.4791   30.2171 C.ar    1  UNL1        0.0234
     17 C          -7.0088   -9.7065   29.0477 C.ar    1  UNL1        0.0019
     18 C          -5.7450   -9.3444   28.5780 C.ar    1  UNL1        0.0295
     19 C          -4.6017   -9.7565   29.2597 C.ar    1  UNL1        0.1424
     20 F          -3.3753   -9.3993   28.8057 F       1  UNL1       -0.2041
     21 C          -4.7212  -10.5301   30.4141 C.ar    1  UNL1        0.0590
     22 C          -5.9832  -10.8915   30.9000 C.ar    1  UNL1        0.1399
     23 F          -6.0300  -11.6084   32.0485 F       1  UNL1       -0.2044
     24 C          -8.2455   -9.1504   32.6219 C.3     1  UNL1        0.1205
     25 C          -7.5051   -6.9914   31.3866 C.ar    1  UNL1        0.0111
     26 C          -8.5186   -7.9225   31.7726 C.ar    1  UNL1       -0.0037
     27 C          -9.8404   -7.7196   31.3410 C.ar    1  UNL1       -0.0028
     28 C         -10.1920   -6.5855   30.6218 C.ar    1  UNL1       -0.0001
     29 C          -9.2314   -5.6353   30.3041 C.ar    1  UNL1        0.0062
     30 C          -7.8858   -5.8222   30.6590 C.ar    1  UNL1        0.0736
     31 C          -6.9274   -4.7573   30.2660 C.2     1  UNL1        0.3378
     32 O          -5.9204   -5.0501   29.5657 O.2     1  UNL1       -0.2451
     33 O          -7.0934   -3.4439   30.6929 O.3     1  UNL1       -0.4771
     34 H          -6.4325   -2.7229   30.4296 H       1  UNL1        0.2954
     35 C          -6.0477   -7.2212   31.7436 C.3     1  UNL1        0.1686
     36 C          -4.5544   -7.4194   33.4899 C.3     1  UNL1        0.1746
     37 O          -5.8732   -7.0654   33.1368 O.3     1  UNL1       -0.3463
@<TRIPOS>BOND
     1    36    37    1
     2    37    35    1
     3    35    25    1
     4    25    26   ar
     5    26    24    1
     6    24     1    1
     7     1     2   am
     8     2     3    2
     9     2     4    1
    10     4     5   ar
    11     5     6   ar
    12     6     7   ar
    13     7     8   ar
    14     8     9   ar
    15     9    10   ar
    16    10    11   ar
    17    11    12   ar
    18    12    13   ar
    19     1    14    1
    20    14    15    1
    21    14    16    1
    22    16    17   ar
    23    17    18   ar
    24    18    19   ar
    25    19    20    1
    26    19    21   ar
    27    21    22   ar
    28    22    23    1
    29    26    27   ar
    30    27    28   ar
    31    28    29   ar
    32    29    30   ar
    33    30    31    1
    34    31    32    2
    35    31    33    1
    36    30    25   ar
    37    13     4   ar
    38    22    16   ar
    39    11     6   ar
    40    33    34    1
@<TRIPOS>MOLECULE
*****
 37 40 0 0 0
SMALL
GASTEIGER

@<TRIPOS>ATOM
      1 N          -8.9434   -9.9894   30.0305 N.am    1  UNL1       -0.2685
      2 C          -8.5107  -11.2748   30.5275 C.2     1  UNL1        0.2672
      3 O          -7.5811  -11.8852   29.9309 O.2     1  UNL1       -0.2682
      4 C          -9.1204  -11.8787   31.7347 C.ar    1  UNL1        0.1347
      5 C         -10.1292  -12.8508   31.6253 C.ar    1  UNL1        0.0238
      6 C         -10.6670  -13.4241   32.7852 C.ar    1  UNL1        0.0031
      7 C         -11.6732  -14.3995   32.7067 C.ar    1  UNL1        0.0001
      8 C         -12.1964  -14.9624   33.8749 C.ar    1  UNL1        0.0000
      9 C         -11.7207  -14.5575   35.1256 C.ar    1  UNL1        0.0000
     10 C         -10.7187  -13.5868   35.2164 C.ar    1  UNL1        0.0015
     11 C         -10.1879  -13.0160   34.0500 C.ar    1  UNL1        0.0192
     12 C          -9.1834  -12.0443   34.1130 C.ar    1  UNL1        0.0989
     13 N          -8.6795  -11.5129   32.9689 N.ar    1  UNL1       -0.2393
     14 C         -10.3480   -9.8802   29.5656 C.3     1  UNL1        0.1007
     15 C         -10.5843   -8.5211   28.8893 C.3     1  UNL1        0.0265
     16 C         -11.3552  -10.2726   30.6465 C.ar    1  UNL1        0.0234
     17 C         -12.3038  -11.2637   30.3237 C.ar    1  UNL1        0.0019
     18 C         -13.2469  -11.6913   31.2599 C.ar    1  UNL1        0.0295
     19 C         -13.2704  -11.1294   32.5349 C.ar    1  UNL1        0.1424
     20 F         -14.1830  -11.5497   33.4449 F       1  UNL1       -0.2041
     21 C         -12.3484  -10.1399   32.8759 C.ar    1  UNL1        0.0590
     22 C         -11.3921   -9.7096   31.9487 C.ar    1  UNL1        0.1399
     23 F         -10.5000   -8.7755   32.3573 F       1  UNL1       -0.2044
     24 C          -7.8924   -9.0688   29.5405 C.3     1  UNL1        0.1205
     25 C          -6.2296   -8.1588   31.3131 C.ar    1  UNL1        0.0111
     26 C          -7.4581   -8.0610   30.5889 C.ar    1  UNL1       -0.0037
     27 C          -8.3159   -6.9749   30.8319 C.ar    1  UNL1       -0.0028
     28 C          -8.0312   -6.0463   31.8237 C.ar    1  UNL1       -0.0001
     29 C          -6.8779   -6.1712   32.5859 C.ar    1  UNL1        0.0062
     30 C          -5.9584   -7.2035   32.3404 C.ar    1  UNL1        0.0736
     31 C          -4.7469   -7.2500   33.1990 C.2     1  UNL1        0.3378
     32 O          -4.7552   -7.9396   34.2547 O.2     1  UNL1       -0.2451
     33 O          -3.6115   -6.5103   32.8853 O.3     1  UNL1       -0.4771
     34 H          -2.7909   -6.5384   33.4784 H       1  UNL1        0.2954
     35 C          -5.2252   -9.2573   31.0149 C.3     1  UNL1        0.1686
     36 C          -4.6532  -11.4251   31.5553 C.3     1  UNL1        0.1746
     37 O          -5.3239  -10.2663   31.9987 O.3     1  UNL1       -0.3463
@<TRIPOS>BOND
     1    36    37    1
     2    37    35    1
     3    35    25    1
     4    25    26   ar
     5    26    24    1
     6    24     1    1
     7     1     2   am
     8     2     3    2
     9     2     4    1
    10     4     5   ar
    11     5     6   ar
    12     6     7   ar
    13     7     8   ar
    14     8     9   ar
    15     9    10   ar
    16    10    11   ar
    17    11    12   ar
    18    12    13   ar
    19     1    14    1
    20    14    15    1
    21    14    16    1
    22    16    17   ar
    23    17    18   ar
    24    18    19   ar
    25    19    20    1
    26    19    21   ar
    27    21    22   ar
    28    22    23    1
    29    26    27   ar
    30    27    28   ar
    31    28    29   ar
    32    29    30   ar
    33    30    31    1
    34    31    32    2
    35    31    33    1
    36    30    25   ar
    37    13     4   ar
    38    22    16   ar
    39    11     6   ar
    40    33    34    1
@<TRIPOS>MOLECULE
*****
 37 40 0 0 0
SMALL
GASTEIGER

@<TRIPOS>ATOM
      1 N          -9.8201   -9.5753   30.8536 N.am    1  UNL1       -0.2685
      2 C         -10.1233  -10.9665   30.6107 C.2     1  UNL1        0.2672
      3 O          -9.9757  -11.4358   29.4486 O.2     1  UNL1       -0.2682
      4 C         -10.5814  -11.8567   31.7022 C.ar    1  UNL1        0.1347
      5 C         -11.6103  -12.7898   31.4897 C.ar    1  UNL1        0.0238
      6 C         -12.0028  -13.6376   32.5340 C.ar    1  UNL1        0.0031
      7 C         -13.0253  -14.5815   32.3499 C.ar    1  UNL1        0.0001
      8 C         -13.4021  -15.4210   33.4028 C.ar    1  UNL1        0.0000
      9 C         -12.7633  -15.3250   34.6426 C.ar    1  UNL1        0.0000
     10 C         -11.7435  -14.3888   34.8379 C.ar    1  UNL1        0.0015
     11 C         -11.3588  -13.5420   33.7877 C.ar    1  UNL1        0.0192
     12 C         -10.3402  -12.5980   33.9562 C.ar    1  UNL1        0.0989
     13 N          -9.9799  -11.7953   32.9212 N.ar    1  UNL1       -0.2393
     14 C         -10.9356   -8.7068   31.3035 C.3     1  UNL1        0.1007
     15 C         -12.2867   -9.3847   31.0283 C.3     1  UNL1        0.0265
     16 C         -10.7962   -7.2684   30.8052 C.ar    1  UNL1        0.0234
     17 C          -9.8328   -7.0153   29.8081 C.ar    1  UNL1        0.0019
     18 C          -9.6548   -5.7326   29.2866 C.ar    1  UNL1        0.0295
     19 C         -10.4268   -4.6729   29.7588 C.ar    1  UNL1        0.1424
     20 F         -10.2568   -3.4291   29.2474 F       1  UNL1       -0.2041
     21 C         -11.3801   -4.8956   30.7522 C.ar    1  UNL1        0.0590
     22 C         -11.5743   -6.1790   31.2761 C.ar    1  UNL1        0.1399
     23 F         -12.5446   -6.3343   32.2087 F       1  UNL1       -0.2044
     24 C          -8.6317   -9.0162   30.1700 C.3     1  UNL1        0.1205
     25 C          -6.3826  -10.1133   30.8577 C.ar    1  UNL1        0.0111
     26 C          -7.3744   -9.0964   31.0165 C.ar    1  UNL1       -0.0037
     27 C          -7.1890   -8.0996   31.9893 C.ar    1  UNL1       -0.0028
     28 C          -6.1042   -8.1376   32.8548 C.ar    1  UNL1       -0.0001
     29 C          -5.1722   -9.1619   32.7606 C.ar    1  UNL1        0.0062
     30 C          -5.2798  -10.1468   31.7657 C.ar    1  UNL1        0.0736
     31 C          -4.2289  -11.1964   31.7350 C.2     1  UNL1        0.3378
     32 O          -3.6155  -11.4355   30.6595 O.2     1  UNL1       -0.2451
     33 O          -3.9353  -11.9564   32.8624 O.3     1  UNL1       -0.4771
     34 H          -3.2240  -12.6770   32.8343 H       1  UNL1        0.2954
     35 C          -6.4890  -11.1518   29.7557 C.3     1  UNL1        0.1686
     36 C          -5.1854  -10.1398   28.1447 C.3     1  UNL1        0.1746
     37 O          -6.5004  -10.5063   28.4990 O.3     1  UNL1       -0.3463
@<TRIPOS>BOND
     1    36    37    1
     2    37    35    1
     3    35    25    1
     4    25    26   ar
     5    26    24    1
     6    24     1    1
     7     1     2   am
     8     2     3    2
     9     2     4    1
    10     4     5   ar
    11     5     6   ar
    12     6     7   ar
    13     7     8   ar
    14     8     9   ar
    15     9    10   ar
    16    10    11   ar
    17    11    12   ar
    18    12    13   ar
    19     1    14    1
    20    14    15    1
    21    14    16    1
    22    16    17   ar
    23    17    18   ar
    24    18    19   ar
    25    19    20    1
    26    19    21   ar
    27    21    22   ar
    28    22    23    1
    29    26    27   ar
    30    27    28   ar
    31    28    29   ar
    32    29    30   ar
    33    30    31    1
    34    31    32    2
    35    31    33    1
    36    30    25   ar
    37    13     4   ar
    38    22    16   ar
    39    11     6   ar
    40    33    34    1
