@<TRIPOS>MOLECULE
*****
 41 45 0 0 0
SMALL
GASTEIGER

@<TRIPOS>ATOM
      1 C          -7.1082  -18.2145   21.4655 C.3     1  UNL1        0.1333
      2 N          -6.7408  -17.1222   22.3677 N.ar    1  UNL1       -0.2950
      3 C          -5.7398  -16.2069   22.2298 C.ar    1  UNL1        0.2019
      4 N          -5.6174  -15.3692   23.2905 N.ar    1  UNL1       -0.2134
      5 C          -6.6104  -15.7677   24.1047 C.ar    1  UNL1        0.1033
      6 C          -6.9571  -15.2186   25.3366 C.ar    1  UNL1        0.0284
      7 C          -8.0463  -15.7805   26.0402 C.ar    1  UNL1        0.0922
      8 C          -8.7772  -16.8522   25.4565 C.ar    1  UNL1        0.1782
      9 C          -8.4115  -17.3637   24.1931 C.ar    1  UNL1        0.1897
     10 C          -7.2966  -16.8122   23.5548 C.ar    1  UNL1        0.1173
     11 O          -9.1827  -18.3762   23.6141 O.3     1  UNL1       -0.4669
     12 C         -10.4718  -18.7107   24.1315 C.3     1  UNL1        0.2527
     13 C         -10.4614  -18.6429   25.6627 C.3     1  UNL1        0.2526
     14 O          -9.8927  -17.4059   26.0970 O.3     1  UNL1       -0.4682
     15 C          -8.4130  -15.2257   27.3600 C.2     1  UNL1        0.2526
     16 O          -8.7337  -16.0189   28.2862 O.2     1  UNL1       -0.2697
     17 N          -8.4102  -13.8046   27.5869 N.am    1  UNL1       -0.2803
     18 H          -8.1011  -13.1744   26.8136 H       1  UNL1        0.1552
     19 C          -8.7312  -13.1901   28.8459 C.ar    1  UNL1        0.0506
     20 C         -10.0064  -13.3207   29.4202 C.ar    1  UNL1        0.0170
     21 C         -10.3008  -12.6901   30.6303 C.ar    1  UNL1        0.0309
     22 C          -9.3344  -11.9135   31.2742 C.ar    1  UNL1        0.1441
     23 F          -9.6487  -11.3068   32.4471 F       1  UNL1       -0.2042
     24 C          -8.0577  -11.7531   30.7052 C.ar    1  UNL1        0.1000
     25 C          -7.7711  -12.3882   29.4815 C.ar    1  UNL1        0.0208
     26 C          -7.0297  -10.8952   31.4033 C.3     1  UNL1        0.4207
     27 F          -6.9355  -11.1993   32.7506 F       1  UNL1       -0.1658
     28 F          -5.7918  -11.0944   30.8197 F       1  UNL1       -0.1658
     29 F          -7.3780   -9.5623   31.2794 F       1  UNL1       -0.1658
     30 N          -4.8861  -16.0961   21.0817 N.pl3   1  UNL1       -0.2814
     31 H          -5.2131  -15.4959   20.2915 H       1  UNL1        0.1551
     32 C          -3.6370  -16.7893   20.9301 C.ar    1  UNL1        0.0889
     33 C          -2.4805  -16.2361   21.5039 C.ar    1  UNL1        0.1548
     34 F          -2.5530  -15.0740   22.2006 F       1  UNL1       -0.2028
     35 C          -1.2510  -16.8897   21.3883 C.ar    1  UNL1        0.0368
     36 C          -1.1594  -18.0931   20.6846 C.ar    1  UNL1        0.0246
     37 S           0.4170  -18.9282   20.5395 S.3     1  UNL1       -0.1413
     38 C          -2.2976  -18.6374   20.0830 C.ar    1  UNL1        0.0187
     39 C          -3.5348  -17.9909   20.1920 C.ar    1  UNL1        0.0738
     40 CL         -4.9065  -18.6805   19.3312 Cl      1  UNL1       -0.0809
     41 H           0.1917  -19.6711   21.7136 H       1  UNL1        0.1071
@<TRIPOS>BOND
     1     1     2    1
     2     2     3   ar
     3     3    30    1
     4    30    32    1
     5    32    33   ar
     6    33    34    1
     7    33    35   ar
     8    35    36   ar
     9    36    37    1
    10    36    38   ar
    11    38    39   ar
    12    39    40    1
    13     3     4   ar
    14     4     5   ar
    15     5     6   ar
    16     6     7   ar
    17     7    15    1
    18    15    16    2
    19    15    17   am
    20    17    19    1
    21    19    20   ar
    22    20    21   ar
    23    21    22   ar
    24    22    23    1
    25    22    24   ar
    26    24    26    1
    27    26    27    1
    28    26    28    1
    29    26    29    1
    30    24    25   ar
    31     7     8   ar
    32     8     9   ar
    33     9    10   ar
    34     9    11    1
    35    11    12    1
    36    12    13    1
    37    13    14    1
    38    10     2   ar
    39    39    32   ar
    40    10     5   ar
    41    25    19   ar
    42    14     8    1
    43    30    31    1
    44    37    41    1
    45    17    18    1
@<TRIPOS>MOLECULE
*****
 41 45 0 0 0
SMALL
GASTEIGER

@<TRIPOS>ATOM
      1 C          -6.9584  -18.1626   21.8705 C.3     1  UNL1        0.1333
      2 N          -6.4370  -17.0153   22.6147 N.ar    1  UNL1       -0.2950
      3 C          -5.4002  -16.1918   22.2893 C.ar    1  UNL1        0.2019
      4 N          -5.1221  -15.2641   23.2400 N.ar    1  UNL1       -0.2134
      5 C          -6.0520  -15.5083   24.1799 C.ar    1  UNL1        0.1033
      6 C          -6.2405  -14.8167   25.3738 C.ar    1  UNL1        0.0284
      7 C          -7.2870  -15.2271   26.2302 C.ar    1  UNL1        0.0922
      8 C          -8.1365  -16.2966   25.8327 C.ar    1  UNL1        0.1782
      9 C          -7.9300  -16.9554   24.6018 C.ar    1  UNL1        0.1897
     10 C          -6.8522  -16.5506   23.8088 C.ar    1  UNL1        0.1173
     11 O          -8.8155  -17.9627   24.2065 O.3     1  UNL1       -0.4669
     12 C         -10.0651  -18.1516   24.8731 C.3     1  UNL1        0.2527
     13 C          -9.8988  -17.9335   26.3811 C.3     1  UNL1        0.2526
     14 O          -9.2149  -16.7033   26.6282 O.3     1  UNL1       -0.4682
     15 C          -7.4863  -14.5198   27.5124 C.2     1  UNL1        0.2526
     16 O          -6.5172  -14.4265   28.3136 O.2     1  UNL1       -0.2697
     17 N          -8.7648  -13.9499   27.8468 N.am    1  UNL1       -0.2803
     18 H          -9.5375  -14.0071   27.1465 H       1  UNL1        0.1552
     19 C          -9.0313  -13.2282   29.0609 C.ar    1  UNL1        0.0506
     20 C          -8.1811  -12.2017   29.5040 C.ar    1  UNL1        0.0170
     21 C          -8.4474  -11.5357   30.7015 C.ar    1  UNL1        0.0309
     22 C          -9.5540  -11.8925   31.4760 C.ar    1  UNL1        0.1441
     23 F          -9.7868  -11.2322   32.6390 F       1  UNL1       -0.2042
     24 C         -10.4062  -12.9318   31.0602 C.ar    1  UNL1        0.1000
     25 C         -10.1270  -13.6021   29.8536 C.ar    1  UNL1        0.0208
     26 C         -11.5876  -13.3189   31.9174 C.3     1  UNL1        0.4207
     27 F         -11.2918  -13.2384   33.2674 F       1  UNL1       -0.1658
     28 F         -12.6479  -12.4728   31.6480 F       1  UNL1       -0.1658
     29 F         -11.9627  -14.6187   31.6288 F       1  UNL1       -0.1658
     30 N          -4.6594  -16.2563   21.0620 N.pl3   1  UNL1       -0.2814
     31 H          -5.0656  -15.7794   20.2259 H       1  UNL1        0.1551
     32 C          -3.4228  -16.9687   20.8979 C.ar    1  UNL1        0.0889
     33 C          -2.2447  -16.4118   21.4220 C.ar    1  UNL1        0.1548
     34 F          -2.2848  -15.2278   22.0837 F       1  UNL1       -0.2028
     35 C          -1.0261  -17.0833   21.2931 C.ar    1  UNL1        0.0368
     36 C          -0.9676  -18.3089   20.6251 C.ar    1  UNL1        0.0246
     37 S           0.5949  -19.1668   20.4629 S.3     1  UNL1       -0.1413
     38 C          -2.1280  -18.8580   20.0724 C.ar    1  UNL1        0.0187
     39 C          -3.3545  -18.1937   20.1952 C.ar    1  UNL1        0.0738
     40 CL         -4.7572  -18.8933   19.3946 Cl      1  UNL1       -0.0809
     41 H           0.3943  -19.8702   21.6654 H       1  UNL1        0.1071
@<TRIPOS>BOND
     1     1     2    1
     2     2     3   ar
     3     3    30    1
     4    30    32    1
     5    32    33   ar
     6    33    34    1
     7    33    35   ar
     8    35    36   ar
     9    36    37    1
    10    36    38   ar
    11    38    39   ar
    12    39    40    1
    13     3     4   ar
    14     4     5   ar
    15     5     6   ar
    16     6     7   ar
    17     7    15    1
    18    15    16    2
    19    15    17   am
    20    17    19    1
    21    19    20   ar
    22    20    21   ar
    23    21    22   ar
    24    22    23    1
    25    22    24   ar
    26    24    26    1
    27    26    27    1
    28    26    28    1
    29    26    29    1
    30    24    25   ar
    31     7     8   ar
    32     8     9   ar
    33     9    10   ar
    34     9    11    1
    35    11    12    1
    36    12    13    1
    37    13    14    1
    38    10     2   ar
    39    39    32   ar
    40    10     5   ar
    41    25    19   ar
    42    14     8    1
    43    30    31    1
    44    37    41    1
    45    17    18    1
@<TRIPOS>MOLECULE
*****
 41 45 0 0 0
SMALL
GASTEIGER

@<TRIPOS>ATOM
      1 C          -6.0605  -17.7020   20.9931 C.3     1  UNL1        0.1333
      2 N          -5.4220  -16.9217   22.0540 N.ar    1  UNL1       -0.2950
      3 C          -4.1315  -16.4883   22.1303 C.ar    1  UNL1        0.2019
      4 N          -3.8387  -15.8506   23.2920 N.ar    1  UNL1       -0.2134
      5 C          -5.0127  -15.8646   23.9472 C.ar    1  UNL1        0.1033
      6 C          -5.2840  -15.3099   25.1954 C.ar    1  UNL1        0.0284
      7 C          -6.5944  -15.4255   25.7117 C.ar    1  UNL1        0.0922
      8 C          -7.5996  -16.0609   24.9311 C.ar    1  UNL1        0.1782
      9 C          -7.2917  -16.5870   23.6582 C.ar    1  UNL1        0.1897
     10 C          -5.9714  -16.4959   23.2078 C.ar    1  UNL1        0.1173
     11 O          -8.3106  -17.1523   22.8854 O.3     1  UNL1       -0.4669
     12 C          -9.6859  -16.9661   23.2254 C.3     1  UNL1        0.2527
     13 C          -9.8665  -17.0164   24.7467 C.3     1  UNL1        0.2526
     14 O          -8.9216  -16.1538   25.3834 O.3     1  UNL1       -0.4682
     15 C          -6.8941  -14.8636   27.0453 C.2     1  UNL1        0.2526
     16 O          -7.2431  -15.6452   27.9711 O.2     1  UNL1       -0.2697
     17 N          -6.7952  -13.4482   27.2861 N.am    1  UNL1       -0.2803
     18 H          -6.4646  -12.8302   26.5119 H       1  UNL1        0.1552
     19 C          -7.0469  -12.8289   28.5585 C.ar    1  UNL1        0.0506
     20 C          -8.3300  -12.8252   29.1298 C.ar    1  UNL1        0.0170
     21 C          -8.5532  -12.1919   30.3536 C.ar    1  UNL1        0.0309
     22 C          -7.5059  -11.5455   31.0145 C.ar    1  UNL1        0.1441
     23 F          -7.7515  -10.9328   32.2007 F       1  UNL1       -0.2042
     24 C          -6.2179  -11.5199   30.4491 C.ar    1  UNL1        0.1000
     25 C          -6.0028  -12.1565   29.2116 C.ar    1  UNL1        0.0208
     26 C          -5.1000  -10.8009   31.1661 C.3     1  UNL1        0.4207
     27 F          -5.5252   -9.5999   31.7076 F       1  UNL1       -0.1658
     28 F          -4.6211  -11.5996   32.1886 F       1  UNL1       -0.1658
     29 F          -4.0724  -10.5404   30.2776 F       1  UNL1       -0.1658
     30 N          -3.1506  -16.6557   21.0964 N.pl3   1  UNL1       -0.2814
     31 H          -3.2423  -16.0620   20.2416 H       1  UNL1        0.1551
     32 C          -2.0812  -17.6138   21.1408 C.ar    1  UNL1        0.0889
     33 C          -0.8375  -17.2679   20.5877 C.ar    1  UNL1        0.1548
     34 F          -0.6529  -16.0421   20.0359 F       1  UNL1       -0.2028
     35 C           0.2292  -18.1697   20.6252 C.ar    1  UNL1        0.0368
     36 C           0.0611  -19.4320   21.1996 C.ar    1  UNL1        0.0246
     37 S           1.4300  -20.5841   21.2471 S.3     1  UNL1       -0.1413
     38 C          -1.1808  -19.7990   21.7255 C.ar    1  UNL1        0.0187
     39 C          -2.2569  -18.9036   21.6930 C.ar    1  UNL1        0.0738
     40 CL         -3.8166  -19.4638   22.2860 Cl      1  UNL1       -0.0809
     41 H           1.8569  -20.1078   22.5008 H       1  UNL1        0.1071
@<TRIPOS>BOND
     1     1     2    1
     2     2     3   ar
     3     3    30    1
     4    30    32    1
     5    32    33   ar
     6    33    34    1
     7    33    35   ar
     8    35    36   ar
     9    36    37    1
    10    36    38   ar
    11    38    39   ar
    12    39    40    1
    13     3     4   ar
    14     4     5   ar
    15     5     6   ar
    16     6     7   ar
    17     7    15    1
    18    15    16    2
    19    15    17   am
    20    17    19    1
    21    19    20   ar
    22    20    21   ar
    23    21    22   ar
    24    22    23    1
    25    22    24   ar
    26    24    26    1
    27    26    27    1
    28    26    28    1
    29    26    29    1
    30    24    25   ar
    31     7     8   ar
    32     8     9   ar
    33     9    10   ar
    34     9    11    1
    35    11    12    1
    36    12    13    1
    37    13    14    1
    38    10     2   ar
    39    39    32   ar
    40    10     5   ar
    41    25    19   ar
    42    14     8    1
    43    30    31    1
    44    37    41    1
    45    17    18    1
@<TRIPOS>MOLECULE
*****
 41 45 0 0 0
SMALL
GASTEIGER

@<TRIPOS>ATOM
      1 C          -8.3916   -9.5721   32.8028 C.3     1  UNL1        0.1333
      2 N          -8.6330  -10.7111   31.9160 N.ar    1  UNL1       -0.2950
      3 C          -9.6425  -11.6262   31.9643 C.ar    1  UNL1        0.2019
      4 N          -9.5321  -12.6090   31.0349 N.ar    1  UNL1       -0.2134
      5 C          -8.4196  -12.2642   30.3631 C.ar    1  UNL1        0.1033
      6 C          -7.8594  -12.9240   29.2722 C.ar    1  UNL1        0.0284
      7 C          -6.6823  -12.3934   28.6978 C.ar    1  UNL1        0.0922
      8 C          -6.1327  -11.1887   29.2177 C.ar    1  UNL1        0.1782
      9 C          -6.7452  -10.5343   30.3077 C.ar    1  UNL1        0.1897
     10 C          -7.8789  -11.1209   30.8778 C.ar    1  UNL1        0.1173
     11 O          -6.2207   -9.3200   30.7609 O.3     1  UNL1       -0.4669
     12 C          -5.2637   -8.5938   29.9873 C.3     1  UNL1        0.2527
     13 C          -4.2818   -9.5609   29.3166 C.3     1  UNL1        0.2526
     14 O          -4.9959  -10.6024   28.6477 O.3     1  UNL1       -0.4682
     15 C          -6.0608  -13.0941   27.5546 C.2     1  UNL1        0.2526
     16 O          -5.0112  -12.6163   27.0451 O.2     1  UNL1       -0.2697
     17 N          -6.6435  -14.2992   27.0259 N.am    1  UNL1       -0.2803
     18 H          -7.4896  -14.6937   27.4939 H       1  UNL1        0.1552
     19 C          -6.0872  -15.0499   25.9338 C.ar    1  UNL1        0.0506
     20 C          -4.9847  -15.9008   26.1168 C.ar    1  UNL1        0.0170
     21 C          -4.4459  -16.5969   25.0334 C.ar    1  UNL1        0.0309
     22 C          -4.9900  -16.4438   23.7559 C.ar    1  UNL1        0.1441
     23 F          -4.4435  -17.1284   22.7189 F       1  UNL1       -0.2042
     24 C          -6.0812  -15.5806   23.5476 C.ar    1  UNL1        0.1000
     25 C          -6.6149  -14.8780   24.6451 C.ar    1  UNL1        0.0208
     26 C          -6.6465  -15.4109   22.1576 C.3     1  UNL1        0.4207
     27 F          -6.9264  -16.6299   21.5641 F       1  UNL1       -0.1658
     28 F          -7.8155  -14.6747   22.2235 F       1  UNL1       -0.1658
     29 F          -5.7335  -14.7384   21.3655 F       1  UNL1       -0.1658
     30 N         -10.7435  -11.5808   32.8835 N.pl3   1  UNL1       -0.2814
     31 H         -10.8239  -10.7421   33.5014 H       1  UNL1        0.1551
     32 C         -11.7129  -12.6293   33.0399 C.ar    1  UNL1        0.0889
     33 C         -12.8535  -12.6261   32.2203 C.ar    1  UNL1        0.1548
     34 F         -13.0222  -11.6538   31.2890 F       1  UNL1       -0.2028
     35 C         -13.8105  -13.6376   32.3353 C.ar    1  UNL1        0.0368
     36 C         -13.6479  -14.6533   33.2806 C.ar    1  UNL1        0.0246
     37 S         -14.8752  -15.9482   33.4243 S.3     1  UNL1       -0.1413
     38 C         -12.5325  -14.6499   34.1229 C.ar    1  UNL1        0.0187
     39 C         -11.5674  -13.6410   34.0169 C.ar    1  UNL1        0.0738
     40 CL        -10.2382  -13.6441   35.1707 Cl      1  UNL1       -0.0809
     41 H         -14.2067  -16.7590   32.4881 H       1  UNL1        0.1071
@<TRIPOS>BOND
     1     1     2    1
     2     2     3   ar
     3     3    30    1
     4    30    32    1
     5    32    33   ar
     6    33    34    1
     7    33    35   ar
     8    35    36   ar
     9    36    37    1
    10    36    38   ar
    11    38    39   ar
    12    39    40    1
    13     3     4   ar
    14     4     5   ar
    15     5     6   ar
    16     6     7   ar
    17     7    15    1
    18    15    16    2
    19    15    17   am
    20    17    19    1
    21    19    20   ar
    22    20    21   ar
    23    21    22   ar
    24    22    23    1
    25    22    24   ar
    26    24    26    1
    27    26    27    1
    28    26    28    1
    29    26    29    1
    30    24    25   ar
    31     7     8   ar
    32     8     9   ar
    33     9    10   ar
    34     9    11    1
    35    11    12    1
    36    12    13    1
    37    13    14    1
    38    10     2   ar
    39    39    32   ar
    40    10     5   ar
    41    25    19   ar
    42    14     8    1
    43    30    31    1
    44    37    41    1
    45    17    18    1
@<TRIPOS>MOLECULE
*****
 41 45 0 0 0
SMALL
GASTEIGER

@<TRIPOS>ATOM
      1 C          -9.2847  -15.0163   27.4605 C.3     1  UNL1        0.1333
      2 N          -7.8719  -14.7842   27.1565 N.ar    1  UNL1       -0.2950
      3 C          -6.9510  -14.0858   27.8797 C.ar    1  UNL1        0.2019
      4 N          -5.7389  -13.9953   27.2762 N.ar    1  UNL1       -0.2134
      5 C          -5.9135  -14.6982   26.1433 C.ar    1  UNL1        0.1033
      6 C          -4.9629  -14.9517   25.1577 C.ar    1  UNL1        0.0284
      7 C          -5.3453  -15.7243   24.0380 C.ar    1  UNL1        0.0922
      8 C          -6.6647  -16.2519   23.9708 C.ar    1  UNL1        0.1782
      9 C          -7.5918  -15.9954   25.0033 C.ar    1  UNL1        0.1897
     10 C          -7.1872  -15.1843   26.0677 C.ar    1  UNL1        0.1173
     11 O          -8.8626  -16.5755   24.9432 O.3     1  UNL1       -0.4669
     12 C          -9.1515  -17.6282   24.0213 C.3     1  UNL1        0.2527
     13 C          -8.4490  -17.3683   22.6841 C.3     1  UNL1        0.2526
     14 O          -7.0704  -17.0626   22.9034 O.3     1  UNL1       -0.4682
     15 C          -4.3561  -15.9829   22.9709 C.2     1  UNL1        0.2526
     16 O          -4.4748  -15.3782   21.8709 O.2     1  UNL1       -0.2697
     17 N          -3.2769  -16.9121   23.1782 N.am    1  UNL1       -0.2803
     18 H          -3.1803  -17.3674   24.1132 H       1  UNL1        0.1552
     19 C          -2.2636  -17.1996   22.2003 C.ar    1  UNL1        0.0506
     20 C          -2.0085  -16.3247   21.1315 C.ar    1  UNL1        0.0170
     21 C          -1.0381  -16.6414   20.1794 C.ar    1  UNL1        0.0309
     22 C          -0.3213  -17.8368   20.2737 C.ar    1  UNL1        0.1441
     23 F           0.6130  -18.1228   19.3314 F       1  UNL1       -0.2042
     24 C          -0.5762  -18.7364   21.3250 C.ar    1  UNL1        0.1000
     25 C          -1.5607  -18.4115   22.2779 C.ar    1  UNL1        0.0208
     26 C           0.1934  -20.0334   21.4031 C.3     1  UNL1        0.4207
     27 F           1.1241  -20.0180   22.4279 F       1  UNL1       -0.1658
     28 F          -0.6865  -21.0775   21.6234 F       1  UNL1       -0.1658
     29 F           0.8600  -20.2487   20.2104 F       1  UNL1       -0.1658
     30 N          -7.1954  -13.5013   29.1673 N.pl3   1  UNL1       -0.2814
     31 H          -7.2052  -14.1394   29.9945 H       1  UNL1        0.1551
     32 C          -7.4707  -12.1085   29.3864 C.ar    1  UNL1        0.0889
     33 C          -6.4154  -11.1862   29.2950 C.ar    1  UNL1        0.1548
     34 F          -5.1629  -11.6099   28.9898 F       1  UNL1       -0.2028
     35 C          -6.6488   -9.8223   29.4884 C.ar    1  UNL1        0.0368
     36 C          -7.9340   -9.3664   29.7919 C.ar    1  UNL1        0.0246
     37 S          -8.2295   -7.6183   30.0379 S.3     1  UNL1       -0.1413
     38 C          -8.9860  -10.2781   29.9160 C.ar    1  UNL1        0.0187
     39 C          -8.7637  -11.6472   29.7247 C.ar    1  UNL1        0.0738
     40 CL        -10.1111  -12.7484   29.9893 Cl      1  UNL1       -0.0809
     41 H          -8.5181   -7.4209   28.6746 H       1  UNL1        0.1071
@<TRIPOS>BOND
     1     1     2    1
     2     2     3   ar
     3     3    30    1
     4    30    32    1
     5    32    33   ar
     6    33    34    1
     7    33    35   ar
     8    35    36   ar
     9    36    37    1
    10    36    38   ar
    11    38    39   ar
    12    39    40    1
    13     3     4   ar
    14     4     5   ar
    15     5     6   ar
    16     6     7   ar
    17     7    15    1
    18    15    16    2
    19    15    17   am
    20    17    19    1
    21    19    20   ar
    22    20    21   ar
    23    21    22   ar
    24    22    23    1
    25    22    24   ar
    26    24    26    1
    27    26    27    1
    28    26    28    1
    29    26    29    1
    30    24    25   ar
    31     7     8   ar
    32     8     9   ar
    33     9    10   ar
    34     9    11    1
    35    11    12    1
    36    12    13    1
    37    13    14    1
    38    10     2   ar
    39    39    32   ar
    40    10     5   ar
    41    25    19   ar
    42    14     8    1
    43    30    31    1
    44    37    41    1
    45    17    18    1
@<TRIPOS>MOLECULE
*****
 41 45 0 0 0
SMALL
GASTEIGER

@<TRIPOS>ATOM
      1 C          -5.6608  -11.6421   29.2258 C.3     1  UNL1        0.1333
      2 N          -6.9424  -12.3465   29.1665 N.ar    1  UNL1       -0.2950
      3 C          -8.0719  -12.1177   29.8950 C.ar    1  UNL1        0.2019
      4 N          -9.0681  -13.0059   29.6493 N.ar    1  UNL1       -0.2134
      5 C          -8.5374  -13.7988   28.7019 C.ar    1  UNL1        0.1033
      6 C          -9.1539  -14.8719   28.0633 C.ar    1  UNL1        0.0284
      7 C          -8.4235  -15.5798   27.0823 C.ar    1  UNL1        0.0922
      8 C          -7.1081  -15.1540   26.7476 C.ar    1  UNL1        0.1782
      9 C          -6.5275  -14.0444   27.3984 C.ar    1  UNL1        0.1897
     10 C          -7.2659  -13.4045   28.3982 C.ar    1  UNL1        0.1173
     11 O          -5.2573  -13.6088   27.0088 O.3     1  UNL1       -0.4669
     12 C          -4.6546  -14.0753   25.8002 C.3     1  UNL1        0.2527
     13 C          -4.9669  -15.5614   25.5924 C.3     1  UNL1        0.2526
     14 O          -6.3679  -15.7965   25.7475 O.3     1  UNL1       -0.4682
     15 C          -9.0537  -16.7362   26.4116 C.2     1  UNL1        0.2526
     16 O          -9.5631  -17.6472   27.1190 O.2     1  UNL1       -0.2697
     17 N          -9.0831  -16.8270   24.9756 N.am    1  UNL1       -0.2803
     18 H          -8.6897  -16.0383   24.4155 H       1  UNL1        0.1552
     19 C          -9.6964  -17.9056   24.2501 C.ar    1  UNL1        0.0506
     20 C          -9.8487  -19.1794   24.8221 C.ar    1  UNL1        0.0170
     21 C         -10.4220  -20.2172   24.0855 C.ar    1  UNL1        0.0309
     22 C         -10.8376  -20.0019   22.7692 C.ar    1  UNL1        0.1441
     23 F         -11.3871  -21.0299   22.0735 F       1  UNL1       -0.2042
     24 C         -10.6749  -18.7391   22.1709 C.ar    1  UNL1        0.1000
     25 C         -10.0905  -17.6993   22.9194 C.ar    1  UNL1        0.0208
     26 C         -11.1116  -18.5266   20.7409 C.3     1  UNL1        0.4207
     27 F         -10.9212  -19.6614   19.9712 F       1  UNL1       -0.1658
     28 F         -12.4545  -18.1972   20.7145 F       1  UNL1       -0.1658
     29 F         -10.3819  -17.4924   20.1829 F       1  UNL1       -0.1658
     30 N          -8.2375  -11.0417   30.8300 N.pl3   1  UNL1       -0.2814
     31 H          -7.4726  -10.8810   31.5233 H       1  UNL1        0.1551
     32 C          -9.4016  -10.2032   30.9033 C.ar    1  UNL1        0.0889
     33 C          -9.4685   -9.0629   30.0861 C.ar    1  UNL1        0.1548
     34 F          -8.4531   -8.7733   29.2338 F       1  UNL1       -0.2028
     35 C         -10.5913   -8.2320   30.1209 C.ar    1  UNL1        0.0368
     36 C         -11.6514   -8.5208   30.9837 C.ar    1  UNL1        0.0246
     37 S         -13.0887   -7.4550   31.0249 S.3     1  UNL1       -0.1413
     38 C         -11.5827   -9.6356   31.8240 C.ar    1  UNL1        0.0187
     39 C         -10.4623  -10.4749   31.7979 C.ar    1  UNL1        0.0738
     40 CL        -10.3992  -11.8055   32.9484 Cl      1  UNL1       -0.0809
     41 H         -13.7400   -8.2055   30.0281 H       1  UNL1        0.1071
@<TRIPOS>BOND
     1     1     2    1
     2     2     3   ar
     3     3    30    1
     4    30    32    1
     5    32    33   ar
     6    33    34    1
     7    33    35   ar
     8    35    36   ar
     9    36    37    1
    10    36    38   ar
    11    38    39   ar
    12    39    40    1
    13     3     4   ar
    14     4     5   ar
    15     5     6   ar
    16     6     7   ar
    17     7    15    1
    18    15    16    2
    19    15    17   am
    20    17    19    1
    21    19    20   ar
    22    20    21   ar
    23    21    22   ar
    24    22    23    1
    25    22    24   ar
    26    24    26    1
    27    26    27    1
    28    26    28    1
    29    26    29    1
    30    24    25   ar
    31     7     8   ar
    32     8     9   ar
    33     9    10   ar
    34     9    11    1
    35    11    12    1
    36    12    13    1
    37    13    14    1
    38    10     2   ar
    39    39    32   ar
    40    10     5   ar
    41    25    19   ar
    42    14     8    1
    43    30    31    1
    44    37    41    1
    45    17    18    1
@<TRIPOS>MOLECULE
*****
 41 45 0 0 0
SMALL
GASTEIGER

@<TRIPOS>ATOM
      1 C          -6.0158  -11.8727   29.2721 C.3     1  UNL1        0.1333
      2 N          -7.2628  -12.6233   29.1185 N.ar    1  UNL1       -0.2950
      3 C          -8.4341  -12.4730   29.7999 C.ar    1  UNL1        0.2019
      4 N          -9.3799  -13.3874   29.4662 N.ar    1  UNL1       -0.2134
      5 C          -8.7723  -14.1140   28.5119 C.ar    1  UNL1        0.1033
      6 C          -9.3128  -15.1797   27.7967 C.ar    1  UNL1        0.0284
      7 C          -8.5080  -15.8122   26.8224 C.ar    1  UNL1        0.0922
      8 C          -7.1970  -15.3200   26.5722 C.ar    1  UNL1        0.1782
      9 C          -6.6944  -14.2199   27.2994 C.ar    1  UNL1        0.1897
     10 C          -7.5053  -13.6564   28.2890 C.ar    1  UNL1        0.1173
     11 O          -5.4263  -13.7171   26.9926 O.3     1  UNL1       -0.4669
     12 C          -4.7481  -14.1031   25.7957 C.3     1  UNL1        0.2527
     13 C          -4.9882  -15.5891   25.5070 C.3     1  UNL1        0.2526
     14 O          -6.3841  -15.8860   25.5823 O.3     1  UNL1       -0.4682
     15 C          -9.0571  -16.9601   26.0708 C.2     1  UNL1        0.2526
     16 O          -9.3231  -18.0242   26.6927 O.2     1  UNL1       -0.2697
     17 N          -9.2814  -16.8706   24.6521 N.am    1  UNL1       -0.2803
     18 H          -9.0902  -15.9637   24.1708 H       1  UNL1        0.1552
     19 C          -9.8331  -17.9326   23.8561 C.ar    1  UNL1        0.0506
     20 C         -10.4764  -19.0324   24.4473 C.ar    1  UNL1        0.0170
     21 C         -10.9784  -20.0643   23.6526 C.ar    1  UNL1        0.0309
     22 C         -10.8343  -20.0189   22.2638 C.ar    1  UNL1        0.1441
     23 F         -11.3270  -21.0382   21.5149 F       1  UNL1       -0.2042
     24 C         -10.1749  -18.9363   21.6535 C.ar    1  UNL1        0.1000
     25 C          -9.6666  -17.9023   22.4632 C.ar    1  UNL1        0.0208
     26 C         -10.0101  -18.9103   20.1526 C.3     1  UNL1        0.4207
     27 F         -10.4075  -20.1021   19.5710 F       1  UNL1       -0.1658
     28 F         -10.7745  -17.8862   19.6239 F       1  UNL1       -0.1658
     29 F          -8.6814  -18.6913   19.8366 F       1  UNL1       -0.1658
     30 N          -8.6884  -11.4489   30.7724 N.pl3   1  UNL1       -0.2814
     31 H          -8.7526  -11.7381   31.7743 H       1  UNL1        0.1551
     32 C          -8.9039  -10.0646   30.4546 C.ar    1  UNL1        0.0889
     33 C          -9.9353   -9.7261   29.5633 C.ar    1  UNL1        0.1548
     34 F         -10.7198  -10.6949   29.0274 F       1  UNL1       -0.2028
     35 C         -10.1825   -8.3890   29.2419 C.ar    1  UNL1        0.0368
     36 C          -9.3925   -7.3772   29.7931 C.ar    1  UNL1        0.0246
     37 S          -9.7128   -5.6653   29.3802 S.3     1  UNL1       -0.1413
     38 C          -8.3435   -7.7041   30.6571 C.ar    1  UNL1        0.0187
     39 C          -8.0864   -9.0406   30.9859 C.ar    1  UNL1        0.0738
     40 CL         -6.6926   -9.3882   32.0030 Cl      1  UNL1       -0.0809
     41 H         -10.6005   -5.5149   30.4621 H       1  UNL1        0.1071
@<TRIPOS>BOND
     1     1     2    1
     2     2     3   ar
     3     3    30    1
     4    30    32    1
     5    32    33   ar
     6    33    34    1
     7    33    35   ar
     8    35    36   ar
     9    36    37    1
    10    36    38   ar
    11    38    39   ar
    12    39    40    1
    13     3     4   ar
    14     4     5   ar
    15     5     6   ar
    16     6     7   ar
    17     7    15    1
    18    15    16    2
    19    15    17   am
    20    17    19    1
    21    19    20   ar
    22    20    21   ar
    23    21    22   ar
    24    22    23    1
    25    22    24   ar
    26    24    26    1
    27    26    27    1
    28    26    28    1
    29    26    29    1
    30    24    25   ar
    31     7     8   ar
    32     8     9   ar
    33     9    10   ar
    34     9    11    1
    35    11    12    1
    36    12    13    1
    37    13    14    1
    38    10     2   ar
    39    39    32   ar
    40    10     5   ar
    41    25    19   ar
    42    14     8    1
    43    30    31    1
    44    37    41    1
    45    17    18    1
