@<TRIPOS>MOLECULE
*****
 47 52 0 0 0
SMALL
GASTEIGER

@<TRIPOS>ATOM
      1 C         -25.4837   49.7731   -9.1578 C.ar    1  UNL1        0.0702
      2 C         -25.5920   48.4431   -8.7237 C.ar    1  UNL1        0.0191
      3 C         -26.6735   47.6587   -9.1282 C.ar    1  UNL1        0.0356
      4 C         -27.6472   48.2019   -9.9856 C.ar    1  UNL1        0.1318
      5 N         -27.5055   49.4906  -10.4058 N.ar    1  UNL1       -0.2279
      6 C         -26.4622   50.2730  -10.0244 C.ar    1  UNL1        0.1149
      7 N         -28.7725   47.4155  -10.4421 N.pl3   1  UNL1       -0.2932
      8 C         -28.6384   45.9679  -10.6599 C.3     1  UNL1        0.0923
      9 C         -29.5987   45.2090   -9.7358 C.3     1  UNL1        0.0252
     10 C         -31.0185   45.8459   -9.6552 C.3     1  UNL1        0.0472
     11 C         -31.2114   46.9685  -10.7020 C.3     1  UNL1        0.0252
     12 C         -30.1017   48.0291  -10.6068 C.3     1  UNL1        0.0923
     13 C         -31.3586   46.3564   -8.2372 C.3     1  UNL1        0.2054
     14 O         -30.3690   45.9382   -7.2918 O.3     1  UNL1       -0.4755
     15 C         -29.3593   46.7273   -6.7112 C.ar    1  UNL1        0.1384
     16 C         -28.2187   46.1896   -6.0818 C.ar    1  UNL1        0.0433
     17 C         -27.2508   47.0333   -5.5101 C.ar    1  UNL1        0.0782
     18 C         -27.4163   48.4252   -5.6011 C.ar    1  UNL1        0.0024
     19 C         -28.5395   48.9775   -6.2368 C.ar    1  UNL1       -0.0193
     20 C         -29.5038   48.1158   -6.7869 C.ar    1  UNL1        0.0326
     21 C         -26.0525   46.4746   -4.8366 C.2     1  UNL1        0.3381
     22 O         -25.2552   45.7442   -5.4832 O.2     1  UNL1       -0.2451
     23 O         -25.7675   46.7489   -3.4994 O.3     1  UNL1       -0.4771
     24 H         -26.3043   47.4096   -2.9531 H       1  UNL1        0.2954
     25 C         -28.7017   50.4846   -6.3167 C.3     1  UNL1        0.0225
     26 C         -29.3891   50.8977   -7.6235 C.3     1  UNL1        0.0047
     27 C         -27.3531   51.1959   -6.1534 C.3     1  UNL1        0.0047
     28 C         -23.4530   51.1867   -9.7269 C.2     1  UNL1        0.2839
     29 O         -23.4281   50.7854  -10.9214 O.2     1  UNL1       -0.2665
     30 N         -24.3700   50.6036   -8.7868 N.am    1  UNL1       -0.2766
     31 H         -24.1689   50.7216   -7.7679 H       1  UNL1        0.1553
     32 C         -23.5897   54.3188  -10.3931 C.3     1  UNL1        0.0345
     33 C         -22.5667   53.5980   -9.5676 C.ar    1  UNL1        0.0202
     34 C         -22.5104   52.2296   -9.2797 C.ar    1  UNL1        0.1946
     35 O         -21.4618   51.9707   -8.5187 O.2     1  UNL1       -0.4492
     36 C         -20.8349   53.1004   -8.2986 C.ar    1  UNL1        0.1452
     37 C         -19.6811   53.2925   -7.5468 C.ar    1  UNL1        0.0375
     38 C         -19.1741   54.5990   -7.4381 C.ar    1  UNL1        0.0031
     39 C         -19.8238   55.6883   -8.0791 C.ar    1  UNL1        0.0002
     40 C         -20.9961   55.4491   -8.8357 C.ar    1  UNL1        0.0028
     41 C         -21.4714   54.1397   -8.9225 C.ar    1  UNL1        0.0337
     42 C         -19.2789   57.0643   -7.9570 C.ar    1  UNL1        0.0000
     43 C         -18.5313   57.4403   -6.8247 C.ar    1  UNL1        0.0000
     44 C         -18.0193   58.7366   -6.7124 C.ar    1  UNL1        0.0000
     45 C         -18.2457   59.6700   -7.7262 C.ar    1  UNL1        0.0000
     46 C         -18.9851   59.3093   -8.8547 C.ar    1  UNL1        0.0000
     47 C         -19.5004   58.0146   -8.9720 C.ar    1  UNL1        0.0000
@<TRIPOS>BOND
     1    32    33    1
     2    33    34   ar
     3    34    28    1
     4    28    29    2
     5    28    30   am
     6    30     1    1
     7     1     2   ar
     8     2     3   ar
     9     3     4   ar
    10     4     7    1
    11     7     8    1
    12     8     9    1
    13     9    10    1
    14    10    13    1
    15    13    14    1
    16    14    15    1
    17    15    16   ar
    18    16    17   ar
    19    17    21    1
    20    21    22    2
    21    21    23    1
    22    17    18   ar
    23    18    19   ar
    24    19    25    1
    25    25    26    1
    26    25    27    1
    27    19    20   ar
    28    10    11    1
    29    11    12    1
    30     4     5   ar
    31     5     6   ar
    32    34    35   ar
    33    35    36   ar
    34    36    37   ar
    35    37    38   ar
    36    38    39   ar
    37    39    42    1
    38    42    43   ar
    39    43    44   ar
    40    44    45   ar
    41    45    46   ar
    42    46    47   ar
    43    39    40   ar
    44    40    41   ar
    45    41    33   ar
    46     6     1   ar
    47    41    36   ar
    48    12     7    1
    49    47    42   ar
    50    20    15   ar
    51    30    31    1
    52    23    24    1
@<TRIPOS>MOLECULE
*****
 47 52 0 0 0
SMALL
GASTEIGER

@<TRIPOS>ATOM
      1 C         -25.4555   49.7820   -9.1436 C.ar    1  UNL1        0.0702
      2 C         -25.5818   48.4642   -8.6785 C.ar    1  UNL1        0.0191
      3 C         -26.6583   47.6755   -9.0882 C.ar    1  UNL1        0.0356
      4 C         -27.6083   48.2018   -9.9819 C.ar    1  UNL1        0.1318
      5 N         -27.4491   49.4786  -10.4314 N.ar    1  UNL1       -0.2279
      6 C         -26.4104   50.2649  -10.0455 C.ar    1  UNL1        0.1149
      7 N         -28.7274   47.4101  -10.4446 N.pl3   1  UNL1       -0.2932
      8 C         -28.6141   45.9497  -10.5687 C.3     1  UNL1        0.0923
      9 C         -29.6330   45.2662   -9.6486 C.3     1  UNL1        0.0252
     10 C         -31.0410   45.9330   -9.6751 C.3     1  UNL1        0.0472
     11 C         -31.1602   46.9933  -10.7953 C.3     1  UNL1        0.0252
     12 C         -30.0339   48.0370  -10.7099 C.3     1  UNL1        0.0923
     13 C         -31.4369   46.5348   -8.3083 C.3     1  UNL1        0.2054
     14 O         -30.3794   46.3818   -7.3563 O.3     1  UNL1       -0.4755
     15 C         -29.5305   47.3870   -6.8582 C.ar    1  UNL1        0.1384
     16 C         -29.6808   48.7539   -7.1668 C.ar    1  UNL1        0.0433
     17 C         -28.7907   49.7085   -6.6453 C.ar    1  UNL1        0.0782
     18 C         -27.7642   49.2884   -5.7833 C.ar    1  UNL1        0.0024
     19 C         -27.6089   47.9325   -5.4546 C.ar    1  UNL1       -0.0193
     20 C         -28.4995   46.9924   -6.0004 C.ar    1  UNL1        0.0326
     21 C         -28.9360   51.1482   -6.9739 C.2     1  UNL1        0.3381
     22 O         -29.0335   51.5082   -8.1772 O.2     1  UNL1       -0.2451
     23 O         -28.9857   52.1261   -5.9810 O.3     1  UNL1       -0.4771
     24 H         -29.0198   51.9000   -4.9957 H       1  UNL1        0.2954
     25 C         -26.4877   47.5001   -4.5271 C.3     1  UNL1        0.0225
     26 C         -26.3725   45.9721   -4.4746 C.3     1  UNL1        0.0047
     27 C         -26.6727   48.0885   -3.1233 C.3     1  UNL1        0.0047
     28 C         -23.4178   51.1896   -9.7028 C.2     1  UNL1        0.2839
     29 O         -23.3793   50.7770  -10.8931 O.2     1  UNL1       -0.2665
     30 N         -24.3458   50.6157   -8.7678 N.am    1  UNL1       -0.2766
     31 H         -24.1563   50.7434   -7.7478 H       1  UNL1        0.1553
     32 C         -23.5390   54.3134  -10.4099 C.3     1  UNL1        0.0345
     33 C         -22.5296   53.6012   -9.5604 C.ar    1  UNL1        0.0202
     34 C         -22.4800   52.2365   -9.2548 C.ar    1  UNL1        0.1946
     35 O         -21.4432   51.9853   -8.4752 O.2     1  UNL1       -0.4492
     36 C         -20.8176   53.1167   -8.2599 C.ar    1  UNL1        0.1452
     37 C         -19.6747   53.3163   -7.4936 C.ar    1  UNL1        0.0375
     38 C         -19.1670   54.6232   -7.3938 C.ar    1  UNL1        0.0031
     39 C         -19.8052   55.7055   -8.0577 C.ar    1  UNL1        0.0002
     40 C         -20.9666   55.4588   -8.8286 C.ar    1  UNL1        0.0028
     41 C         -21.4429   54.1492   -8.9060 C.ar    1  UNL1        0.0337
     42 C         -19.2596   57.0820   -7.9448 C.ar    1  UNL1        0.0000
     43 C         -19.4934   58.0301   -8.9591 C.ar    1  UNL1        0.0000
     44 C         -18.9785   59.3256   -8.8501 C.ar    1  UNL1        0.0000
     45 C         -18.2273   59.6895   -7.7305 C.ar    1  UNL1        0.0000
     46 C         -17.9889   58.7584   -6.7173 C.ar    1  UNL1        0.0000
     47 C         -18.5004   57.4612   -6.8213 C.ar    1  UNL1        0.0000
@<TRIPOS>BOND
     1    32    33    1
     2    33    34   ar
     3    34    28    1
     4    28    29    2
     5    28    30   am
     6    30     1    1
     7     1     2   ar
     8     2     3   ar
     9     3     4   ar
    10     4     7    1
    11     7     8    1
    12     8     9    1
    13     9    10    1
    14    10    13    1
    15    13    14    1
    16    14    15    1
    17    15    16   ar
    18    16    17   ar
    19    17    21    1
    20    21    22    2
    21    21    23    1
    22    17    18   ar
    23    18    19   ar
    24    19    25    1
    25    25    26    1
    26    25    27    1
    27    19    20   ar
    28    10    11    1
    29    11    12    1
    30     4     5   ar
    31     5     6   ar
    32    34    35   ar
    33    35    36   ar
    34    36    37   ar
    35    37    38   ar
    36    38    39   ar
    37    39    42    1
    38    42    43   ar
    39    43    44   ar
    40    44    45   ar
    41    45    46   ar
    42    46    47   ar
    43    39    40   ar
    44    40    41   ar
    45    41    33   ar
    46     6     1   ar
    47    41    36   ar
    48    12     7    1
    49    47    42   ar
    50    20    15   ar
    51    30    31    1
    52    23    24    1
@<TRIPOS>MOLECULE
*****
 47 52 0 0 0
SMALL
GASTEIGER

@<TRIPOS>ATOM
      1 C         -25.0914   49.5981   -9.0208 C.ar    1  UNL1        0.0702
      2 C         -25.5051   48.5690   -8.1614 C.ar    1  UNL1        0.0191
      3 C         -26.5107   47.6854   -8.5575 C.ar    1  UNL1        0.0356
      4 C         -27.0976   47.8211   -9.8284 C.ar    1  UNL1        0.1318
      5 N         -26.6621   48.8186  -10.6488 N.ar    1  UNL1       -0.2279
      6 C         -25.6860   49.6906  -10.2843 C.ar    1  UNL1        0.1149
      7 N         -28.1291   46.9142  -10.2829 N.pl3   1  UNL1       -0.2932
      8 C         -28.4224   45.6785   -9.5427 C.3     1  UNL1        0.0923
      9 C         -29.8740   45.6973   -9.0483 C.3     1  UNL1        0.0252
     10 C         -30.8874   46.2146  -10.1129 C.3     1  UNL1        0.0472
     11 C         -30.2341   46.3765  -11.5058 C.3     1  UNL1        0.0252
     12 C         -28.9729   47.2544  -11.4416 C.3     1  UNL1        0.0923
     13 C         -31.5839   47.5240   -9.6802 C.3     1  UNL1        0.2054
     14 O         -30.9022   48.1250   -8.5746 O.3     1  UNL1       -0.4755
     15 C         -30.0980   49.2791   -8.5961 C.ar    1  UNL1        0.1384
     16 C         -29.8929   50.0616   -9.7502 C.ar    1  UNL1        0.0433
     17 C         -29.0672   51.1982   -9.7081 C.ar    1  UNL1        0.0782
     18 C         -28.4713   51.5667   -8.4906 C.ar    1  UNL1        0.0024
     19 C         -28.6764   50.8064   -7.3285 C.ar    1  UNL1       -0.0193
     20 C         -29.4920   49.6640   -7.3964 C.ar    1  UNL1        0.0326
     21 C         -28.8380   52.0211  -10.9213 C.2     1  UNL1        0.3381
     22 O         -28.1583   51.5548  -11.8740 O.2     1  UNL1       -0.2451
     23 O         -29.3711   53.3032  -11.0499 O.3     1  UNL1       -0.4771
     24 H         -30.0111   53.6969  -10.3727 H       1  UNL1        0.2954
     25 C         -28.0162   51.2190   -6.0254 C.3     1  UNL1        0.0225
     26 C         -26.8135   52.1350   -6.2812 C.3     1  UNL1        0.0047
     27 C         -27.6107   49.9934   -5.1980 C.3     1  UNL1        0.0047
     28 C         -23.1397   51.1131   -9.6050 C.2     1  UNL1        0.2839
     29 O         -23.0645   50.6699  -10.7825 O.2     1  UNL1       -0.2665
     30 N         -24.0392   50.5096   -8.6609 N.am    1  UNL1       -0.2766
     31 H         -23.8676   50.6779   -7.6436 H       1  UNL1        0.1553
     32 C         -23.3940   54.1875  -10.4749 C.3     1  UNL1        0.0345
     33 C         -22.3807   53.5722   -9.5572 C.ar    1  UNL1        0.0202
     34 C         -22.2728   52.2287   -9.1805 C.ar    1  UNL1        0.1946
     35 O         -21.2531   52.0712   -8.3552 O.2     1  UNL1       -0.4492
     36 C         -20.6938   53.2431   -8.1776 C.ar    1  UNL1        0.1452
     37 C         -19.5906   53.5401   -7.3851 C.ar    1  UNL1        0.0375
     38 C         -19.1537   54.8752   -7.3357 C.ar    1  UNL1        0.0031
     39 C         -19.8220   55.8884   -8.0750 C.ar    1  UNL1        0.0002
     40 C         -20.9411   55.5432   -8.8701 C.ar    1  UNL1        0.0028
     41 C         -21.3473   54.2081   -8.8961 C.ar    1  UNL1        0.0337
     42 C         -19.3513   57.2955   -8.0148 C.ar    1  UNL1        0.0000
     43 C         -19.5702   58.1704   -9.0960 C.ar    1  UNL1        0.0000
     44 C         -19.1261   59.4949   -9.0365 C.ar    1  UNL1        0.0000
     45 C         -18.4610   59.9610   -7.9004 C.ar    1  UNL1        0.0000
     46 C         -18.2382   59.1033   -6.8210 C.ar    1  UNL1        0.0000
     47 C         -18.6793   57.7774   -6.8753 C.ar    1  UNL1        0.0000
@<TRIPOS>BOND
     1    32    33    1
     2    33    34   ar
     3    34    28    1
     4    28    29    2
     5    28    30   am
     6    30     1    1
     7     1     2   ar
     8     2     3   ar
     9     3     4   ar
    10     4     7    1
    11     7     8    1
    12     8     9    1
    13     9    10    1
    14    10    13    1
    15    13    14    1
    16    14    15    1
    17    15    16   ar
    18    16    17   ar
    19    17    21    1
    20    21    22    2
    21    21    23    1
    22    17    18   ar
    23    18    19   ar
    24    19    25    1
    25    25    26    1
    26    25    27    1
    27    19    20   ar
    28    10    11    1
    29    11    12    1
    30     4     5   ar
    31     5     6   ar
    32    34    35   ar
    33    35    36   ar
    34    36    37   ar
    35    37    38   ar
    36    38    39   ar
    37    39    42    1
    38    42    43   ar
    39    43    44   ar
    40    44    45   ar
    41    45    46   ar
    42    46    47   ar
    43    39    40   ar
    44    40    41   ar
    45    41    33   ar
    46     6     1   ar
    47    41    36   ar
    48    12     7    1
    49    47    42   ar
    50    20    15   ar
    51    30    31    1
    52    23    24    1
@<TRIPOS>MOLECULE
*****
 47 52 0 0 0
SMALL
GASTEIGER

@<TRIPOS>ATOM
      1 C         -25.5077   49.8011   -9.1886 C.ar    1  UNL1        0.0702
      2 C         -25.5901   48.4555   -8.7996 C.ar    1  UNL1        0.0191
      3 C         -26.6803   47.6770   -9.1921 C.ar    1  UNL1        0.0356
      4 C         -27.6892   48.2425   -9.9924 C.ar    1  UNL1        0.1318
      5 N         -27.5726   49.5467  -10.3704 N.ar    1  UNL1       -0.2279
      6 C         -26.5215   50.3237   -9.9996 C.ar    1  UNL1        0.1149
      7 N         -28.8251   47.4635  -10.4353 N.pl3   1  UNL1       -0.2932
      8 C         -28.7238   46.0044  -10.5829 C.3     1  UNL1        0.0923
      9 C         -29.7212   45.3136   -9.6448 C.3     1  UNL1        0.0252
     10 C         -31.1255   45.9884   -9.6234 C.3     1  UNL1        0.0472
     11 C         -31.2690   47.0651  -10.7249 C.3     1  UNL1        0.0252
     12 C         -30.1346   48.1013  -10.6559 C.3     1  UNL1        0.0923
     13 C         -31.4803   46.5730   -8.2380 C.3     1  UNL1        0.2054
     14 O         -30.3129   46.6928   -7.4189 O.3     1  UNL1       -0.4755
     15 C         -30.0270   47.7077   -6.4876 C.ar    1  UNL1        0.1384
     16 C         -30.7325   47.8739   -5.2789 C.ar    1  UNL1        0.0433
     17 C         -30.4047   48.9167   -4.3952 C.ar    1  UNL1        0.0782
     18 C         -29.3406   49.7760   -4.7152 C.ar    1  UNL1        0.0024
     19 C         -28.6186   49.6159   -5.9083 C.ar    1  UNL1       -0.0193
     20 C         -28.9736   48.5772   -6.7858 C.ar    1  UNL1        0.0326
     21 C         -31.1496   49.1046   -3.1258 C.2     1  UNL1        0.3381
     22 O         -31.4193   50.2683   -2.7254 O.2     1  UNL1       -0.2451
     23 O         -31.5809   48.0215   -2.3607 O.3     1  UNL1       -0.4771
     24 H         -31.4922   47.0640   -2.6745 H       1  UNL1        0.2954
     25 C         -27.4772   50.5611   -6.2373 C.3     1  UNL1        0.0225
     26 C         -26.6524   50.8875   -4.9867 C.3     1  UNL1        0.0047
     27 C         -27.9933   51.8399   -6.9077 C.3     1  UNL1        0.0047
     28 C         -23.4839   51.2159   -9.7792 C.2     1  UNL1        0.2839
     29 O         -23.4785   50.8235  -10.9770 O.2     1  UNL1       -0.2665
     30 N         -24.3870   50.6272   -8.8292 N.am    1  UNL1       -0.2766
     31 H         -24.1696   50.7374   -7.8127 H       1  UNL1        0.1553
     32 C         -23.6598   54.3617  -10.3672 C.3     1  UNL1        0.0345
     33 C         -22.6061   53.6283   -9.5931 C.ar    1  UNL1        0.0202
     34 C         -22.5327   52.2541   -9.3393 C.ar    1  UNL1        0.1946
     35 O         -21.4580   51.9841   -8.6197 O.2     1  UNL1       -0.4492
     36 C         -20.8303   53.1123   -8.3941 C.ar    1  UNL1        0.1452
     37 C         -19.6532   53.2942   -7.6766 C.ar    1  UNL1        0.0375
     38 C         -19.1500   54.6009   -7.5544 C.ar    1  UNL1        0.0031
     39 C         -19.8266   55.7007   -8.1478 C.ar    1  UNL1        0.0002
     40 C         -21.0221   55.4718   -8.8706 C.ar    1  UNL1        0.0028
     41 C         -21.4928   54.1618   -8.9722 C.ar    1  UNL1        0.0337
     42 C         -19.2854   57.0769   -8.0118 C.ar    1  UNL1        0.0000
     43 C         -18.5393   57.4435   -6.8755 C.ar    1  UNL1        0.0000
     44 C         -18.0308   58.7400   -6.7501 C.ar    1  UNL1        0.0000
     45 C         -18.2594   59.6829   -7.7545 C.ar    1  UNL1        0.0000
     46 C         -18.9975   59.3315   -8.8868 C.ar    1  UNL1        0.0000
     47 C         -19.5092   58.0368   -9.0172 C.ar    1  UNL1        0.0000
@<TRIPOS>BOND
     1    32    33    1
     2    33    34   ar
     3    34    28    1
     4    28    29    2
     5    28    30   am
     6    30     1    1
     7     1     2   ar
     8     2     3   ar
     9     3     4   ar
    10     4     7    1
    11     7     8    1
    12     8     9    1
    13     9    10    1
    14    10    13    1
    15    13    14    1
    16    14    15    1
    17    15    16   ar
    18    16    17   ar
    19    17    21    1
    20    21    22    2
    21    21    23    1
    22    17    18   ar
    23    18    19   ar
    24    19    25    1
    25    25    26    1
    26    25    27    1
    27    19    20   ar
    28    10    11    1
    29    11    12    1
    30     4     5   ar
    31     5     6   ar
    32    34    35   ar
    33    35    36   ar
    34    36    37   ar
    35    37    38   ar
    36    38    39   ar
    37    39    42    1
    38    42    43   ar
    39    43    44   ar
    40    44    45   ar
    41    45    46   ar
    42    46    47   ar
    43    39    40   ar
    44    40    41   ar
    45    41    33   ar
    46     6     1   ar
    47    41    36   ar
    48    12     7    1
    49    47    42   ar
    50    20    15   ar
    51    30    31    1
    52    23    24    1
@<TRIPOS>MOLECULE
*****
 47 52 0 0 0
SMALL
GASTEIGER

@<TRIPOS>ATOM
      1 C         -25.1357   49.4346   -9.0206 C.ar    1  UNL1        0.0702
      2 C         -25.4796   48.3685   -8.1756 C.ar    1  UNL1        0.0191
      3 C         -26.5096   47.4956   -8.5306 C.ar    1  UNL1        0.0356
      4 C         -27.1918   47.6797   -9.7468 C.ar    1  UNL1        0.1318
      5 N         -26.8230   48.7127  -10.5558 N.ar    1  UNL1       -0.2279
      6 C         -25.8248   49.5751  -10.2305 C.ar    1  UNL1        0.1149
      7 N         -28.2519   46.7856  -10.1590 N.pl3   1  UNL1       -0.2932
      8 C         -28.3798   45.4473   -9.5643 C.3     1  UNL1        0.0923
      9 C         -29.7321   45.3184   -8.8526 C.3     1  UNL1        0.0252
     10 C         -30.9212   45.9164   -9.6627 C.3     1  UNL1        0.0472
     11 C         -30.5076   46.3001  -11.1032 C.3     1  UNL1        0.0252
     12 C         -29.2831   47.2305  -11.1125 C.3     1  UNL1        0.0923
     13 C         -31.5824   47.1149   -8.9462 C.3     1  UNL1        0.2054
     14 O         -30.6564   47.7586   -8.0650 O.3     1  UNL1       -0.4755
     15 C         -30.0267   49.0024   -8.2529 C.ar    1  UNL1        0.1384
     16 C         -29.1975   49.6070   -7.2869 C.ar    1  UNL1        0.0433
     17 C         -28.6064   50.8585   -7.5318 C.ar    1  UNL1        0.0782
     18 C         -28.8253   51.4887   -8.7679 C.ar    1  UNL1        0.0024
     19 C         -29.6371   50.8939   -9.7466 C.ar    1  UNL1       -0.0193
     20 C         -30.2322   49.6502   -9.4747 C.ar    1  UNL1        0.0326
     21 C         -27.7407   51.5063   -6.5157 C.2     1  UNL1        0.3381
     22 O         -27.1996   50.8074   -5.6179 O.2     1  UNL1       -0.2451
     23 O         -27.4899   52.8779   -6.5322 O.3     1  UNL1       -0.4771
     24 H         -27.8041   53.4795   -7.2822 H       1  UNL1        0.2954
     25 C         -29.8660   51.5967  -11.0724 C.3     1  UNL1        0.0225
     26 C         -31.0752   51.0075  -11.8084 C.3     1  UNL1        0.0047
     27 C         -28.6088   51.5483  -11.9488 C.3     1  UNL1        0.0047
     28 C         -23.3355   51.0979   -9.6829 C.2     1  UNL1        0.2839
     29 O         -23.4345   50.8157  -10.9073 O.2     1  UNL1       -0.2665
     30 N         -24.0620   50.3372   -8.7041 N.am    1  UNL1       -0.2766
     31 H         -23.7377   50.3788   -7.7112 H       1  UNL1        0.1553
     32 C         -23.4699   54.1745  -10.5714 C.3     1  UNL1        0.0345
     33 C         -22.4952   53.5303   -9.6321 C.ar    1  UNL1        0.0202
     34 C         -22.4396   52.1859   -9.2473 C.ar    1  UNL1        0.1946
     35 O         -21.4413   51.9986   -8.4023 O.2     1  UNL1       -0.4492
     36 C         -20.8462   53.1519   -8.2196 C.ar    1  UNL1        0.1452
     37 C         -19.7486   53.4159   -7.4080 C.ar    1  UNL1        0.0375
     38 C         -19.2680   54.7358   -7.3564 C.ar    1  UNL1        0.0031
     39 C         -19.8879   55.7669   -8.1128 C.ar    1  UNL1        0.0002
     40 C         -21.0031   55.4554   -8.9272 C.ar    1  UNL1        0.0028
     41 C         -21.4534   54.1346   -8.9547 C.ar    1  UNL1        0.0337
     42 C         -19.3714   57.1578   -8.0501 C.ar    1  UNL1        0.0000
     43 C         -19.6711   58.0793   -9.0716 C.ar    1  UNL1        0.0000
     44 C         -19.1835   59.3884   -9.0100 C.ar    1  UNL1        0.0000
     45 C         -18.3941   59.7924   -7.9311 C.ar    1  UNL1        0.0000
     46 C         -18.0902   58.8880   -6.9113 C.ar    1  UNL1        0.0000
     47 C         -18.5743   57.5774   -6.9681 C.ar    1  UNL1        0.0000
@<TRIPOS>BOND
     1    32    33    1
     2    33    34   ar
     3    34    28    1
     4    28    29    2
     5    28    30   am
     6    30     1    1
     7     1     2   ar
     8     2     3   ar
     9     3     4   ar
    10     4     7    1
    11     7     8    1
    12     8     9    1
    13     9    10    1
    14    10    13    1
    15    13    14    1
    16    14    15    1
    17    15    16   ar
    18    16    17   ar
    19    17    21    1
    20    21    22    2
    21    21    23    1
    22    17    18   ar
    23    18    19   ar
    24    19    25    1
    25    25    26    1
    26    25    27    1
    27    19    20   ar
    28    10    11    1
    29    11    12    1
    30     4     5   ar
    31     5     6   ar
    32    34    35   ar
    33    35    36   ar
    34    36    37   ar
    35    37    38   ar
    36    38    39   ar
    37    39    42    1
    38    42    43   ar
    39    43    44   ar
    40    44    45   ar
    41    45    46   ar
    42    46    47   ar
    43    39    40   ar
    44    40    41   ar
    45    41    33   ar
    46     6     1   ar
    47    41    36   ar
    48    12     7    1
    49    47    42   ar
    50    20    15   ar
    51    30    31    1
    52    23    24    1
@<TRIPOS>MOLECULE
*****
 47 52 0 0 0
SMALL
GASTEIGER

@<TRIPOS>ATOM
      1 C         -27.1346   49.6981   -7.7522 C.ar    1  UNL1        0.0702
      2 C         -28.4145   50.1274   -8.1345 C.ar    1  UNL1        0.0191
      3 C         -29.5255   49.8046   -7.3534 C.ar    1  UNL1        0.0356
      4 C         -29.3552   49.0597   -6.1725 C.ar    1  UNL1        0.1318
      5 N         -28.0978   48.6726   -5.8169 N.ar    1  UNL1       -0.2279
      6 C         -27.0023   48.9742   -6.5618 C.ar    1  UNL1        0.1149
      7 N         -30.4789   48.7212   -5.3264 N.pl3   1  UNL1       -0.2932
      8 C         -31.5236   47.8006   -5.7975 C.3     1  UNL1        0.0923
      9 C         -31.5840   46.5681   -4.8869 C.3     1  UNL1        0.0252
     10 C         -31.4879   46.9100   -3.3697 C.3     1  UNL1        0.0472
     11 C         -31.5841   48.4321   -3.1104 C.3     1  UNL1        0.0252
     12 C         -30.5525   49.2147   -3.9402 C.3     1  UNL1        0.0923
     13 C         -30.2209   46.3220   -2.7094 C.3     1  UNL1        0.2054
     14 O         -29.4059   47.3584   -2.1529 O.3     1  UNL1       -0.4755
     15 C         -28.0547   47.6251   -2.4396 C.ar    1  UNL1        0.1384
     16 C         -27.0843   46.6181   -2.6146 C.ar    1  UNL1        0.0433
     17 C         -25.7466   46.9516   -2.8882 C.ar    1  UNL1        0.0782
     18 C         -25.3912   48.3043   -3.0182 C.ar    1  UNL1        0.0024
     19 C         -26.3481   49.3193   -2.8607 C.ar    1  UNL1       -0.0193
     20 C         -27.6766   48.9647   -2.5708 C.ar    1  UNL1        0.0326
     21 C         -24.7171   45.8975   -3.0633 C.2     1  UNL1        0.3381
     22 O         -25.0085   44.8337   -3.6721 O.2     1  UNL1       -0.2451
     23 O         -23.4168   46.0550   -2.5849 O.3     1  UNL1       -0.4771
     24 H         -23.0863   46.9222   -2.1826 H       1  UNL1        0.2954
     25 C         -25.9399   50.7750   -2.9980 C.3     1  UNL1        0.0225
     26 C         -25.7666   51.1635   -4.4711 C.3     1  UNL1        0.0047
     27 C         -24.6674   51.0710   -2.1954 C.3     1  UNL1        0.0047
     28 C         -25.5135   51.3799   -8.7469 C.2     1  UNL1        0.2839
     29 O         -26.2761   52.3542   -8.5067 O.2     1  UNL1       -0.2665
     30 N         -25.9626   50.0350   -8.5143 N.am    1  UNL1       -0.2766
     31 H         -25.4550   49.2583   -8.9956 H       1  UNL1        0.1553
     32 C         -22.7091   50.5281   -7.4497 C.3     1  UNL1        0.0345
     33 C         -22.9430   51.2457   -8.7450 C.ar    1  UNL1        0.0202
     34 C         -24.1696   51.6165   -9.3076 C.ar    1  UNL1        0.1946
     35 O         -23.9709   52.2313  -10.4600 O.2     1  UNL1       -0.4492
     36 C         -22.6787   52.2790  -10.6737 C.ar    1  UNL1        0.1452
     37 C         -22.0241   52.8358  -11.7667 C.ar    1  UNL1        0.0375
     38 C         -20.6201   52.7754  -11.7964 C.ar    1  UNL1        0.0031
     39 C         -19.8947   52.1628  -10.7390 C.ar    1  UNL1        0.0002
     40 C         -20.6000   51.6083   -9.6440 C.ar    1  UNL1        0.0028
     41 C         -21.9935   51.6863   -9.6471 C.ar    1  UNL1        0.0337
     42 C         -18.4115   52.1048  -10.7814 C.ar    1  UNL1        0.0000
     43 C         -17.7210   52.3188  -11.9897 C.ar    1  UNL1        0.0000
     44 C         -16.3243   52.2637  -12.0267 C.ar    1  UNL1        0.0000
     45 C         -15.6022   51.9962  -10.8617 C.ar    1  UNL1        0.0000
     46 C         -16.2753   51.7826   -9.6568 C.ar    1  UNL1        0.0000
     47 C         -17.6719   51.8356   -9.6140 C.ar    1  UNL1        0.0000
@<TRIPOS>BOND
     1    32    33    1
     2    33    34   ar
     3    34    28    1
     4    28    29    2
     5    28    30   am
     6    30     1    1
     7     1     2   ar
     8     2     3   ar
     9     3     4   ar
    10     4     7    1
    11     7     8    1
    12     8     9    1
    13     9    10    1
    14    10    13    1
    15    13    14    1
    16    14    15    1
    17    15    16   ar
    18    16    17   ar
    19    17    21    1
    20    21    22    2
    21    21    23    1
    22    17    18   ar
    23    18    19   ar
    24    19    25    1
    25    25    26    1
    26    25    27    1
    27    19    20   ar
    28    10    11    1
    29    11    12    1
    30     4     5   ar
    31     5     6   ar
    32    34    35   ar
    33    35    36   ar
    34    36    37   ar
    35    37    38   ar
    36    38    39   ar
    37    39    42    1
    38    42    43   ar
    39    43    44   ar
    40    44    45   ar
    41    45    46   ar
    42    46    47   ar
    43    39    40   ar
    44    40    41   ar
    45    41    33   ar
    46     6     1   ar
    47    41    36   ar
    48    12     7    1
    49    47    42   ar
    50    20    15   ar
    51    30    31    1
    52    23    24    1
@<TRIPOS>MOLECULE
*****
 47 52 0 0 0
SMALL
GASTEIGER

@<TRIPOS>ATOM
      1 C         -26.0328   49.6433   -9.4462 C.ar    1  UNL1        0.0702
      2 C         -25.9078   48.3135   -9.0164 C.ar    1  UNL1        0.0191
      3 C         -26.9236   47.3926   -9.2788 C.ar    1  UNL1        0.0356
      4 C         -28.0670   47.7991   -9.9898 C.ar    1  UNL1        0.1318
      5 N         -28.1520   49.0925  -10.4110 N.ar    1  UNL1       -0.2279
      6 C         -27.1767   50.0063  -10.1662 C.ar    1  UNL1        0.1149
      7 N         -29.1326   46.8703  -10.2979 N.pl3   1  UNL1       -0.2932
      8 C         -28.8838   45.4216  -10.3191 C.3     1  UNL1        0.0923
      9 C         -29.7588   44.7255   -9.2694 C.3     1  UNL1        0.0252
     10 C         -31.2244   45.2532   -9.2318 C.3     1  UNL1        0.0472
     11 C         -31.5310   46.2001  -10.4161 C.3     1  UNL1        0.0252
     12 C         -30.5111   47.3479  -10.5029 C.3     1  UNL1        0.0923
     13 C         -31.5763   45.9279   -7.8872 C.3     1  UNL1        0.2054
     14 O         -30.5736   45.6593   -6.9021 O.3     1  UNL1       -0.4755
     15 C         -29.5422   46.5184   -6.4811 C.ar    1  UNL1        0.1384
     16 C         -28.4037   46.0783   -5.7765 C.ar    1  UNL1        0.0433
     17 C         -27.4131   46.9904   -5.3737 C.ar    1  UNL1        0.0782
     18 C         -27.5540   48.3469   -5.7103 C.ar    1  UNL1        0.0024
     19 C         -28.6748   48.7998   -6.4238 C.ar    1  UNL1       -0.0193
     20 C         -29.6618   47.8738   -6.8023 C.ar    1  UNL1        0.0326
     21 C         -26.2168   46.5364   -4.6224 C.2     1  UNL1        0.3381
     22 O         -26.1874   46.6462   -3.3677 O.2     1  UNL1       -0.2451
     23 O         -25.1174   45.9696   -5.2662 O.3     1  UNL1       -0.4771
     24 H         -25.1167   45.7549   -6.2547 H       1  UNL1        0.2954
     25 C         -28.8101   50.2716   -6.7701 C.3     1  UNL1        0.0225
     26 C         -28.2046   51.1551   -5.6729 C.3     1  UNL1        0.0047
     27 C         -30.2732   50.6456   -7.0354 C.3     1  UNL1        0.0047
     28 C         -24.2212   51.2212  -10.2674 C.2     1  UNL1        0.2839
     29 O         -24.2379   50.7380  -11.4314 O.2     1  UNL1       -0.2665
     30 N         -24.9960   50.6138   -9.2208 N.am    1  UNL1       -0.2766
     31 H         -24.7361   50.8276   -8.2311 H       1  UNL1        0.1553
     32 C         -22.0622   51.4766   -7.9123 C.3     1  UNL1        0.0345
     33 C         -22.4283   52.5050   -8.9398 C.ar    1  UNL1        0.0202
     34 C         -23.3724   52.3896   -9.9663 C.ar    1  UNL1        0.1946
     35 O         -23.4125   53.5063  -10.6712 O.2     1  UNL1       -0.4492
     36 C         -22.5435   54.3403  -10.1545 C.ar    1  UNL1        0.1452
     37 C         -22.2550   55.6312  -10.5831 C.ar    1  UNL1        0.0375
     38 C         -21.2777   56.3570   -9.8803 C.ar    1  UNL1        0.0031
     39 C         -20.6069   55.7853   -8.7655 C.ar    1  UNL1        0.0002
     40 C         -20.9310   54.4679   -8.3616 C.ar    1  UNL1        0.0028
     41 C         -21.9062   53.7765   -9.0819 C.ar    1  UNL1        0.0337
     42 C         -19.5760   56.5618   -8.0309 C.ar    1  UNL1        0.0000
     43 C         -18.7277   55.9271   -7.1035 C.ar    1  UNL1        0.0000
     44 C         -17.7578   56.6607   -6.4133 C.ar    1  UNL1        0.0000
     45 C         -17.6228   58.0320   -6.6403 C.ar    1  UNL1        0.0000
     46 C         -18.4578   58.6732   -7.5579 C.ar    1  UNL1        0.0000
     47 C         -19.4301   57.9448   -8.2504 C.ar    1  UNL1        0.0000
@<TRIPOS>BOND
     1    32    33    1
     2    33    34   ar
     3    34    28    1
     4    28    29    2
     5    28    30   am
     6    30     1    1
     7     1     2   ar
     8     2     3   ar
     9     3     4   ar
    10     4     7    1
    11     7     8    1
    12     8     9    1
    13     9    10    1
    14    10    13    1
    15    13    14    1
    16    14    15    1
    17    15    16   ar
    18    16    17   ar
    19    17    21    1
    20    21    22    2
    21    21    23    1
    22    17    18   ar
    23    18    19   ar
    24    19    25    1
    25    25    26    1
    26    25    27    1
    27    19    20   ar
    28    10    11    1
    29    11    12    1
    30     4     5   ar
    31     5     6   ar
    32    34    35   ar
    33    35    36   ar
    34    36    37   ar
    35    37    38   ar
    36    38    39   ar
    37    39    42    1
    38    42    43   ar
    39    43    44   ar
    40    44    45   ar
    41    45    46   ar
    42    46    47   ar
    43    39    40   ar
    44    40    41   ar
    45    41    33   ar
    46     6     1   ar
    47    41    36   ar
    48    12     7    1
    49    47    42   ar
    50    20    15   ar
    51    30    31    1
    52    23    24    1
