@<TRIPOS>MOLECULE
*****
 42 46 0 0 0
SMALL
GASTEIGER

@<TRIPOS>ATOM
      1 C          -7.4506  -13.6716   28.1488 C.ar    1  UNL1        0.0922
      2 C          -8.6683  -14.0425   28.7636 C.ar    1  UNL1        0.0284
      3 C          -9.1845  -13.2188   29.7608 C.ar    1  UNL1        0.1033
      4 N         -10.3362  -13.3846   30.4349 N.ar    1  UNL1       -0.2134
      5 C         -10.3538  -12.3150   31.2733 C.ar    1  UNL1        0.2019
      6 N          -9.2652  -11.5081   31.1506 N.ar    1  UNL1       -0.2950
      7 C          -8.9641  -10.2765   31.8803 C.3     1  UNL1        0.1333
      8 C          -8.5417  -12.0876   30.1745 C.ar    1  UNL1        0.1173
      9 C          -7.3246  -11.6963   29.6108 C.ar    1  UNL1        0.1897
     10 C          -6.7823  -12.4916   28.5796 C.ar    1  UNL1        0.1782
     11 O          -5.5632  -12.0993   28.0143 O.3     1  UNL1       -0.4682
     12 C          -5.0322  -10.7892   28.2214 C.3     1  UNL1        0.2526
     13 C          -5.2675  -10.3460   29.6697 C.3     1  UNL1        0.2527
     14 O          -6.6324  -10.5582   30.0357 O.3     1  UNL1       -0.4669
     15 N          -7.6028  -14.7082   25.8414 N.am    1  UNL1       -0.2806
     16 C          -6.8934  -14.5224   27.0758 C.2     1  UNL1        0.2526
     17 O          -5.7879  -15.1016   27.2592 O.2     1  UNL1       -0.2697
     18 H          -8.6035  -14.4162   25.7766 H       1  UNL1        0.1552
     19 C          -7.7554  -16.3596   23.9738 C.ar    1  UNL1       -0.0029
     20 C          -7.0179  -15.3946   24.7247 C.ar    1  UNL1        0.0466
     21 C          -5.6922  -15.1011   24.4024 C.ar    1  UNL1        0.0166
     22 C          -5.0653  -15.7401   23.3482 C.ar    1  UNL1        0.0308
     23 C          -5.7687  -16.6345   22.5518 C.ar    1  UNL1        0.1438
     24 F          -5.0862  -17.2402   21.5460 F       1  UNL1       -0.2042
     25 C          -7.1403  -16.9059   22.7875 C.ar    1  UNL1        0.0960
     26 C          -7.8614  -17.7991   21.7819 C.3     1  UNL1        0.4204
     27 F          -8.2014  -18.9989   22.3774 F       1  UNL1       -0.1658
     28 F          -7.0660  -18.0802   20.6844 F       1  UNL1       -0.1658
     29 F          -8.9859  -17.1853   21.2776 F       1  UNL1       -0.1658
     30 C          -9.3781  -18.1611   24.9552 C.3     1  UNL1        0.0047
     31 C          -9.1682  -16.7135   24.4842 C.3     1  UNL1        0.0236
     32 C         -10.2728  -16.2290   23.5355 C.3     1  UNL1        0.0047
     33 N         -11.4503  -12.0459   32.1599 N.pl3   1  UNL1       -0.2814
     34 H         -11.9928  -11.1633   32.0321 H       1  UNL1        0.1551
     35 C         -12.0134  -13.0614   33.0029 C.ar    1  UNL1        0.0889
     36 C         -13.2793  -13.5871   32.6947 C.ar    1  UNL1        0.1543
     37 F         -13.9531  -13.1514   31.6005 F       1  UNL1       -0.2028
     38 C         -13.8462  -14.5791   33.4999 C.ar    1  UNL1        0.0310
     39 C         -13.1626  -15.0439   34.6250 C.ar    1  UNL1        0.0033
     40 C         -11.9147  -14.5106   34.9550 C.ar    1  UNL1        0.0128
     41 C         -11.3370  -13.5168   34.1556 C.ar    1  UNL1        0.0733
     42 CL         -9.8079  -12.8124   34.6683 Cl      1  UNL1       -0.0809
@<TRIPOS>BOND
     1    30    31    1
     2    31    32    1
     3    31    19    1
     4    19    20   ar
     5    20    15    1
     6    15    16   am
     7    16    17    2
     8    16     1    1
     9     1     2   ar
    10     2     3   ar
    11     3     4   ar
    12     4     5   ar
    13     5    33    1
    14    33    35    1
    15    35    36   ar
    16    36    37    1
    17    36    38   ar
    18    38    39   ar
    19    39    40   ar
    20    40    41   ar
    21    41    42    1
    22     5     6   ar
    23     6     7    1
    24     6     8   ar
    25     8     9   ar
    26     9    10   ar
    27    10    11    1
    28    11    12    1
    29    12    13    1
    30    13    14    1
    31    20    21   ar
    32    21    22   ar
    33    22    23   ar
    34    23    24    1
    35    23    25   ar
    36    25    26    1
    37    26    27    1
    38    26    28    1
    39    26    29    1
    40    25    19   ar
    41    10     1   ar
    42     8     3   ar
    43    14     9    1
    44    41    35   ar
    45    15    18    1
    46    33    34    1
@<TRIPOS>MOLECULE
*****
 42 46 0 0 0
SMALL
GASTEIGER

@<TRIPOS>ATOM
      1 C          -7.0746  -12.6663   28.8084 C.ar    1  UNL1        0.0922
      2 C          -8.2744  -13.1966   29.3356 C.ar    1  UNL1        0.0284
      3 C          -8.8556  -12.5596   30.4290 C.ar    1  UNL1        0.1033
      4 N         -10.0034  -12.8919   31.0459 N.ar    1  UNL1       -0.2134
      5 C         -10.1008  -11.9584   32.0291 C.ar    1  UNL1        0.2019
      6 N          -9.0644  -11.0771   32.0487 N.ar    1  UNL1       -0.2950
      7 C          -8.8527   -9.9484   32.9548 C.3     1  UNL1        0.1333
      8 C          -8.2922  -11.4632   31.0159 C.ar    1  UNL1        0.1173
      9 C          -7.0951  -10.9203   30.5422 C.ar    1  UNL1        0.1897
     10 C          -6.4890  -11.5226   29.4197 C.ar    1  UNL1        0.1782
     11 O          -5.2900  -10.9784   28.9447 O.3     1  UNL1       -0.4682
     12 C          -4.8468   -9.6822   29.3503 C.3     1  UNL1        0.2526
     13 C          -5.1295   -9.4694   30.8416 C.3     1  UNL1        0.2527
     14 O          -6.4829   -9.8157   31.1422 O.3     1  UNL1       -0.4669
     15 N          -6.9216  -14.5865   27.1618 N.am    1  UNL1       -0.2806
     16 C          -6.4497  -13.3165   27.6369 C.2     1  UNL1        0.2526
     17 O          -5.4804  -12.7504   27.0613 O.2     1  UNL1       -0.2697
     18 H          -7.5639  -15.1513   27.7613 H       1  UNL1        0.1552
     19 C          -7.3314  -15.8094   25.0228 C.ar    1  UNL1       -0.0029
     20 C          -6.4446  -15.1651   25.9379 C.ar    1  UNL1        0.0466
     21 C          -5.0759  -15.0938   25.6748 C.ar    1  UNL1        0.0166
     22 C          -4.5505  -15.6466   24.5210 C.ar    1  UNL1        0.0308
     23 C          -5.3881  -16.2216   23.5741 C.ar    1  UNL1        0.1438
     24 F          -4.8035  -16.7623   22.4742 F       1  UNL1       -0.2042
     25 C          -6.7941  -16.2469   23.7563 C.ar    1  UNL1        0.0960
     26 C          -7.6412  -16.7795   22.6040 C.3     1  UNL1        0.4204
     27 F          -8.3411  -17.8987   23.0128 F       1  UNL1       -0.1658
     28 F          -6.8608  -17.1396   21.5188 F       1  UNL1       -0.1658
     29 F          -8.5117  -15.8223   22.1335 F       1  UNL1       -0.1658
     30 C          -9.2246  -17.3374   25.9835 C.3     1  UNL1        0.0047
     31 C          -8.8044  -15.9551   25.4599 C.3     1  UNL1        0.0236
     32 C          -9.7826  -15.3877   24.4226 C.3     1  UNL1        0.0047
     33 N         -11.2241  -11.8887   32.9201 N.pl3   1  UNL1       -0.2814
     34 H         -11.6357  -10.9538   33.1350 H       1  UNL1        0.1551
     35 C         -11.9824  -13.0525   33.2803 C.ar    1  UNL1        0.0889
     36 C         -11.5087  -13.8930   34.3016 C.ar    1  UNL1        0.1543
     37 F         -10.3557  -13.5961   34.9522 F       1  UNL1       -0.2028
     38 C         -12.2322  -15.0304   34.6713 C.ar    1  UNL1        0.0310
     39 C         -13.4245  -15.3459   34.0171 C.ar    1  UNL1        0.0033
     40 C         -13.8919  -14.5311   32.9834 C.ar    1  UNL1        0.0128
     41 C         -13.1757  -13.3891   32.6048 C.ar    1  UNL1        0.0733
     42 CL        -13.7582  -12.4504   31.2349 Cl      1  UNL1       -0.0809
@<TRIPOS>BOND
     1    30    31    1
     2    31    32    1
     3    31    19    1
     4    19    20   ar
     5    20    15    1
     6    15    16   am
     7    16    17    2
     8    16     1    1
     9     1     2   ar
    10     2     3   ar
    11     3     4   ar
    12     4     5   ar
    13     5    33    1
    14    33    35    1
    15    35    36   ar
    16    36    37    1
    17    36    38   ar
    18    38    39   ar
    19    39    40   ar
    20    40    41   ar
    21    41    42    1
    22     5     6   ar
    23     6     7    1
    24     6     8   ar
    25     8     9   ar
    26     9    10   ar
    27    10    11    1
    28    11    12    1
    29    12    13    1
    30    13    14    1
    31    20    21   ar
    32    21    22   ar
    33    22    23   ar
    34    23    24    1
    35    23    25   ar
    36    25    26    1
    37    26    27    1
    38    26    28    1
    39    26    29    1
    40    25    19   ar
    41    10     1   ar
    42     8     3   ar
    43    14     9    1
    44    41    35   ar
    45    15    18    1
    46    33    34    1
@<TRIPOS>MOLECULE
*****
 42 46 0 0 0
SMALL
GASTEIGER

@<TRIPOS>ATOM
      1 C          -7.3377  -13.7057   28.0423 C.ar    1  UNL1        0.0922
      2 C          -8.5320  -14.0100   28.7347 C.ar    1  UNL1        0.0284
      3 C          -8.9733  -13.1243   29.7146 C.ar    1  UNL1        0.1033
      4 N         -10.0930  -13.2230   30.4527 N.ar    1  UNL1       -0.2134
      5 C         -10.0379  -12.1144   31.2373 C.ar    1  UNL1        0.2019
      6 N          -8.9351  -11.3475   31.0207 N.ar    1  UNL1       -0.2950
      7 C          -8.5630  -10.0920   31.6728 C.3     1  UNL1        0.1333
      8 C          -8.2790  -11.9945   30.0394 C.ar    1  UNL1        0.1173
      9 C          -7.0822  -11.6675   29.3970 C.ar    1  UNL1        0.1897
     10 C          -6.6157  -12.5271   28.3803 C.ar    1  UNL1        0.1782
     11 O          -5.4170  -12.1992   27.7362 O.3     1  UNL1       -0.4682
     12 C          -4.8401  -10.8973   27.8516 C.3     1  UNL1        0.2526
     13 C          -4.9882  -10.3785   29.2863 C.3     1  UNL1        0.2527
     14 O          -6.3379  -10.5317   29.7301 O.3     1  UNL1       -0.4669
     15 N          -7.4965  -14.6585   25.6994 N.am    1  UNL1       -0.2806
     16 C          -6.8602  -14.6233   26.9860 C.2     1  UNL1        0.2526
     17 O          -5.8907  -15.3929   27.2294 O.2     1  UNL1       -0.2697
     18 H          -8.4225  -14.1922   25.5729 H       1  UNL1        0.1552
     19 C          -7.7471  -16.3888   23.9156 C.ar    1  UNL1       -0.0029
     20 C          -6.9596  -15.4184   24.6065 C.ar    1  UNL1        0.0466
     21 C          -5.6304  -15.1913   24.2472 C.ar    1  UNL1        0.0166
     22 C          -5.0485  -15.9027   23.2137 C.ar    1  UNL1        0.0308
     23 C          -5.8001  -16.8060   22.4734 C.ar    1  UNL1        0.1438
     24 F          -5.1605  -17.4838   21.4858 F       1  UNL1       -0.2042
     25 C          -7.1760  -17.0134   22.7461 C.ar    1  UNL1        0.0960
     26 C          -7.9495  -17.9246   21.7971 C.3     1  UNL1        0.4204
     27 F          -8.2997  -19.0925   22.4475 F       1  UNL1       -0.1658
     28 F          -7.1956  -18.2663   20.6875 F       1  UNL1       -0.1658
     29 F          -9.0739  -17.3016   21.3042 F       1  UNL1       -0.1658
     30 C          -9.4204  -18.0828   24.9984 C.3     1  UNL1        0.0047
     31 C          -9.1619  -16.6641   24.4673 C.3     1  UNL1        0.0236
     32 C         -10.2659  -16.1708   23.5225 C.3     1  UNL1        0.0047
     33 N         -11.0795  -11.7704   32.1632 N.pl3   1  UNL1       -0.2814
     34 H         -11.6181  -10.8900   32.0068 H       1  UNL1        0.1551
     35 C         -11.6060  -12.7190   33.1024 C.ar    1  UNL1        0.0889
     36 C         -10.7821  -13.1918   34.1374 C.ar    1  UNL1        0.1543
     37 F          -9.5079  -12.7413   34.2577 F       1  UNL1       -0.2028
     38 C         -11.2746  -14.1138   35.0656 C.ar    1  UNL1        0.0310
     39 C         -12.5858  -14.5815   34.9607 C.ar    1  UNL1        0.0033
     40 C         -13.4057  -14.1373   33.9209 C.ar    1  UNL1        0.0128
     41 C         -12.9233  -13.2137   32.9856 C.ar    1  UNL1        0.0733
     42 CL        -13.9652  -12.7594   31.6420 Cl      1  UNL1       -0.0809
@<TRIPOS>BOND
     1    30    31    1
     2    31    32    1
     3    31    19    1
     4    19    20   ar
     5    20    15    1
     6    15    16   am
     7    16    17    2
     8    16     1    1
     9     1     2   ar
    10     2     3   ar
    11     3     4   ar
    12     4     5   ar
    13     5    33    1
    14    33    35    1
    15    35    36   ar
    16    36    37    1
    17    36    38   ar
    18    38    39   ar
    19    39    40   ar
    20    40    41   ar
    21    41    42    1
    22     5     6   ar
    23     6     7    1
    24     6     8   ar
    25     8     9   ar
    26     9    10   ar
    27    10    11    1
    28    11    12    1
    29    12    13    1
    30    13    14    1
    31    20    21   ar
    32    21    22   ar
    33    22    23   ar
    34    23    24    1
    35    23    25   ar
    36    25    26    1
    37    26    27    1
    38    26    28    1
    39    26    29    1
    40    25    19   ar
    41    10     1   ar
    42     8     3   ar
    43    14     9    1
    44    41    35   ar
    45    15    18    1
    46    33    34    1
@<TRIPOS>MOLECULE
*****
 42 46 0 0 0
SMALL
GASTEIGER

@<TRIPOS>ATOM
      1 C          -7.6197  -15.1956   26.5664 C.ar    1  UNL1        0.0922
      2 C          -6.3496  -14.7400   26.1447 C.ar    1  UNL1        0.0284
      3 C          -5.8090  -15.2730   24.9773 C.ar    1  UNL1        0.1033
      4 N          -4.6382  -14.9461   24.4023 N.ar    1  UNL1       -0.2134
      5 C          -4.6025  -15.7512   23.3077 C.ar    1  UNL1        0.2019
      6 N          -5.6901  -16.5602   23.1902 N.ar    1  UNL1       -0.2950
      7 C          -5.9843  -17.5350   22.1400 C.3     1  UNL1        0.1333
      8 C          -6.4534  -16.2315   24.2493 C.ar    1  UNL1        0.1173
      9 C          -7.6991  -16.7273   24.6422 C.ar    1  UNL1        0.1897
     10 C          -8.2912  -16.1933   25.8060 C.ar    1  UNL1        0.1782
     11 O          -9.5396  -16.6895   26.1994 O.3     1  UNL1       -0.4682
     12 C         -10.3487  -17.4625   25.3112 C.3     1  UNL1        0.2526
     13 C          -9.4737  -18.4272   24.5031 C.3     1  UNL1        0.2527
     14 O          -8.3669  -17.7282   23.9302 O.3     1  UNL1       -0.4669
     15 N          -7.8111  -13.3462   28.2884 N.am    1  UNL1       -0.2806
     16 C          -8.2201  -14.6304   27.7935 C.2     1  UNL1        0.2526
     17 O          -9.0913  -15.2965   28.4172 O.2     1  UNL1       -0.2697
     18 H          -6.9465  -12.9017   27.9065 H       1  UNL1        0.1552
     19 C          -7.8338  -11.7137   30.1787 C.ar    1  UNL1       -0.0029
     20 C          -8.4846  -12.7028   29.3804 C.ar    1  UNL1        0.0466
     21 C          -9.7985  -13.0872   29.6516 C.ar    1  UNL1        0.0166
     22 C         -10.4971  -12.5174   30.7004 C.ar    1  UNL1        0.0308
     23 C          -9.9232  -11.5042   31.4573 C.ar    1  UNL1        0.1438
     24 F         -10.6580  -11.0032   32.4835 F       1  UNL1       -0.2042
     25 C          -8.6212  -11.0212   31.1708 C.ar    1  UNL1        0.0960
     26 C          -8.1276   -9.8186   31.9703 C.3     1  UNL1        0.4204
     27 F          -7.4008  -10.2475   33.0646 F       1  UNL1       -0.1658
     28 F          -9.1784   -9.0464   32.4346 F       1  UNL1       -0.1658
     29 F          -7.3629   -8.9766   31.1945 F       1  UNL1       -0.1658
     30 C          -5.3986  -11.4644   31.1005 C.3     1  UNL1        0.0047
     31 C          -6.3414  -11.4493   29.8871 C.3     1  UNL1        0.0236
     32 C          -6.1283  -10.2289   28.9815 C.3     1  UNL1        0.0047
     33 N          -3.5373  -15.7021   22.3466 N.pl3   1  UNL1       -0.2814
     34 H          -2.9658  -14.8314   22.2765 H       1  UNL1        0.1551
     35 C          -3.0384  -16.8837   21.7033 C.ar    1  UNL1        0.0889
     36 C          -2.2476  -17.7841   22.4366 C.ar    1  UNL1        0.1543
     37 F          -1.9748  -17.5470   23.7444 F       1  UNL1       -0.2028
     38 C          -1.7532  -18.9432   21.8315 C.ar    1  UNL1        0.0310
     39 C          -2.0312  -19.2060   20.4888 C.ar    1  UNL1        0.0033
     40 C          -2.7954  -18.3052   19.7435 C.ar    1  UNL1        0.0128
     41 C          -3.2961  -17.1411   20.3392 C.ar    1  UNL1        0.0733
     42 CL         -4.1721  -15.9943   19.3319 Cl      1  UNL1       -0.0809
@<TRIPOS>BOND
     1    30    31    1
     2    31    32    1
     3    31    19    1
     4    19    20   ar
     5    20    15    1
     6    15    16   am
     7    16    17    2
     8    16     1    1
     9     1     2   ar
    10     2     3   ar
    11     3     4   ar
    12     4     5   ar
    13     5    33    1
    14    33    35    1
    15    35    36   ar
    16    36    37    1
    17    36    38   ar
    18    38    39   ar
    19    39    40   ar
    20    40    41   ar
    21    41    42    1
    22     5     6   ar
    23     6     7    1
    24     6     8   ar
    25     8     9   ar
    26     9    10   ar
    27    10    11    1
    28    11    12    1
    29    12    13    1
    30    13    14    1
    31    20    21   ar
    32    21    22   ar
    33    22    23   ar
    34    23    24    1
    35    23    25   ar
    36    25    26    1
    37    26    27    1
    38    26    28    1
    39    26    29    1
    40    25    19   ar
    41    10     1   ar
    42     8     3   ar
    43    14     9    1
    44    41    35   ar
    45    15    18    1
    46    33    34    1
@<TRIPOS>MOLECULE
*****
 42 46 0 0 0
SMALL
GASTEIGER

@<TRIPOS>ATOM
      1 C          -8.6023  -15.8598   26.6404 C.ar    1  UNL1        0.0922
      2 C          -9.4087  -15.2248   27.6125 C.ar    1  UNL1        0.0284
      3 C          -8.8746  -14.1472   28.3144 C.ar    1  UNL1        0.1033
      4 N          -9.4916  -13.4003   29.2470 N.ar    1  UNL1       -0.2134
      5 C          -8.5340  -12.5021   29.5988 C.ar    1  UNL1        0.2019
      6 N          -7.3592  -12.6688   28.9330 N.ar    1  UNL1       -0.2950
      7 C          -6.1312  -11.8829   29.0526 C.3     1  UNL1        0.1333
      8 C          -7.5986  -13.7067   28.1099 C.ar    1  UNL1        0.1173
      9 C          -6.7594  -14.3197   27.1761 C.ar    1  UNL1        0.1897
     10 C          -7.2732  -15.3989   26.4267 C.ar    1  UNL1        0.1782
     11 O          -6.4327  -16.0127   25.4907 O.3     1  UNL1       -0.4682
     12 C          -5.2194  -15.3942   25.0590 C.3     1  UNL1        0.2526
     13 C          -4.5171  -14.7229   26.2445 C.3     1  UNL1        0.2527
     14 O          -5.4402  -13.9062   26.9675 O.3     1  UNL1       -0.4669
     15 N          -9.6890  -16.7993   24.5527 N.am    1  UNL1       -0.2806
     16 C          -9.1553  -16.9948   25.8712 C.2     1  UNL1        0.2526
     17 O          -9.1693  -18.1440   26.3913 O.2     1  UNL1       -0.2697
     18 H          -9.8797  -15.8292   24.2158 H       1  UNL1        0.1552
     19 C          -9.9305  -17.8571   22.3029 C.ar    1  UNL1       -0.0029
     20 C         -10.0846  -17.9009   23.7218 C.ar    1  UNL1        0.0466
     21 C         -10.6439  -19.0175   24.3447 C.ar    1  UNL1        0.0166
     22 C         -11.0608  -20.1051   23.5991 C.ar    1  UNL1        0.0308
     23 C         -10.8660  -20.1294   22.2242 C.ar    1  UNL1        0.1438
     24 F         -11.3167  -21.2198   21.5521 F       1  UNL1       -0.2042
     25 C         -10.2287  -19.0546   21.5539 C.ar    1  UNL1        0.0960
     26 C          -9.9404  -19.2286   20.0654 C.3     1  UNL1        0.4204
     27 F         -10.7022  -18.3394   19.3315 F       1  UNL1       -0.1658
     28 F         -10.2445  -20.5073   19.6311 F       1  UNL1       -0.1658
     29 F          -8.6041  -19.0500   19.7863 F       1  UNL1       -0.1658
     30 C          -8.2626  -15.8459   22.4274 C.3     1  UNL1        0.0047
     31 C          -9.4257  -16.5319   21.6938 C.3     1  UNL1        0.0236
     32 C         -10.5708  -15.5671   21.3582 C.3     1  UNL1        0.0047
     33 N          -8.7722  -11.4491   30.5449 N.pl3   1  UNL1       -0.2814
     34 H          -9.0331  -10.5038   30.1872 H       1  UNL1        0.1551
     35 C          -8.9625  -11.7114   31.9428 C.ar    1  UNL1        0.0889
     36 C         -10.1246  -12.3783   32.3655 C.ar    1  UNL1        0.1543
     37 F         -11.0476  -12.7860   31.4584 F       1  UNL1       -0.2028
     38 C         -10.3296  -12.6473   33.7218 C.ar    1  UNL1        0.0310
     39 C          -9.3859  -12.2415   34.6672 C.ar    1  UNL1        0.0033
     40 C          -8.2391  -11.5556   34.2608 C.ar    1  UNL1        0.0128
     41 C          -8.0230  -11.2810   32.9049 C.ar    1  UNL1        0.0733
     42 CL         -6.6103  -10.3320   32.4567 Cl      1  UNL1       -0.0809
@<TRIPOS>BOND
     1    30    31    1
     2    31    32    1
     3    31    19    1
     4    19    20   ar
     5    20    15    1
     6    15    16   am
     7    16    17    2
     8    16     1    1
     9     1     2   ar
    10     2     3   ar
    11     3     4   ar
    12     4     5   ar
    13     5    33    1
    14    33    35    1
    15    35    36   ar
    16    36    37    1
    17    36    38   ar
    18    38    39   ar
    19    39    40   ar
    20    40    41   ar
    21    41    42    1
    22     5     6   ar
    23     6     7    1
    24     6     8   ar
    25     8     9   ar
    26     9    10   ar
    27    10    11    1
    28    11    12    1
    29    12    13    1
    30    13    14    1
    31    20    21   ar
    32    21    22   ar
    33    22    23   ar
    34    23    24    1
    35    23    25   ar
    36    25    26    1
    37    26    27    1
    38    26    28    1
    39    26    29    1
    40    25    19   ar
    41    10     1   ar
    42     8     3   ar
    43    14     9    1
    44    41    35   ar
    45    15    18    1
    46    33    34    1
@<TRIPOS>MOLECULE
*****
 42 46 0 0 0
SMALL
GASTEIGER

@<TRIPOS>ATOM
      1 C          -8.5646  -15.8492   26.6125 C.ar    1  UNL1        0.0922
      2 C          -9.2936  -15.2260   27.6510 C.ar    1  UNL1        0.0284
      3 C          -8.6958  -14.1743   28.3409 C.ar    1  UNL1        0.1033
      4 N          -9.2367  -13.4412   29.3300 N.ar    1  UNL1       -0.2134
      5 C          -8.2426  -12.5668   29.6381 C.ar    1  UNL1        0.2019
      6 N          -7.1177  -12.7352   28.8915 N.ar    1  UNL1       -0.2950
      7 C          -5.8713  -11.9715   28.9472 C.3     1  UNL1        0.1333
      8 C          -7.4290  -13.7487   28.0619 C.ar    1  UNL1        0.1173
      9 C          -6.6642  -14.3514   27.0599 C.ar    1  UNL1        0.1897
     10 C          -7.2450  -15.4037   26.3214 C.ar    1  UNL1        0.1782
     11 O          -6.4791  -16.0071   25.3170 O.3     1  UNL1       -0.4682
     12 C          -5.2868  -15.3970   24.8199 C.3     1  UNL1        0.2526
     13 C          -4.4960  -14.7660   25.9713 C.3     1  UNL1        0.2527
     14 O          -5.3550  -13.9532   26.7734 O.3     1  UNL1       -0.4669
     15 N          -9.5212  -16.8016   24.4677 N.am    1  UNL1       -0.2806
     16 C          -9.1868  -16.9562   25.8554 C.2     1  UNL1        0.2526
     17 O          -9.4383  -18.0423   26.4457 O.2     1  UNL1       -0.2697
     18 H          -9.5199  -15.8471   24.0437 H       1  UNL1        0.1552
     19 C          -9.9209  -17.8623   22.2420 C.ar    1  UNL1       -0.0029
     20 C          -9.9763  -17.9034   23.6683 C.ar    1  UNL1        0.0466
     21 C         -10.4940  -19.0174   24.3305 C.ar    1  UNL1        0.0166
     22 C         -10.9646  -20.1051   23.6176 C.ar    1  UNL1        0.0308
     23 C         -10.8657  -20.1321   22.2325 C.ar    1  UNL1        0.1438
     24 F         -11.3649  -21.2224   21.5953 F       1  UNL1       -0.2042
     25 C         -10.2736  -19.0602   21.5176 C.ar    1  UNL1        0.0960
     26 C         -10.0897  -19.2374   20.0131 C.3     1  UNL1        0.4204
     27 F         -10.9794  -18.4286   19.3319 F       1  UNL1       -0.1658
     28 F         -10.3178  -20.5449   19.6200 F       1  UNL1       -0.1658
     29 F          -8.7994  -18.9533   19.6257 F       1  UNL1       -0.1658
     30 C          -8.2640  -15.8385   22.2670 C.3     1  UNL1        0.0047
     31 C          -9.4561  -16.5395   21.5970 C.3     1  UNL1        0.0236
     32 C         -10.6233  -15.5860   21.3084 C.3     1  UNL1        0.0047
     33 N          -8.3995  -11.5340   30.6225 N.pl3   1  UNL1       -0.2814
     34 H          -7.6698  -10.7905   30.6891 H       1  UNL1        0.1551
     35 C          -9.6448  -11.3120   31.3001 C.ar    1  UNL1        0.0889
     36 C         -10.7922  -11.0086   30.5483 C.ar    1  UNL1        0.1543
     37 F         -10.7261  -10.9449   29.1946 F       1  UNL1       -0.2028
     38 C         -12.0167  -10.7915   31.1867 C.ar    1  UNL1        0.0310
     39 C         -12.1034  -10.8611   32.5783 C.ar    1  UNL1        0.0033
     40 C         -10.9639  -11.1372   33.3373 C.ar    1  UNL1        0.0128
     41 C          -9.7321  -11.3567   32.7086 C.ar    1  UNL1        0.0733
     42 CL         -8.3102  -11.6066   33.7151 Cl      1  UNL1       -0.0809
@<TRIPOS>BOND
     1    30    31    1
     2    31    32    1
     3    31    19    1
     4    19    20   ar
     5    20    15    1
     6    15    16   am
     7    16    17    2
     8    16     1    1
     9     1     2   ar
    10     2     3   ar
    11     3     4   ar
    12     4     5   ar
    13     5    33    1
    14    33    35    1
    15    35    36   ar
    16    36    37    1
    17    36    38   ar
    18    38    39   ar
    19    39    40   ar
    20    40    41   ar
    21    41    42    1
    22     5     6   ar
    23     6     7    1
    24     6     8   ar
    25     8     9   ar
    26     9    10   ar
    27    10    11    1
    28    11    12    1
    29    12    13    1
    30    13    14    1
    31    20    21   ar
    32    21    22   ar
    33    22    23   ar
    34    23    24    1
    35    23    25   ar
    36    25    26    1
    37    26    27    1
    38    26    28    1
    39    26    29    1
    40    25    19   ar
    41    10     1   ar
    42     8     3   ar
    43    14     9    1
    44    41    35   ar
    45    15    18    1
    46    33    34    1
@<TRIPOS>MOLECULE
*****
 42 46 0 0 0
SMALL
GASTEIGER

@<TRIPOS>ATOM
      1 C          -7.5184  -14.9662   26.9678 C.ar    1  UNL1        0.0922
      2 C          -8.7808  -15.6017   26.9341 C.ar    1  UNL1        0.0284
      3 C          -9.1049  -16.3718   25.8200 C.ar    1  UNL1        0.1033
      4 N         -10.2343  -17.0735   25.6193 N.ar    1  UNL1       -0.2134
      5 C         -10.0333  -17.6283   24.3949 C.ar    1  UNL1        0.2019
      6 N          -8.8400  -17.2933   23.8337 N.ar    1  UNL1       -0.2950
      7 C          -8.2964  -17.7145   22.5426 C.3     1  UNL1        0.1333
      8 C          -8.2565  -16.5088   24.7591 C.ar    1  UNL1        0.1173
      9 C          -7.0093  -15.8794   24.7403 C.ar    1  UNL1        0.1897
     10 C          -6.6343  -15.1111   25.8624 C.ar    1  UNL1        0.1782
     11 O          -5.3845  -14.4810   25.8439 O.3     1  UNL1       -0.4682
     12 C          -4.3805  -14.8431   24.8942 C.3     1  UNL1        0.2526
     13 C          -5.0169  -15.0995   23.5236 C.3     1  UNL1        0.2527
     14 O          -6.1340  -15.9808   23.6548 O.3     1  UNL1       -0.4669
     15 N          -7.7768  -12.8931   28.4022 N.am    1  UNL1       -0.2806
     16 C          -7.1468  -14.1581   28.1487 C.2     1  UNL1        0.2526
     17 O          -6.2535  -14.5838   28.9312 O.2     1  UNL1       -0.2697
     18 H          -8.3443  -12.4434   27.6495 H       1  UNL1        0.1552
     19 C          -8.6244  -11.8694   30.5170 C.ar    1  UNL1       -0.0029
     20 C          -7.5546  -12.1635   29.6181 C.ar    1  UNL1        0.0466
     21 C          -6.2554  -11.7321   29.8898 C.ar    1  UNL1        0.0166
     22 C          -5.9780  -11.0101   31.0363 C.ar    1  UNL1        0.0308
     23 C          -6.9774  -10.7625   31.9684 C.ar    1  UNL1        0.1438
     24 F          -6.6397  -10.0312   33.0617 F       1  UNL1       -0.2042
     25 C          -8.2956  -11.2491   31.7784 C.ar    1  UNL1        0.0960
     26 C          -9.2908  -11.0413   32.9166 C.3     1  UNL1        0.4204
     27 F         -10.3312  -10.2375   32.4909 F       1  UNL1       -0.1658
     28 F          -8.6997  -10.4284   34.0079 F       1  UNL1       -0.1658
     29 F          -9.7796  -12.2404   33.3843 F       1  UNL1       -0.1658
     30 C         -10.9401  -11.1372   29.5459 C.3     1  UNL1        0.0047
     31 C         -10.0457  -12.2717   30.0696 C.3     1  UNL1        0.0236
     32 C         -10.7540  -13.1628   31.0986 C.3     1  UNL1        0.0047
     33 N         -10.9763  -18.5247   23.7883 N.pl3   1  UNL1       -0.2814
     34 H         -11.6986  -18.9756   24.3922 H       1  UNL1        0.1551
     35 C         -11.1575  -18.5899   22.3664 C.ar    1  UNL1        0.0889
     36 C         -10.7023  -19.7196   21.6662 C.ar    1  UNL1        0.1543
     37 F         -10.1145  -20.7458   22.3312 F       1  UNL1       -0.2028
     38 C         -10.8708  -19.8061   20.2812 C.ar    1  UNL1        0.0310
     39 C         -11.4806  -18.7623   19.5828 C.ar    1  UNL1        0.0033
     40 C         -11.9143  -17.6235   20.2654 C.ar    1  UNL1        0.0128
     41 C         -11.7511  -17.5260   21.6526 C.ar    1  UNL1        0.0733
     42 CL        -12.2284  -16.0313   22.4496 Cl      1  UNL1       -0.0809
@<TRIPOS>BOND
     1    30    31    1
     2    31    32    1
     3    31    19    1
     4    19    20   ar
     5    20    15    1
     6    15    16   am
     7    16    17    2
     8    16     1    1
     9     1     2   ar
    10     2     3   ar
    11     3     4   ar
    12     4     5   ar
    13     5    33    1
    14    33    35    1
    15    35    36   ar
    16    36    37    1
    17    36    38   ar
    18    38    39   ar
    19    39    40   ar
    20    40    41   ar
    21    41    42    1
    22     5     6   ar
    23     6     7    1
    24     6     8   ar
    25     8     9   ar
    26     9    10   ar
    27    10    11    1
    28    11    12    1
    29    12    13    1
    30    13    14    1
    31    20    21   ar
    32    21    22   ar
    33    22    23   ar
    34    23    24    1
    35    23    25   ar
    36    25    26    1
    37    26    27    1
    38    26    28    1
    39    26    29    1
    40    25    19   ar
    41    10     1   ar
    42     8     3   ar
    43    14     9    1
    44    41    35   ar
    45    15    18    1
    46    33    34    1
