@<TRIPOS>MOLECULE
*****
 46 51 0 0 0
SMALL
GASTEIGER

@<TRIPOS>ATOM
      1 N          61.0320   87.4615    9.7311 N.pl3   1  UNL1       -0.3041
      2 C          61.2738   86.6516    8.5255 C.3     1  UNL1        0.1122
      3 C          60.0339   85.8358    8.1422 C.3     1  UNL1        0.1122
      4 N          59.4325   85.2498    9.3489 N.pl3   1  UNL1       -0.3041
      5 C          59.1314   86.1113   10.5043 C.3     1  UNL1        0.1122
      6 C          59.6793   87.5288   10.3026 C.3     1  UNL1        0.1122
      7 C          64.2735   89.4372   11.6593 C.ar    1  UNL1        0.0695
      8 C          63.9228   89.7715   10.3437 C.ar    1  UNL1        0.0190
      9 C          62.8595   89.1227    9.7099 C.ar    1  UNL1        0.0160
     10 C          62.1379   88.1194   10.3784 C.ar    1  UNL1        0.0480
     11 C          62.4954   87.7825   11.6944 C.ar    1  UNL1        0.0160
     12 C          63.5594   88.4314   12.3266 C.ar    1  UNL1        0.0190
     13 N          66.8209   90.7682   13.8517 N.ar    1  UNL1       -0.2028
     14 N          67.1790   91.3579   12.7204 N.ar    1  UNL1       -0.1521
     15 C          66.2967   90.9468   11.7803 C.ar    1  UNL1        0.1470
     16 N          65.3758   90.0975   12.3024 N.ar    1  UNL1       -0.2457
     17 C          65.7424   90.0073   13.5941 C.ar    1  UNL1        0.3519
     18 O          65.1436   89.3078   14.4557 O.2     1  UNL1       -0.2444
     19 C          66.4023   91.3410   10.3274 C.3     1  UNL1        0.0592
     20 C          66.1657   92.8454   10.1703 C.3     1  UNL1        0.0080
     21 C          67.7718   90.9443    9.7671 C.3     1  UNL1        0.0080
     22 C          67.5272   90.9177   15.1283 C.3     1  UNL1        0.1099
     23 C          66.6723   91.7359   16.0996 C.3     1  UNL1        0.0265
     24 C          69.1161   92.7617   15.8636 C.3     1  UNL1        0.0021
     25 C          68.8984   91.5850   14.9131 C.3     1  UNL1        0.0245
     26 C          59.2017   83.8310    9.4409 C.ar    1  UNL1        0.0481
     27 C          58.5451   83.2872   10.5566 C.ar    1  UNL1        0.0176
     28 C          58.3324   81.9090   10.6498 C.ar    1  UNL1        0.0382
     29 C          58.7745   81.0503    9.6376 C.ar    1  UNL1        0.1388
     30 C          59.4410   81.5908    8.5220 C.ar    1  UNL1        0.0382
     31 C          59.6530   82.9693    8.4276 C.ar    1  UNL1        0.0176
     32 O          58.5335   79.6760    9.7775 O.3     1  UNL1       -0.4727
     33 C          57.8232   79.0894   10.8653 C.3     1  UNL1        0.2374
     34 C          58.7719   78.2012   11.6768 C.3     1  UNL1        0.1910
     35 C          58.8281   78.6043   13.1287 C.3     1  UNL1        0.1785
     36 O          59.9866   79.3590   13.2747 O.3     1  UNL1       -0.3244
     37 C          60.8081   78.9918   12.1892 C.3     1  UNL1        0.2610
     38 O          60.0709   78.3319   11.1849 O.3     1  UNL1       -0.3231
     39 C          61.4819   80.2073   11.5888 C.ar    1  UNL1        0.0442
     40 C          61.3751   81.4604   12.2243 C.ar    1  UNL1        0.0023
     41 C          61.9515   82.5986   11.6561 C.ar    1  UNL1        0.0113
     42 C          62.6276   82.5083   10.4383 C.ar    1  UNL1        0.0585
     43 CL         63.3472   83.9406    9.7257 Cl      1  UNL1       -0.0822
     44 C          62.7191   81.2789    9.7816 C.ar    1  UNL1        0.0226
     45 C          62.1438   80.1313   10.3412 C.ar    1  UNL1        0.0592
     46 CL         62.2556   78.6249    9.4353 Cl      1  UNL1       -0.0824
@<TRIPOS>BOND
     1    24    25    1
     2    25    22    1
     3    22    23    1
     4    22    13    1
     5    13    14   ar
     6    14    15   ar
     7    15    19    1
     8    19    20    1
     9    19    21    1
    10    15    16   ar
    11    16     7    1
    12     7     8   ar
    13     8     9   ar
    14     9    10   ar
    15    10     1    1
    16     1     2    1
    17     2     3    1
    18     3     4    1
    19     4    26    1
    20    26    27   ar
    21    27    28   ar
    22    28    29   ar
    23    29    32    1
    24    32    33    1
    25    33    34    1
    26    34    35    1
    27    35    36    1
    28    36    37    1
    29    37    39    1
    30    39    40   ar
    31    40    41   ar
    32    41    42   ar
    33    42    43    1
    34    42    44   ar
    35    44    45   ar
    36    45    46    1
    37    37    38    1
    38    29    30   ar
    39    30    31   ar
    40     4     5    1
    41     5     6    1
    42    10    11   ar
    43    11    12   ar
    44    16    17   ar
    45    17    18    2
    46    17    13   ar
    47    12     7   ar
    48     6     1    1
    49    31    26   ar
    50    38    34    1
    51    45    39   ar
@<TRIPOS>MOLECULE
*****
 46 51 0 0 0
SMALL
GASTEIGER

@<TRIPOS>ATOM
      1 N          61.8150   86.4722   14.4295 N.pl3   1  UNL1       -0.3041
      2 C          60.3813   86.6636   14.1539 C.3     1  UNL1        0.1122
      3 C          59.5724   85.4097   14.5052 C.3     1  UNL1        0.1122
      4 N          60.2869   84.2117   14.0413 N.pl3   1  UNL1       -0.3041
      5 C          61.6997   84.0188   14.4078 C.3     1  UNL1        0.1122
      6 C          62.2670   85.2540   15.1168 C.3     1  UNL1        0.1122
      7 C          64.5962   89.3846   13.0469 C.ar    1  UNL1        0.0695
      8 C          63.6088   88.8844   12.1863 C.ar    1  UNL1        0.0190
      9 C          62.6962   87.9278   12.6392 C.ar    1  UNL1        0.0160
     10 C          62.7651   87.4466   13.9576 C.ar    1  UNL1        0.0480
     11 C          63.7591   87.9453   14.8157 C.ar    1  UNL1        0.0160
     12 C          64.6715   88.9012   14.3612 C.ar    1  UNL1        0.0190
     13 N          66.6093   91.7957   11.2575 N.ar    1  UNL1       -0.2028
     14 N          67.2423   91.8061   12.4215 N.ar    1  UNL1       -0.1521
     15 C          66.5884   90.9300   13.2190 C.ar    1  UNL1        0.1470
     16 N          65.5405   90.3584   12.5731 N.ar    1  UNL1       -0.2457
     17 C          65.5844   90.9305   11.3558 C.ar    1  UNL1        0.3519
     18 O          64.7748   90.6783   10.4224 O.2     1  UNL1       -0.2444
     19 C          66.9579   90.7023   14.6645 C.3     1  UNL1        0.0592
     20 C          68.4272   91.0643   14.8968 C.3     1  UNL1        0.0080
     21 C          66.0443   91.5210   15.5820 C.3     1  UNL1        0.0080
     22 C          66.9734   92.6253   10.1043 C.3     1  UNL1        0.1099
     23 C          65.7703   93.4680    9.6730 C.3     1  UNL1        0.0265
     24 C          68.8284   91.1153    9.2414 C.3     1  UNL1        0.0021
     25 C          67.4696   91.7468    8.9408 C.3     1  UNL1        0.0245
     26 C          59.6418   83.2610   13.1724 C.ar    1  UNL1        0.0481
     27 C          58.4685   83.6079   12.4834 C.ar    1  UNL1        0.0176
     28 C          57.8373   82.6805   11.6499 C.ar    1  UNL1        0.0382
     29 C          58.3602   81.3922   11.4936 C.ar    1  UNL1        0.1388
     30 C          59.5311   81.0380   12.1897 C.ar    1  UNL1        0.0382
     31 C          60.1635   81.9655   13.0225 C.ar    1  UNL1        0.0176
     32 O          57.6909   80.5002   10.6434 O.3     1  UNL1       -0.4727
     33 C          58.2186   80.0108    9.4129 C.3     1  UNL1        0.2374
     34 C          58.2149   81.1343    8.3712 C.3     1  UNL1        0.1910
     35 C          59.0112   80.7750    7.1422 C.3     1  UNL1        0.1785
     36 O          60.2450   81.3996    7.2861 O.3     1  UNL1       -0.3244
     37 C          60.0255   82.4485    8.2025 C.3     1  UNL1        0.2610
     38 O          58.8176   82.2723    8.9080 O.3     1  UNL1       -0.3231
     39 C          61.1661   82.5453    9.1931 C.ar    1  UNL1        0.0442
     40 C          61.9306   81.4031    9.5043 C.ar    1  UNL1        0.0023
     41 C          62.9546   81.4679   10.4518 C.ar    1  UNL1        0.0113
     42 C          63.2206   82.6666   11.1156 C.ar    1  UNL1        0.0585
     43 CL         64.5050   82.7435   12.3078 Cl      1  UNL1       -0.0822
     44 C          62.4542   83.8012   10.8389 C.ar    1  UNL1        0.0226
     45 C          61.4240   83.7477    9.8918 C.ar    1  UNL1        0.0592
     46 CL         60.4668   85.2026    9.6285 Cl      1  UNL1       -0.0824
@<TRIPOS>BOND
     1    24    25    1
     2    25    22    1
     3    22    23    1
     4    22    13    1
     5    13    14   ar
     6    14    15   ar
     7    15    19    1
     8    19    20    1
     9    19    21    1
    10    15    16   ar
    11    16     7    1
    12     7     8   ar
    13     8     9   ar
    14     9    10   ar
    15    10     1    1
    16     1     2    1
    17     2     3    1
    18     3     4    1
    19     4    26    1
    20    26    27   ar
    21    27    28   ar
    22    28    29   ar
    23    29    32    1
    24    32    33    1
    25    33    34    1
    26    34    35    1
    27    35    36    1
    28    36    37    1
    29    37    39    1
    30    39    40   ar
    31    40    41   ar
    32    41    42   ar
    33    42    43    1
    34    42    44   ar
    35    44    45   ar
    36    45    46    1
    37    37    38    1
    38    29    30   ar
    39    30    31   ar
    40     4     5    1
    41     5     6    1
    42    10    11   ar
    43    11    12   ar
    44    16    17   ar
    45    17    18    2
    46    17    13   ar
    47    12     7   ar
    48     6     1    1
    49    31    26   ar
    50    38    34    1
    51    45    39   ar
@<TRIPOS>MOLECULE
*****
 46 51 0 0 0
SMALL
GASTEIGER

@<TRIPOS>ATOM
      1 N          61.6983   86.4815   13.9539 N.pl3   1  UNL1       -0.3041
      2 C          60.2755   86.6684   13.6246 C.3     1  UNL1        0.1122
      3 C          59.4713   85.3872   13.8728 C.3     1  UNL1        0.1122
      4 N          60.2241   84.2250   13.3792 N.pl3   1  UNL1       -0.3041
      5 C          61.6222   84.0314   13.7982 C.3     1  UNL1        0.1122
      6 C          62.1384   85.2345   14.5959 C.3     1  UNL1        0.1122
      7 C          64.5493   89.4368   12.8283 C.ar    1  UNL1        0.0695
      8 C          64.5359   88.9276   14.1346 C.ar    1  UNL1        0.0190
      9 C          63.5998   87.9583   14.5049 C.ar    1  UNL1        0.0160
     10 C          62.6532   87.4920   13.5771 C.ar    1  UNL1        0.0480
     11 C          62.6653   88.0082   12.2708 C.ar    1  UNL1        0.0160
     12 C          63.6014   88.9781   11.9021 C.ar    1  UNL1        0.0190
     13 N          66.6199   91.9604   11.2754 N.ar    1  UNL1       -0.2028
     14 N          67.1976   91.9092   12.4668 N.ar    1  UNL1       -0.1521
     15 C          66.5158   90.9843   13.1816 C.ar    1  UNL1        0.1470
     16 N          65.5051   90.4428   12.4556 N.ar    1  UNL1       -0.2457
     17 C          65.6002   91.0836   11.2760 C.ar    1  UNL1        0.3519
     18 O          64.8378   90.8791   10.2926 O.2     1  UNL1       -0.2444
     19 C          66.8195   90.6773   14.6277 C.3     1  UNL1        0.0592
     20 C          68.2920   90.9668   14.9307 C.3     1  UNL1        0.0080
     21 C          65.9045   91.4919   15.5476 C.3     1  UNL1        0.0080
     22 C          67.0294   92.8570   10.1895 C.3     1  UNL1        0.1099
     23 C          65.8747   93.7962    9.8311 C.3     1  UNL1        0.0265
     24 C          68.7126   91.1981    9.2513 C.3     1  UNL1        0.0021
     25 C          67.4761   92.0469    8.9583 C.3     1  UNL1        0.0245
     26 C          59.6328   83.3135   12.4334 C.ar    1  UNL1        0.0481
     27 C          58.6738   83.7655   11.5128 C.ar    1  UNL1        0.0176
     28 C          58.0924   82.8774   10.6036 C.ar    1  UNL1        0.0382
     29 C          58.4518   81.5252   10.6002 C.ar    1  UNL1        0.1388
     30 C          59.4061   81.0667   11.5275 C.ar    1  UNL1        0.0382
     31 C          59.9889   81.9547   12.4364 C.ar    1  UNL1        0.0176
     32 O          57.8416   80.6761    9.6658 O.3     1  UNL1       -0.4727
     33 C          57.6100   81.0146    8.3006 C.3     1  UNL1        0.2374
     34 C          58.8850   80.7665    7.4881 C.3     1  UNL1        0.1910
     35 C          60.0133   80.2463    8.3425 C.3     1  UNL1        0.1785
     36 O          60.8278   81.3402    8.6131 O.3     1  UNL1       -0.3244
     37 C          60.5402   82.2769    7.5992 C.3     1  UNL1        0.2610
     38 O          59.3325   81.9691    6.9404 O.3     1  UNL1       -0.3231
     39 C          60.4486   83.6763    8.1696 C.ar    1  UNL1        0.0442
     40 C          59.3924   84.5272    7.7875 C.ar    1  UNL1        0.0023
     41 C          59.3226   85.8363    8.2691 C.ar    1  UNL1        0.0113
     42 C          60.3131   86.3222    9.1243 C.ar    1  UNL1        0.0585
     43 CL         60.2244   87.9682    9.7243 Cl      1  UNL1       -0.0822
     44 C          61.3816   85.5007    9.4910 C.ar    1  UNL1        0.0226
     45 C          61.4627   84.1868    9.0131 C.ar    1  UNL1        0.0592
     46 CL         62.8622   83.2234    9.4770 Cl      1  UNL1       -0.0824
@<TRIPOS>BOND
     1    24    25    1
     2    25    22    1
     3    22    23    1
     4    22    13    1
     5    13    14   ar
     6    14    15   ar
     7    15    19    1
     8    19    20    1
     9    19    21    1
    10    15    16   ar
    11    16     7    1
    12     7     8   ar
    13     8     9   ar
    14     9    10   ar
    15    10     1    1
    16     1     2    1
    17     2     3    1
    18     3     4    1
    19     4    26    1
    20    26    27   ar
    21    27    28   ar
    22    28    29   ar
    23    29    32    1
    24    32    33    1
    25    33    34    1
    26    34    35    1
    27    35    36    1
    28    36    37    1
    29    37    39    1
    30    39    40   ar
    31    40    41   ar
    32    41    42   ar
    33    42    43    1
    34    42    44   ar
    35    44    45   ar
    36    45    46    1
    37    37    38    1
    38    29    30   ar
    39    30    31   ar
    40     4     5    1
    41     5     6    1
    42    10    11   ar
    43    11    12   ar
    44    16    17   ar
    45    17    18    2
    46    17    13   ar
    47    12     7   ar
    48     6     1    1
    49    31    26   ar
    50    38    34    1
    51    45    39   ar
@<TRIPOS>MOLECULE
*****
 46 51 0 0 0
SMALL
GASTEIGER

@<TRIPOS>ATOM
      1 N          61.4933   86.8860    9.1777 N.pl3   1  UNL1       -0.3041
      2 C          62.0996   85.7906    8.4029 C.3     1  UNL1        0.1122
      3 C          61.0441   85.0255    7.5964 C.3     1  UNL1        0.1122
      4 N          59.8494   84.8062    8.4243 N.pl3   1  UNL1       -0.3041
      5 C          59.2253   85.9449    9.1184 C.3     1  UNL1        0.1122
      6 C          60.0737   87.2147    8.9839 C.3     1  UNL1        0.1122
      7 C          63.7818   88.9457   12.1187 C.ar    1  UNL1        0.0695
      8 C          63.7130   89.4335   10.8060 C.ar    1  UNL1        0.0190
      9 C          62.9628   88.7574    9.8400 C.ar    1  UNL1        0.0160
     10 C          62.2794   87.5746   10.1691 C.ar    1  UNL1        0.0480
     11 C          62.3549   87.0852   11.4835 C.ar    1  UNL1        0.0160
     12 C          63.1062   87.7618   12.4482 C.ar    1  UNL1        0.0190
     13 N          66.1813   90.8222   14.0652 N.ar    1  UNL1       -0.2028
     14 N          65.3186   90.5145   15.0228 N.ar    1  UNL1       -0.1521
     15 C          64.3366   89.7932   14.4340 C.ar    1  UNL1        0.1470
     16 N          64.5649   89.6369   13.1053 N.ar    1  UNL1       -0.2457
     17 C          65.7208   90.2993   12.9149 C.ar    1  UNL1        0.3519
     18 O          66.3041   90.4056   11.8019 O.2     1  UNL1       -0.2444
     19 C          63.1161   89.3081   15.1775 C.3     1  UNL1        0.0592
     20 C          63.3254   87.8677   15.6522 C.3     1  UNL1        0.0080
     21 C          62.8124   90.2322   16.3609 C.3     1  UNL1        0.0080
     22 C          67.3923   91.6254   14.2623 C.3     1  UNL1        0.1099
     23 C          68.5895   90.9232   13.6161 C.3     1  UNL1        0.0265
     24 C          68.8943   92.7108   16.0034 C.3     1  UNL1        0.0021
     25 C          67.6447   91.8647   15.7625 C.3     1  UNL1        0.0245
     26 C          59.3254   83.4791    8.6225 C.ar    1  UNL1        0.0481
     27 C          60.0933   82.3527    8.2861 C.ar    1  UNL1        0.0176
     28 C          59.5789   81.0660    8.4680 C.ar    1  UNL1        0.0382
     29 C          58.2909   80.8803    8.9817 C.ar    1  UNL1        0.1388
     30 C          57.5148   82.0071    9.3116 C.ar    1  UNL1        0.0382
     31 C          58.0291   83.2943    9.1310 C.ar    1  UNL1        0.0176
     32 O          57.8227   79.5689    9.1479 O.3     1  UNL1       -0.4727
     33 C          57.5854   78.9525   10.4112 C.3     1  UNL1        0.2374
     34 C          58.9219   78.5529   11.0450 C.3     1  UNL1        0.1910
     35 C          58.7791   78.2055   12.5053 C.3     1  UNL1        0.1785
     36 O          59.1901   79.3307   13.2112 O.3     1  UNL1       -0.3244
     37 C          60.0006   80.0562   12.3140 C.3     1  UNL1        0.2610
     38 O          59.8087   79.6283   10.9845 O.3     1  UNL1       -0.3231
     39 C          59.7079   81.5388   12.4025 C.ar    1  UNL1        0.0442
     40 C          58.4101   81.9849   12.7227 C.ar    1  UNL1        0.0023
     41 C          58.1152   83.3495   12.7608 C.ar    1  UNL1        0.0113
     42 C          59.1040   84.2888   12.4636 C.ar    1  UNL1        0.0585
     43 CL         58.7291   86.0019   12.5087 Cl      1  UNL1       -0.0822
     44 C          60.3884   83.8628   12.1174 C.ar    1  UNL1        0.0226
     45 C          60.6952   82.4970   12.0746 C.ar    1  UNL1        0.0592
     46 CL         62.3208   82.0300   11.5833 Cl      1  UNL1       -0.0824
@<TRIPOS>BOND
     1    24    25    1
     2    25    22    1
     3    22    23    1
     4    22    13    1
     5    13    14   ar
     6    14    15   ar
     7    15    19    1
     8    19    20    1
     9    19    21    1
    10    15    16   ar
    11    16     7    1
    12     7     8   ar
    13     8     9   ar
    14     9    10   ar
    15    10     1    1
    16     1     2    1
    17     2     3    1
    18     3     4    1
    19     4    26    1
    20    26    27   ar
    21    27    28   ar
    22    28    29   ar
    23    29    32    1
    24    32    33    1
    25    33    34    1
    26    34    35    1
    27    35    36    1
    28    36    37    1
    29    37    39    1
    30    39    40   ar
    31    40    41   ar
    32    41    42   ar
    33    42    43    1
    34    42    44   ar
    35    44    45   ar
    36    45    46    1
    37    37    38    1
    38    29    30   ar
    39    30    31   ar
    40     4     5    1
    41     5     6    1
    42    10    11   ar
    43    11    12   ar
    44    16    17   ar
    45    17    18    2
    46    17    13   ar
    47    12     7   ar
    48     6     1    1
    49    31    26   ar
    50    38    34    1
    51    45    39   ar
@<TRIPOS>MOLECULE
*****
 46 51 0 0 0
SMALL
GASTEIGER

@<TRIPOS>ATOM
      1 N          61.4284   86.6967    9.9336 N.pl3   1  UNL1       -0.3041
      2 C          61.9838   85.5039    9.2729 C.3     1  UNL1        0.1122
      3 C          60.8871   84.6870    8.5802 C.3     1  UNL1        0.1122
      4 N          59.7079   84.5979    9.4534 N.pl3   1  UNL1       -0.3041
      5 C          59.1340   85.8252   10.0295 C.3     1  UNL1        0.1122
      6 C          60.0142   87.0455    9.7355 C.3     1  UNL1        0.1122
      7 C          63.8464   88.9951   12.5793 C.ar    1  UNL1        0.0695
      8 C          63.6423   89.4191   11.2586 C.ar    1  UNL1        0.0190
      9 C          62.8495   88.6647   10.3894 C.ar    1  UNL1        0.0160
     10 C          62.2584   87.4665   10.8244 C.ar    1  UNL1        0.0480
     11 C          62.4695   87.0412   12.1464 C.ar    1  UNL1        0.0160
     12 C          63.2632   87.7961   13.0141 C.ar    1  UNL1        0.0190
     13 N          66.3677   90.9609   14.2664 N.ar    1  UNL1       -0.2028
     14 N          65.4780   90.8648   15.2437 N.ar    1  UNL1       -0.1521
     15 C          64.4484   90.1375   14.7517 C.ar    1  UNL1        0.1470
     16 N          64.6730   89.7671   13.4655 N.ar    1  UNL1       -0.2457
     17 C          65.8767   90.3065   13.1990 C.ar    1  UNL1        0.3519
     18 O          66.4736   90.2013   12.0932 O.2     1  UNL1       -0.2444
     19 C          63.1899   89.8606   15.5374 C.3     1  UNL1        0.0592
     20 C          63.2498   88.4603   16.1534 C.3     1  UNL1        0.0080
     21 C          62.9958   90.9243   16.6225 C.3     1  UNL1        0.0080
     22 C          67.6346   91.6933   14.3630 C.3     1  UNL1        0.1099
     23 C          68.7340   90.9244   13.6255 C.3     1  UNL1        0.0265
     24 C          69.0162   93.0634   15.9999 C.3     1  UNL1        0.0021
     25 C          68.0196   91.9163   15.8373 C.3     1  UNL1        0.0245
     26 C          59.1519   83.3178    9.8100 C.ar    1  UNL1        0.0481
     27 C          58.8076   83.0370   11.1420 C.ar    1  UNL1        0.0176
     28 C          58.2792   81.7904   11.4883 C.ar    1  UNL1        0.0382
     29 C          58.0906   80.8022   10.5160 C.ar    1  UNL1        0.1388
     30 C          58.4428   81.0768    9.1813 C.ar    1  UNL1        0.0382
     31 C          58.9703   82.3239    8.8341 C.ar    1  UNL1        0.0176
     32 O          57.5542   79.5693   10.9145 O.3     1  UNL1       -0.4727
     33 C          58.2085   78.3141   10.7464 C.3     1  UNL1        0.2374
     34 C          58.8405   77.8842   12.0742 C.3     1  UNL1        0.1910
     35 C          58.4492   78.7926   13.2124 C.3     1  UNL1        0.1785
     36 O          59.5187   79.6618   13.3969 O.3     1  UNL1       -0.3244
     37 C          60.6304   79.0090   12.8257 C.3     1  UNL1        0.2610
     38 O          60.2303   77.9572   11.9765 O.3     1  UNL1       -0.3231
     39 C          61.4804   79.9832   12.0381 C.ar    1  UNL1        0.0442
     40 C          61.5661   79.8728   10.6359 C.ar    1  UNL1        0.0023
     41 C          62.3840   80.7349    9.9023 C.ar    1  UNL1        0.0113
     42 C          63.1417   81.7080   10.5561 C.ar    1  UNL1        0.0585
     43 CL         64.1708   82.7867    9.6319 Cl      1  UNL1       -0.0822
     44 C          63.0893   81.8130   11.9480 C.ar    1  UNL1        0.0226
     45 C          62.2738   80.9531   12.6941 C.ar    1  UNL1        0.0592
     46 CL         62.2938   81.1100   14.4483 Cl      1  UNL1       -0.0824
@<TRIPOS>BOND
     1    24    25    1
     2    25    22    1
     3    22    23    1
     4    22    13    1
     5    13    14   ar
     6    14    15   ar
     7    15    19    1
     8    19    20    1
     9    19    21    1
    10    15    16   ar
    11    16     7    1
    12     7     8   ar
    13     8     9   ar
    14     9    10   ar
    15    10     1    1
    16     1     2    1
    17     2     3    1
    18     3     4    1
    19     4    26    1
    20    26    27   ar
    21    27    28   ar
    22    28    29   ar
    23    29    32    1
    24    32    33    1
    25    33    34    1
    26    34    35    1
    27    35    36    1
    28    36    37    1
    29    37    39    1
    30    39    40   ar
    31    40    41   ar
    32    41    42   ar
    33    42    43    1
    34    42    44   ar
    35    44    45   ar
    36    45    46    1
    37    37    38    1
    38    29    30   ar
    39    30    31   ar
    40     4     5    1
    41     5     6    1
    42    10    11   ar
    43    11    12   ar
    44    16    17   ar
    45    17    18    2
    46    17    13   ar
    47    12     7   ar
    48     6     1    1
    49    31    26   ar
    50    38    34    1
    51    45    39   ar
