@<TRIPOS>MOLECULE
*****
 46 51 0 0 0
SMALL
GASTEIGER

@<TRIPOS>ATOM
      1 C          61.0260   87.5782    8.6683 C.ar    1  UNL1        0.0702
      2 C          61.1718   88.4319    9.7726 C.ar    1  UNL1        0.0191
      3 C          61.1959   87.9075   11.0660 C.ar    1  UNL1        0.0356
      4 C          61.0842   86.5194   11.2562 C.ar    1  UNL1        0.1318
      5 N          60.9724   85.7108   10.1649 N.ar    1  UNL1       -0.2279
      6 C          60.9476   86.1992    8.8969 C.ar    1  UNL1        0.1149
      7 N          61.1069   85.9382   12.5781 N.pl3   1  UNL1       -0.2932
      8 C          61.6772   84.5963   12.7722 C.3     1  UNL1        0.0923
      9 C          62.2917   84.4840   14.1695 C.3     1  UNL1        0.0252
     10 C          61.2564   84.7587   15.2902 C.3     1  UNL1        0.0472
     11 C          60.0837   85.6559   14.8197 C.3     1  UNL1        0.0252
     12 C          60.4976   86.6417   13.7203 C.3     1  UNL1        0.0923
     13 C          61.9427   85.3583   16.5353 C.3     1  UNL1        0.2054
     14 O          63.1735   85.9972   16.1903 O.3     1  UNL1       -0.4755
     15 C          63.3156   87.3305   15.7716 C.ar    1  UNL1        0.1388
     16 C          62.8507   88.3381   16.6223 C.ar    1  UNL1        0.0369
     17 C          62.9669   89.6807   16.2607 C.ar    1  UNL1        0.0033
     18 C          63.5482   90.0326   15.0410 C.ar    1  UNL1        0.0066
     19 C          64.0194   89.0390   14.1650 C.ar    1  UNL1        0.0785
     20 C          63.9096   87.6875   14.5441 C.ar    1  UNL1        0.0433
     21 C          64.6472   89.3969   12.8690 C.2     1  UNL1        0.3381
     22 O          64.1489   88.9696   11.7936 O.2     1  UNL1       -0.2451
     23 O          65.7757   90.2131   12.8002 O.3     1  UNL1       -0.4771
     24 H          66.1657   90.6741   13.6119 H       1  UNL1        0.2954
     25 C          59.9740   88.8879    6.7648 C.2     1  UNL1        0.2839
     26 O          58.8691   88.9923    7.3623 O.2     1  UNL1       -0.2665
     27 N          61.0229   88.0777    7.3198 N.am    1  UNL1       -0.2766
     28 H          61.7886   87.7625    6.6819 H       1  UNL1        0.1553
     29 C          60.4468   91.7285    1.4966 C.ar    1  UNL1       -0.0001
     30 C          61.8071   91.3927    1.7086 C.ar    1  UNL1        0.0031
     31 C          62.1992   90.6956    2.8647 C.ar    1  UNL1        0.0375
     32 C          61.2118   90.3419    3.7796 C.ar    1  UNL1        0.1452
     33 O          61.3681   89.6965    4.9094 O.2     1  UNL1       -0.4492
     34 C          60.1790   89.5659    5.4707 C.ar    1  UNL1        0.1946
     35 C          59.2005   90.1574    4.6637 C.ar    1  UNL1        0.0202
     36 C          57.7264   90.2405    4.9224 C.3     1  UNL1        0.0345
     37 C          59.8927   90.6524    3.5756 C.ar    1  UNL1        0.0337
     38 C          59.4695   91.3425    2.4387 C.ar    1  UNL1        0.0028
     39 C          60.9569   92.7253   -0.7744 C.ar    1  UNL1       -0.0222
     40 C          60.5078   93.4347   -1.9031 C.ar    1  UNL1       -0.0043
     41 C          59.1777   93.8479   -2.0017 C.ar    1  UNL1       -0.0003
     42 C          58.2813   93.5730   -0.9695 C.ar    1  UNL1       -0.0000
     43 C          58.7110   92.8823    0.1646 C.ar    1  UNL1       -0.0003
     44 C          60.0423   92.4495    0.2742 C.ar    1  UNL1       -0.0040
     45 C          63.2992   93.5749   -0.9962 C.3     1  UNL1        0.0050
     46 C          62.4232   92.3669   -0.6789 C.3     1  UNL1        0.0264
@<TRIPOS>BOND
     1    45    46    1
     2    46    39    1
     3    39    40   ar
     4    40    41   ar
     5    41    42   ar
     6    42    43   ar
     7    43    44   ar
     8    44    29    1
     9    29    30   ar
    10    30    31   ar
    11    31    32   ar
    12    32    33   ar
    13    33    34   ar
    14    34    25    1
    15    25    26    2
    16    25    27   am
    17    27     1    1
    18     1     2   ar
    19     2     3   ar
    20     3     4   ar
    21     4     7    1
    22     7     8    1
    23     8     9    1
    24     9    10    1
    25    10    13    1
    26    13    14    1
    27    14    15    1
    28    15    16   ar
    29    16    17   ar
    30    17    18   ar
    31    18    19   ar
    32    19    21    1
    33    21    22    2
    34    21    23    1
    35    19    20   ar
    36    10    11    1
    37    11    12    1
    38     4     5   ar
    39     5     6   ar
    40    34    35   ar
    41    35    36    1
    42    35    37   ar
    43    37    38   ar
    44    44    39   ar
    45    38    29   ar
    46    37    32   ar
    47     6     1   ar
    48    12     7    1
    49    20    15   ar
    50    27    28    1
    51    23    24    1
@<TRIPOS>MOLECULE
*****
 46 51 0 0 0
SMALL
GASTEIGER

@<TRIPOS>ATOM
      1 C          60.6032   86.5551    8.1386 C.ar    1  UNL1        0.0702
      2 C          59.6018   85.7257    8.6664 C.ar    1  UNL1        0.0191
      3 C          59.8130   85.0494    9.8691 C.ar    1  UNL1        0.0356
      4 C          61.0295   85.2117   10.5542 C.ar    1  UNL1        0.1318
      5 N          61.9737   86.0454   10.0339 N.ar    1  UNL1       -0.2279
      6 C          61.7892   86.7144    8.8653 C.ar    1  UNL1        0.1149
      7 N          61.2854   84.5310   11.8019 N.pl3   1  UNL1       -0.2932
      8 C          60.2395   84.4905   12.8354 C.3     1  UNL1        0.0923
      9 C          60.3573   83.2011   13.6515 C.3     1  UNL1        0.0252
     10 C          61.7435   83.0610   14.3314 C.3     1  UNL1        0.0472
     11 C          62.8590   83.8408   13.5905 C.3     1  UNL1        0.0252
     12 C          62.6069   83.9424   12.0812 C.3     1  UNL1        0.0923
     13 C          62.1263   81.5752   14.4946 C.3     1  UNL1        0.2054
     14 O          62.6471   81.0384   13.2769 O.3     1  UNL1       -0.4755
     15 C          61.9111   80.3302   12.3125 C.ar    1  UNL1        0.1388
     16 C          62.3413   80.3921   10.9835 C.ar    1  UNL1        0.0369
     17 C          61.6515   79.7073    9.9824 C.ar    1  UNL1        0.0033
     18 C          60.5198   78.9530   10.2983 C.ar    1  UNL1        0.0066
     19 C          60.0631   78.8779   11.6259 C.ar    1  UNL1        0.0785
     20 C          60.7732   79.5617   12.6312 C.ar    1  UNL1        0.0433
     21 C          58.8671   78.0738   11.9791 C.2     1  UNL1        0.3381
     22 O          58.6063   77.8394   13.1892 O.2     1  UNL1       -0.2451
     23 O          58.0032   77.5756   11.0045 O.3     1  UNL1       -0.4771
     24 H          58.0925   77.8108   10.0247 H       1  UNL1        0.2954
     25 C          60.0571   88.6795    6.8602 C.2     1  UNL1        0.2839
     26 O          59.6414   89.2703    7.8930 O.2     1  UNL1       -0.2665
     27 N          60.4133   87.2886    6.9162 N.am    1  UNL1       -0.2766
     28 H          60.4554   86.7566    6.0175 H       1  UNL1        0.1553
     29 C          60.0286   91.6799    1.6599 C.ar    1  UNL1       -0.0001
     30 C          61.4231   91.4778    1.8102 C.ar    1  UNL1        0.0031
     31 C          61.9297   90.7960    2.9303 C.ar    1  UNL1        0.0375
     32 C          61.0207   90.3225    3.8719 C.ar    1  UNL1        0.1452
     33 O          61.2867   89.6691    4.9763 O.2     1  UNL1       -0.4492
     34 C          60.1405   89.4058    5.5789 C.ar    1  UNL1        0.1946
     35 C          59.0757   89.9151    4.8269 C.ar    1  UNL1        0.0202
     36 C          57.6125   89.8429    5.1440 C.3     1  UNL1        0.0345
     37 C          59.6701   90.5034    3.7274 C.ar    1  UNL1        0.0337
     38 C          59.1340   91.1747    2.6274 C.ar    1  UNL1        0.0028
     39 C          60.3339   93.1855   -0.3529 C.ar    1  UNL1       -0.0222
     40 C          59.7637   93.8464   -1.4560 C.ar    1  UNL1       -0.0043
     41 C          58.4051   93.7061   -1.7459 C.ar    1  UNL1       -0.0003
     42 C          57.5937   92.9173   -0.9311 C.ar    1  UNL1       -0.0000
     43 C          58.1379   92.2645    0.1759 C.ar    1  UNL1       -0.0003
     44 C          59.5046   92.3858    0.4746 C.ar    1  UNL1       -0.0040
     45 C          62.6868   92.9115   -1.1569 C.3     1  UNL1        0.0050
     46 C          61.7924   93.4299   -0.0351 C.3     1  UNL1        0.0264
@<TRIPOS>BOND
     1    45    46    1
     2    46    39    1
     3    39    40   ar
     4    40    41   ar
     5    41    42   ar
     6    42    43   ar
     7    43    44   ar
     8    44    29    1
     9    29    30   ar
    10    30    31   ar
    11    31    32   ar
    12    32    33   ar
    13    33    34   ar
    14    34    25    1
    15    25    26    2
    16    25    27   am
    17    27     1    1
    18     1     2   ar
    19     2     3   ar
    20     3     4   ar
    21     4     7    1
    22     7     8    1
    23     8     9    1
    24     9    10    1
    25    10    13    1
    26    13    14    1
    27    14    15    1
    28    15    16   ar
    29    16    17   ar
    30    17    18   ar
    31    18    19   ar
    32    19    21    1
    33    21    22    2
    34    21    23    1
    35    19    20   ar
    36    10    11    1
    37    11    12    1
    38     4     5   ar
    39     5     6   ar
    40    34    35   ar
    41    35    36    1
    42    35    37   ar
    43    37    38   ar
    44    44    39   ar
    45    38    29   ar
    46    37    32   ar
    47     6     1   ar
    48    12     7    1
    49    20    15   ar
    50    27    28    1
    51    23    24    1
@<TRIPOS>MOLECULE
*****
 46 51 0 0 0
SMALL
GASTEIGER

@<TRIPOS>ATOM
      1 C          59.5100   89.8851    5.6013 C.ar    1  UNL1        0.0702
      2 C          60.6869   89.9677    4.8414 C.ar    1  UNL1        0.0191
      3 C          60.6767   90.6052    3.5997 C.ar    1  UNL1        0.0356
      4 C          59.4843   91.1733    3.1190 C.ar    1  UNL1        0.1318
      5 N          58.3626   91.1038    3.8899 N.ar    1  UNL1       -0.2279
      6 C          58.3497   90.4890    5.1019 C.ar    1  UNL1        0.1149
      7 N          59.4334   91.8429    1.8404 N.pl3   1  UNL1       -0.2932
      8 C          59.6490   93.2963    1.7722 C.3     1  UNL1        0.0923
      9 C          60.2942   93.6693    0.4354 C.3     1  UNL1        0.0252
     10 C          59.4317   93.2303   -0.7757 C.3     1  UNL1        0.0472
     11 C          58.5044   92.0318   -0.4515 C.3     1  UNL1        0.0252
     12 C          59.0936   91.0998    0.6144 C.3     1  UNL1        0.0923
     13 C          60.3206   92.9230   -1.9990 C.3     1  UNL1        0.2054
     14 O          61.1287   91.7661   -1.7736 O.3     1  UNL1       -0.4755
     15 C          62.3815   91.7527   -1.1383 C.ar    1  UNL1        0.1388
     16 C          63.4892   91.3338   -1.8818 C.ar    1  UNL1        0.0369
     17 C          64.7592   91.3018   -1.3046 C.ar    1  UNL1        0.0033
     18 C          64.9368   91.6865    0.0257 C.ar    1  UNL1        0.0066
     19 C          63.8391   92.1072    0.7969 C.ar    1  UNL1        0.0785
     20 C          62.5636   92.1486    0.2022 C.ar    1  UNL1        0.0433
     21 C          64.0126   92.5272    2.2095 C.2     1  UNL1        0.3381
     22 O          64.6258   93.5956    2.4734 O.2     1  UNL1       -0.2451
     23 O          63.4999   91.7766    3.2670 O.3     1  UNL1       -0.4771
     24 H          62.9105   90.9667    3.1256 H       1  UNL1        0.2954
     25 C          59.9171   87.9120    7.1460 C.2     1  UNL1        0.2839
     26 O          60.1030   87.1167    6.1860 O.2     1  UNL1       -0.2665
     27 N          59.4863   89.2598    6.8960 N.am    1  UNL1       -0.2766
     28 H          59.0521   89.7902    7.6852 H       1  UNL1        0.1553
     29 C          60.9114   86.3004   12.8434 C.ar    1  UNL1       -0.0001
     30 C          59.9192   85.3497   12.4971 C.ar    1  UNL1        0.0031
     31 C          59.3561   85.3414   11.2090 C.ar    1  UNL1        0.0375
     32 C          59.8109   86.2847   10.2922 C.ar    1  UNL1        0.1452
     33 O          59.4175   86.4434    9.0523 O.2     1  UNL1       -0.4492
     34 C          60.1022   87.4478    8.5340 C.ar    1  UNL1        0.1946
     35 C          60.9854   87.9679    9.4870 C.ar    1  UNL1        0.0202
     36 C          61.9427   89.1097    9.3228 C.3     1  UNL1        0.0345
     37 C          60.7787   87.1993   10.6160 C.ar    1  UNL1        0.0337
     38 C          61.3590   87.2343   11.8849 C.ar    1  UNL1        0.0028
     39 C          62.6276   87.0959   14.5266 C.ar    1  UNL1       -0.0222
     40 C          63.1555   87.0253   15.8286 C.ar    1  UNL1       -0.0043
     41 C          62.5762   86.1921   16.7877 C.ar    1  UNL1       -0.0003
     42 C          61.4724   85.4067   16.4573 C.ar    1  UNL1       -0.0000
     43 C          60.9425   85.4525   15.1670 C.ar    1  UNL1       -0.0003
     44 C          61.5059   86.2938   14.1941 C.ar    1  UNL1       -0.0040
     45 C          64.2777   88.9438   14.1807 C.3     1  UNL1        0.0050
     46 C          63.3360   87.9540   13.5021 C.3     1  UNL1        0.0264
@<TRIPOS>BOND
     1    45    46    1
     2    46    39    1
     3    39    40   ar
     4    40    41   ar
     5    41    42   ar
     6    42    43   ar
     7    43    44   ar
     8    44    29    1
     9    29    30   ar
    10    30    31   ar
    11    31    32   ar
    12    32    33   ar
    13    33    34   ar
    14    34    25    1
    15    25    26    2
    16    25    27   am
    17    27     1    1
    18     1     2   ar
    19     2     3   ar
    20     3     4   ar
    21     4     7    1
    22     7     8    1
    23     8     9    1
    24     9    10    1
    25    10    13    1
    26    13    14    1
    27    14    15    1
    28    15    16   ar
    29    16    17   ar
    30    17    18   ar
    31    18    19   ar
    32    19    21    1
    33    21    22    2
    34    21    23    1
    35    19    20   ar
    36    10    11    1
    37    11    12    1
    38     4     5   ar
    39     5     6   ar
    40    34    35   ar
    41    35    36    1
    42    35    37   ar
    43    37    38   ar
    44    44    39   ar
    45    38    29   ar
    46    37    32   ar
    47     6     1   ar
    48    12     7    1
    49    20    15   ar
    50    27    28    1
    51    23    24    1
@<TRIPOS>MOLECULE
*****
 46 51 0 0 0
SMALL
GASTEIGER

@<TRIPOS>ATOM
      1 C          60.0903   89.8003    5.4831 C.ar    1  UNL1        0.0702
      2 C          61.1395   89.8771    4.5542 C.ar    1  UNL1        0.0191
      3 C          60.9593   90.5541    3.3470 C.ar    1  UNL1        0.0356
      4 C          59.7252   91.1677    3.0709 C.ar    1  UNL1        0.1318
      5 N          58.7327   91.1023    4.0025 N.ar    1  UNL1       -0.2279
      6 C          58.8863   90.4495    5.1846 C.ar    1  UNL1        0.1149
      7 N          59.5001   91.8791    1.8344 N.pl3   1  UNL1       -0.2932
      8 C          59.5478   93.3492    1.8228 C.3     1  UNL1        0.0923
      9 C          60.0405   93.8479    0.4622 C.3     1  UNL1        0.0252
     10 C          59.1391   93.3635   -0.7023 C.3     1  UNL1        0.0472
     11 C          58.3784   92.0549   -0.3706 C.3     1  UNL1        0.0252
     12 C          59.1490   91.1531    0.6014 C.3     1  UNL1        0.0923
     13 C          59.9574   93.2100   -2.0015 C.3     1  UNL1        0.2054
     14 O          61.0961   92.3706   -1.7994 O.3     1  UNL1       -0.4755
     15 C          62.3069   92.7613   -1.2040 C.ar    1  UNL1        0.1388
     16 C          63.2415   93.4332   -1.9980 C.ar    1  UNL1        0.0369
     17 C          64.4606   93.8476   -1.4607 C.ar    1  UNL1        0.0033
     18 C          64.7617   93.5928   -0.1214 C.ar    1  UNL1        0.0066
     19 C          63.8418   92.9149    0.6977 C.ar    1  UNL1        0.0785
     20 C          62.6088   92.5119    0.1502 C.ar    1  UNL1        0.0433
     21 C          64.1432   92.6438    2.1251 C.2     1  UNL1        0.3381
     22 O          64.4859   93.5904    2.8826 O.2     1  UNL1       -0.2451
     23 O          64.0438   91.3624    2.6661 O.3     1  UNL1       -0.4771
     24 H          63.6763   90.5772    2.1447 H       1  UNL1        0.2954
     25 C          59.6238   87.8823    7.0796 C.2     1  UNL1        0.2839
     26 O          58.6965   87.4239    6.3593 O.2     1  UNL1       -0.2665
     27 N          60.2456   89.1346    6.7483 N.am    1  UNL1       -0.2766
     28 H          60.7747   89.6332    7.4993 H       1  UNL1        0.1553
     29 C          61.4672   84.6426   11.7862 C.ar    1  UNL1       -0.0001
     30 C          60.9978   85.7968   12.4612 C.ar    1  UNL1        0.0031
     31 C          60.4569   86.8757   11.7404 C.ar    1  UNL1        0.0375
     32 C          60.3905   86.7664   10.3544 C.ar    1  UNL1        0.1452
     33 O          59.9265   87.6525    9.5077 O.2     1  UNL1       -0.4492
     34 C          60.0458   87.1526    8.2903 C.ar    1  UNL1        0.1946
     35 C          60.6172   85.8764    8.3501 C.ar    1  UNL1        0.0202
     36 C          60.9321   84.9587    7.2075 C.3     1  UNL1        0.0345
     37 C          60.8312   85.6485    9.6956 C.ar    1  UNL1        0.0337
     38 C          61.3724   84.5596   10.3806 C.ar    1  UNL1        0.0028
     39 C          61.2298   82.3938   12.9256 C.ar    1  UNL1       -0.0222
     40 C          61.8190   81.3575   13.6724 C.ar    1  UNL1       -0.0043
     41 C          63.1681   81.4141   14.0278 C.ar    1  UNL1       -0.0003
     42 C          63.9440   82.5118   13.6566 C.ar    1  UNL1       -0.0000
     43 C          63.3743   83.5563   12.9272 C.ar    1  UNL1       -0.0003
     44 C          62.0220   83.5095   12.5518 C.ar    1  UNL1       -0.0040
     45 C          59.4745   81.4248   11.4297 C.3     1  UNL1        0.0050
     46 C          59.7477   82.3239   12.6314 C.3     1  UNL1        0.0264
@<TRIPOS>BOND
     1    45    46    1
     2    46    39    1
     3    39    40   ar
     4    40    41   ar
     5    41    42   ar
     6    42    43   ar
     7    43    44   ar
     8    44    29    1
     9    29    30   ar
    10    30    31   ar
    11    31    32   ar
    12    32    33   ar
    13    33    34   ar
    14    34    25    1
    15    25    26    2
    16    25    27   am
    17    27     1    1
    18     1     2   ar
    19     2     3   ar
    20     3     4   ar
    21     4     7    1
    22     7     8    1
    23     8     9    1
    24     9    10    1
    25    10    13    1
    26    13    14    1
    27    14    15    1
    28    15    16   ar
    29    16    17   ar
    30    17    18   ar
    31    18    19   ar
    32    19    21    1
    33    21    22    2
    34    21    23    1
    35    19    20   ar
    36    10    11    1
    37    11    12    1
    38     4     5   ar
    39     5     6   ar
    40    34    35   ar
    41    35    36    1
    42    35    37   ar
    43    37    38   ar
    44    44    39   ar
    45    38    29   ar
    46    37    32   ar
    47     6     1   ar
    48    12     7    1
    49    20    15   ar
    50    27    28    1
    51    23    24    1
@<TRIPOS>MOLECULE
*****
 46 51 0 0 0
SMALL
GASTEIGER

@<TRIPOS>ATOM
      1 C          60.9771   87.7929    8.7587 C.ar    1  UNL1        0.0702
      2 C          59.8827   87.0912    9.2870 C.ar    1  UNL1        0.0191
      3 C          59.8972   86.6673   10.6168 C.ar    1  UNL1        0.0356
      4 C          61.0089   86.9560   11.4271 C.ar    1  UNL1        0.1318
      5 N          62.0458   87.6637   10.8967 N.ar    1  UNL1       -0.2279
      6 C          62.0527   88.0871    9.6053 C.ar    1  UNL1        0.1149
      7 N          61.0610   86.5365   12.8080 N.pl3   1  UNL1       -0.2932
      8 C          59.8107   86.2508   13.5283 C.3     1  UNL1        0.0923
      9 C          60.0491   85.1704   14.5859 C.3     1  UNL1        0.0252
     10 C          61.1383   85.5812   15.6098 C.3     1  UNL1        0.0472
     11 C          62.1442   86.6119   15.0379 C.3     1  UNL1        0.0252
     12 C          62.3461   86.4642   13.5249 C.3     1  UNL1        0.0923
     13 C          61.8737   84.3392   16.1555 C.3     1  UNL1        0.2054
     14 O          63.0155   84.0218   15.3571 O.3     1  UNL1       -0.4755
     15 C          63.0944   82.9812   14.4168 C.ar    1  UNL1        0.1388
     16 C          62.8163   81.6817   14.8519 C.ar    1  UNL1        0.0369
     17 C          62.8764   80.6083   13.9624 C.ar    1  UNL1        0.0033
     18 C          63.2183   80.8213   12.6256 C.ar    1  UNL1        0.0066
     19 C          63.5073   82.1172   12.1632 C.ar    1  UNL1        0.0785
     20 C          63.4314   83.1958   13.0650 C.ar    1  UNL1        0.0433
     21 C          63.8640   82.3612   10.7437 C.2     1  UNL1        0.3381
     22 O          64.6267   81.5578   10.1435 O.2     1  UNL1       -0.2451
     23 O          63.3646   83.4558   10.0388 O.3     1  UNL1       -0.4771
     24 H          62.6690   84.0813   10.4238 H       1  UNL1        0.2954
     25 C          59.8664   88.8967    6.7605 C.2     1  UNL1        0.2839
     26 O          58.7204   88.8333    7.2814 O.2     1  UNL1       -0.2665
     27 N          60.9885   88.2688    7.4017 N.am    1  UNL1       -0.2766
     28 H          61.8360   88.0703    6.8230 H       1  UNL1        0.1553
     29 C          60.2552   91.7625    1.4990 C.ar    1  UNL1       -0.0001
     30 C          61.6225   91.4495    1.7009 C.ar    1  UNL1        0.0031
     31 C          62.0342   90.7555    2.8520 C.ar    1  UNL1        0.0375
     32 C          61.0591   90.3817    3.7721 C.ar    1  UNL1        0.1452
     33 O          61.2341   89.7354    4.8987 O.2     1  UNL1       -0.4492
     34 C          60.0511   89.5825    5.4674 C.ar    1  UNL1        0.1946
     35 C          59.0572   90.1597    4.6688 C.ar    1  UNL1        0.0202
     36 C          57.5836   90.2164    4.9375 C.3     1  UNL1        0.0345
     37 C          59.7336   90.6701    3.5778 C.ar    1  UNL1        0.0337
     38 C          59.2910   91.3566    2.4461 C.ar    1  UNL1        0.0028
     39 C          60.7543   93.1613   -0.5518 C.ar    1  UNL1       -0.0222
     40 C          60.2771   93.8421   -1.6866 C.ar    1  UNL1       -0.0043
     41 C          58.9168   93.8356   -2.0012 C.ar    1  UNL1       -0.0003
     42 C          58.0120   93.1632   -1.1804 C.ar    1  UNL1       -0.0000
     43 C          58.4641   92.4935   -0.0425 C.ar    1  UNL1       -0.0003
     44 C          59.8303   92.4804    0.2817 C.ar    1  UNL1       -0.0040
     45 C          63.0777   92.5894   -1.2812 C.3     1  UNL1        0.0050
     46 C          62.2244   93.2618   -0.2102 C.3     1  UNL1        0.0264
@<TRIPOS>BOND
     1    45    46    1
     2    46    39    1
     3    39    40   ar
     4    40    41   ar
     5    41    42   ar
     6    42    43   ar
     7    43    44   ar
     8    44    29    1
     9    29    30   ar
    10    30    31   ar
    11    31    32   ar
    12    32    33   ar
    13    33    34   ar
    14    34    25    1
    15    25    26    2
    16    25    27   am
    17    27     1    1
    18     1     2   ar
    19     2     3   ar
    20     3     4   ar
    21     4     7    1
    22     7     8    1
    23     8     9    1
    24     9    10    1
    25    10    13    1
    26    13    14    1
    27    14    15    1
    28    15    16   ar
    29    16    17   ar
    30    17    18   ar
    31    18    19   ar
    32    19    21    1
    33    21    22    2
    34    21    23    1
    35    19    20   ar
    36    10    11    1
    37    11    12    1
    38     4     5   ar
    39     5     6   ar
    40    34    35   ar
    41    35    36    1
    42    35    37   ar
    43    37    38   ar
    44    44    39   ar
    45    38    29   ar
    46    37    32   ar
    47     6     1   ar
    48    12     7    1
    49    20    15   ar
    50    27    28    1
    51    23    24    1
@<TRIPOS>MOLECULE
*****
 46 51 0 0 0
SMALL
GASTEIGER

@<TRIPOS>ATOM
      1 C          61.7907   88.4348    8.7784 C.ar    1  UNL1        0.0702
      2 C          62.5838   89.1597    9.6812 C.ar    1  UNL1        0.0191
      3 C          62.7153   88.7283   11.0021 C.ar    1  UNL1        0.0356
      4 C          62.0582   87.5585   11.4209 C.ar    1  UNL1        0.1318
      5 N          61.3175   86.8581   10.5164 N.ar    1  UNL1       -0.2279
      6 C          61.1762   87.2588    9.2254 C.ar    1  UNL1        0.1149
      7 N          62.1709   87.0786   12.7783 N.pl3   1  UNL1       -0.2932
      8 C          62.1968   88.0418   13.8897 C.3     1  UNL1        0.0923
      9 C          61.5723   87.4179   15.1400 C.3     1  UNL1        0.0252
     10 C          62.3036   86.1229   15.5779 C.3     1  UNL1        0.0472
     11 C          63.0309   85.4166   14.4060 C.3     1  UNL1        0.0252
     12 C          62.3361   85.6415   13.0574 C.3     1  UNL1        0.0923
     13 C          61.3304   85.1560   16.2842 C.3     1  UNL1        0.2054
     14 O          60.8841   84.1302   15.3950 O.3     1  UNL1       -0.4755
     15 C          59.8431   84.2520   14.4598 C.ar    1  UNL1        0.1388
     16 C          59.7227   83.2618   13.4799 C.ar    1  UNL1        0.0369
     17 C          58.7068   83.3285   12.5258 C.ar    1  UNL1        0.0033
     18 C          57.7989   84.3892   12.5384 C.ar    1  UNL1        0.0066
     19 C          57.9004   85.4005   13.5098 C.ar    1  UNL1        0.0785
     20 C          58.9209   85.3179   14.4763 C.ar    1  UNL1        0.0433
     21 C          56.9385   86.5298   13.5418 C.2     1  UNL1        0.3381
     22 O          57.3638   87.7150   13.5004 O.2     1  UNL1       -0.2451
     23 O          55.5612   86.3198   13.6019 O.3     1  UNL1       -0.4771
     24 H          55.1463   85.3997   13.5337 H       1  UNL1        0.2954
     25 C          60.3888   89.0430    6.7511 C.2     1  UNL1        0.2839
     26 O          59.3221   88.6397    7.2879 O.2     1  UNL1       -0.2665
     27 N          61.6516   88.8324    7.4034 N.am    1  UNL1       -0.2766
     28 H          62.5190   88.8901    6.8230 H       1  UNL1        0.1553
     29 C          59.8517   91.7340    1.4110 C.ar    1  UNL1       -0.0001
     30 C          61.2615   91.6042    1.4712 C.ar    1  UNL1        0.0031
     31 C          61.8776   91.0117    2.5873 C.ar    1  UNL1        0.0375
     32 C          61.0606   90.5528    3.6163 C.ar    1  UNL1        0.1452
     33 O          61.4344   89.9768    4.7325 O.2     1  UNL1       -0.4492
     34 C          60.3471   89.6973    5.4295 C.ar    1  UNL1        0.1946
     35 C          59.2090   90.1136    4.7297 C.ar    1  UNL1        0.0202
     36 C          57.7766   89.9937    5.1549 C.3     1  UNL1        0.0345
     37 C          59.6959   90.6638    3.5598 C.ar    1  UNL1        0.0337
     38 C          59.0524   91.2456    2.4665 C.ar    1  UNL1        0.0028
     39 C          59.8890   93.2854   -0.5898 C.ar    1  UNL1       -0.0222
     40 C          59.2122   93.8443   -1.6891 C.ar    1  UNL1       -0.0043
     41 C          57.8997   93.4695   -1.9828 C.ar    1  UNL1       -0.0003
     42 C          57.2390   92.5441   -1.1756 C.ar    1  UNL1       -0.0000
     43 C          57.8887   91.9886   -0.0724 C.ar    1  UNL1       -0.0003
     44 C          59.2126   92.3460    0.2300 C.ar    1  UNL1       -0.0040
     45 C          62.2775   93.3309   -1.3317 C.3     1  UNL1        0.0050
     46 C          61.2815   93.7801   -0.2671 C.3     1  UNL1        0.0264
@<TRIPOS>BOND
     1    45    46    1
     2    46    39    1
     3    39    40   ar
     4    40    41   ar
     5    41    42   ar
     6    42    43   ar
     7    43    44   ar
     8    44    29    1
     9    29    30   ar
    10    30    31   ar
    11    31    32   ar
    12    32    33   ar
    13    33    34   ar
    14    34    25    1
    15    25    26    2
    16    25    27   am
    17    27     1    1
    18     1     2   ar
    19     2     3   ar
    20     3     4   ar
    21     4     7    1
    22     7     8    1
    23     8     9    1
    24     9    10    1
    25    10    13    1
    26    13    14    1
    27    14    15    1
    28    15    16   ar
    29    16    17   ar
    30    17    18   ar
    31    18    19   ar
    32    19    21    1
    33    21    22    2
    34    21    23    1
    35    19    20   ar
    36    10    11    1
    37    11    12    1
    38     4     5   ar
    39     5     6   ar
    40    34    35   ar
    41    35    36    1
    42    35    37   ar
    43    37    38   ar
    44    44    39   ar
    45    38    29   ar
    46    37    32   ar
    47     6     1   ar
    48    12     7    1
    49    20    15   ar
    50    27    28    1
    51    23    24    1
