@<TRIPOS>MOLECULE
*****
 35 39 0 0 0
SMALL
GASTEIGER

@<TRIPOS>ATOM
      1 C         -21.0083   -7.8304   -9.3054 C.2     1  UNL1        0.2512
      2 O         -21.8886   -7.5973   -8.4322 O.2     1  UNL1       -0.2698
      3 N         -21.0466   -7.1155  -10.5556 N.am    1  UNL1       -0.2424
      4 C         -21.3684   -5.6846  -10.5612 C.3     1  UNL1        0.1437
      5 C         -22.6336   -5.4030  -11.3747 C.3     1  UNL1        0.2269
      6 O         -23.6379   -6.3873  -11.1406 O.3     1  UNL1       -0.4738
      7 C         -23.6535   -7.6745  -11.7056 C.ar    1  UNL1        0.1388
      8 C         -24.9050   -8.2710  -11.8901 C.ar    1  UNL1        0.0367
      9 C         -25.0202   -9.5319  -12.4746 C.ar    1  UNL1        0.0031
     10 C         -23.8772  -10.2326  -12.8849 C.ar    1  UNL1        0.0001
     11 C         -22.6144   -9.6518  -12.6829 C.ar    1  UNL1        0.0031
     12 C         -22.4816   -8.3901  -12.0751 C.ar    1  UNL1        0.0633
     13 C         -21.0858   -7.8702  -11.8148 C.3     1  UNL1        0.2658
     14 F         -20.6716   -7.0822  -12.8757 F       1  UNL1       -0.2095
     15 C         -23.9998  -11.5744  -13.5086 C.ar    1  UNL1        0.0015
     16 C         -25.2771  -12.1825  -13.6630 C.ar    1  UNL1        0.0016
     17 C         -25.4043  -13.4546  -14.2518 C.ar    1  UNL1        0.0206
     18 C         -24.2427  -14.0921  -14.6742 C.ar    1  UNL1        0.0985
     19 N         -24.1306  -15.3003  -15.2546 N.ar    1  UNL1       -0.2241
     20 C         -22.7903  -15.4192  -15.4477 C.ar    1  UNL1        0.1750
     21 N         -22.0845  -14.3468  -15.0148 N.ar    1  UNL1       -0.3349
     22 C         -23.0175  -13.5190  -14.5306 C.ar    1  UNL1        0.0757
     23 C         -22.8453  -12.2635  -13.9547 C.ar    1  UNL1        0.0185
     24 H         -21.0509  -14.2030  -15.0522 H       1  UNL1        0.1675
     25 C         -17.8283   -9.9783   -6.0840 C.3     1  UNL1        0.0324
     26 C         -18.3958   -9.9005   -7.4775 C.ar    1  UNL1       -0.0046
     27 C         -19.3963   -8.9504   -7.7478 C.ar    1  UNL1        0.0015
     28 C         -19.9589   -8.8378   -9.0281 C.ar    1  UNL1        0.0534
     29 C         -19.5341   -9.7103  -10.0381 C.ar    1  UNL1        0.0058
     30 C         -18.5513  -10.6663   -9.7809 C.ar    1  UNL1        0.0182
     31 C         -17.9745  -10.7802   -8.5057 C.ar    1  UNL1        0.1018
     32 S         -16.7277  -12.0115   -8.2198 S.O2    1  UNL1        0.0101
     33 C         -15.4707  -12.0184   -9.4835 C.3     1  UNL1        0.1816
     34 O         -17.3622  -13.3736   -8.2002 O.2     1  UNL1       -0.1686
     35 O         -16.0642  -11.7483   -6.8975 O.2     1  UNL1       -0.1686
@<TRIPOS>BOND
     1    25    26    1
     2    26    27   ar
     3    27    28   ar
     4    28     1    1
     5     1     2    2
     6     1     3   am
     7     3     4    1
     8     4     5    1
     9     5     6    1
    10     6     7    1
    11     7     8   ar
    12     8     9   ar
    13     9    10   ar
    14    10    15    1
    15    15    16   ar
    16    16    17   ar
    17    17    18   ar
    18    18    19   ar
    19    19    20   ar
    20    20    21   ar
    21    21    22   ar
    22    22    23   ar
    23    10    11   ar
    24    11    12   ar
    25    12    13    1
    26    13    14    1
    27    28    29   ar
    28    29    30   ar
    29    30    31   ar
    30    31    32    1
    31    32    33    1
    32    32    34    2
    33    32    35    2
    34    31    26   ar
    35    13     3    1
    36    12     7   ar
    37    23    15   ar
    38    22    18   ar
    39    21    24    1
@<TRIPOS>MOLECULE
*****
 35 39 0 0 0
SMALL
GASTEIGER

@<TRIPOS>ATOM
      1 C         -24.5042   -8.6776  -14.1446 C.2     1  UNL1        0.2512
      2 O         -24.0485   -7.8077  -14.9366 O.2     1  UNL1       -0.2698
      3 N         -25.2231   -8.2558  -12.9695 N.am    1  UNL1       -0.2424
      4 C         -26.1712   -7.1408  -13.0629 C.3     1  UNL1        0.1437
      5 C         -25.7605   -5.9844  -12.1487 C.3     1  UNL1        0.2269
      6 O         -24.3525   -5.7641  -12.1814 O.3     1  UNL1       -0.4738
      7 C         -23.3983   -6.5403  -11.5005 C.ar    1  UNL1        0.1388
      8 C         -22.2104   -5.9024  -11.1285 C.ar    1  UNL1        0.0367
      9 C         -21.2211   -6.5837  -10.4202 C.ar    1  UNL1        0.0031
     10 C         -21.3961   -7.9303  -10.0709 C.ar    1  UNL1        0.0001
     11 C         -22.5757   -8.5860  -10.4598 C.ar    1  UNL1        0.0031
     12 C         -23.5729   -7.9177  -11.1932 C.ar    1  UNL1        0.0633
     13 C         -24.7745   -8.7145  -11.6485 C.3     1  UNL1        0.2658
     14 F         -25.7926   -8.6051  -10.7160 F       1  UNL1       -0.2095
     15 C         -20.3435   -8.6552   -9.3153 C.ar    1  UNL1        0.0015
     16 C         -20.0240   -8.2756   -7.9815 C.ar    1  UNL1        0.0016
     17 C         -19.0270   -8.9555   -7.2569 C.ar    1  UNL1        0.0206
     18 C         -18.3691  -10.0053   -7.8886 C.ar    1  UNL1        0.0985
     19 N         -17.3911  -10.7832   -7.3908 N.ar    1  UNL1       -0.2241
     20 C         -17.1224  -11.6272   -8.4219 C.ar    1  UNL1        0.1750
     21 N         -17.8859  -11.4016   -9.5182 N.ar    1  UNL1       -0.3349
     22 C         -18.6673  -10.3752   -9.1631 C.ar    1  UNL1        0.0757
     23 C         -19.6453   -9.7315   -9.9161 C.ar    1  UNL1        0.0185
     24 H         -17.8663  -11.9128  -10.4284 H       1  UNL1        0.1675
     25 C         -26.1792  -13.3995  -14.0960 C.3     1  UNL1        0.0324
     26 C         -25.0766  -12.4256  -14.4215 C.ar    1  UNL1       -0.0046
     27 C         -25.2788  -11.0607  -14.1517 C.ar    1  UNL1        0.0015
     28 C         -24.2848  -10.1126  -14.4372 C.ar    1  UNL1        0.0534
     29 C         -23.0884  -10.5371  -15.0290 C.ar    1  UNL1        0.0058
     30 C         -22.8791  -11.8865  -15.3140 C.ar    1  UNL1        0.0182
     31 C         -23.8634  -12.8446  -15.0225 C.ar    1  UNL1        0.1018
     32 S         -23.5577  -14.5518  -15.4026 S.O2    1  UNL1        0.0101
     33 C         -21.9642  -14.8095  -16.1584 C.3     1  UNL1        0.1816
     34 O         -24.6030  -15.0478  -16.3614 O.2     1  UNL1       -0.1686
     35 O         -23.6144  -15.3599  -14.1369 O.2     1  UNL1       -0.1686
@<TRIPOS>BOND
     1    25    26    1
     2    26    27   ar
     3    27    28   ar
     4    28     1    1
     5     1     2    2
     6     1     3   am
     7     3     4    1
     8     4     5    1
     9     5     6    1
    10     6     7    1
    11     7     8   ar
    12     8     9   ar
    13     9    10   ar
    14    10    15    1
    15    15    16   ar
    16    16    17   ar
    17    17    18   ar
    18    18    19   ar
    19    19    20   ar
    20    20    21   ar
    21    21    22   ar
    22    22    23   ar
    23    10    11   ar
    24    11    12   ar
    25    12    13    1
    26    13    14    1
    27    28    29   ar
    28    29    30   ar
    29    30    31   ar
    30    31    32    1
    31    32    33    1
    32    32    34    2
    33    32    35    2
    34    31    26   ar
    35    13     3    1
    36    12     7   ar
    37    23    15   ar
    38    22    18   ar
    39    21    24    1
@<TRIPOS>MOLECULE
*****
 35 39 0 0 0
SMALL
GASTEIGER

@<TRIPOS>ATOM
      1 C         -24.5412   -8.6270  -14.1581 C.2     1  UNL1        0.2512
      2 O         -24.0848   -7.7595  -14.9524 O.2     1  UNL1       -0.2698
      3 N         -25.2564   -8.2014  -12.9821 N.am    1  UNL1       -0.2424
      4 C         -26.2015   -7.0838  -13.0751 C.3     1  UNL1        0.1437
      5 C         -25.7855   -5.9273  -12.1634 C.3     1  UNL1        0.2269
      6 O         -24.3769   -5.7110  -12.1995 O.3     1  UNL1       -0.4738
      7 C         -23.4235   -6.4890  -11.5196 C.ar    1  UNL1        0.1388
      8 C         -22.2330   -5.8539  -11.1511 C.ar    1  UNL1        0.0367
      9 C         -21.2440   -6.5369  -10.4440 C.ar    1  UNL1        0.0031
     10 C         -21.4221   -7.8825  -10.0923 C.ar    1  UNL1        0.0001
     11 C         -22.6044   -8.5354  -10.4777 C.ar    1  UNL1        0.0031
     12 C         -23.6012   -7.8654  -11.2099 C.ar    1  UNL1        0.0633
     13 C         -24.8062   -8.6594  -11.6614 C.3     1  UNL1        0.2658
     14 F         -25.8219   -8.5458  -10.7269 F       1  UNL1       -0.2095
     15 C         -20.3699   -8.6093   -9.3380 C.ar    1  UNL1        0.0015
     16 C         -19.5597   -9.5818   -9.9884 C.ar    1  UNL1        0.0016
     17 C         -18.5603  -10.2775   -9.2822 C.ar    1  UNL1        0.0206
     18 C         -18.3950   -9.9818   -7.9334 C.ar    1  UNL1        0.0985
     19 N         -17.5122  -10.5214   -7.0739 N.ar    1  UNL1       -0.2241
     20 C         -17.7911   -9.8767   -5.9102 C.ar    1  UNL1        0.1750
     21 N         -18.7963   -8.9749   -6.0193 N.ar    1  UNL1       -0.3349
     22 C         -19.1647   -9.0541   -7.3031 C.ar    1  UNL1        0.0757
     23 C         -20.1635   -8.3429   -7.9621 C.ar    1  UNL1        0.0185
     24 H         -19.1901   -8.3614   -5.2718 H       1  UNL1        0.1675
     25 C         -26.2183  -13.3475  -14.0733 C.3     1  UNL1        0.0324
     26 C         -25.1194  -12.3754  -14.4160 C.ar    1  UNL1       -0.0046
     27 C         -25.3173  -11.0095  -14.1479 C.ar    1  UNL1        0.0015
     28 C         -24.3265  -10.0630  -14.4492 C.ar    1  UNL1        0.0534
     29 C         -23.1381  -10.4901  -15.0551 C.ar    1  UNL1        0.0058
     30 C         -22.9333  -11.8405  -15.3386 C.ar    1  UNL1        0.0182
     31 C         -23.9144  -12.7970  -15.0314 C.ar    1  UNL1        0.1018
     32 S         -23.6147  -14.5056  -15.4101 S.O2    1  UNL1        0.0101
     33 C         -22.0111  -14.7731  -16.1408 C.3     1  UNL1        0.1816
     34 O         -24.6479  -14.9923  -16.3867 O.2     1  UNL1       -0.1686
     35 O         -23.6975  -15.3158  -14.1472 O.2     1  UNL1       -0.1686
@<TRIPOS>BOND
     1    25    26    1
     2    26    27   ar
     3    27    28   ar
     4    28     1    1
     5     1     2    2
     6     1     3   am
     7     3     4    1
     8     4     5    1
     9     5     6    1
    10     6     7    1
    11     7     8   ar
    12     8     9   ar
    13     9    10   ar
    14    10    15    1
    15    15    16   ar
    16    16    17   ar
    17    17    18   ar
    18    18    19   ar
    19    19    20   ar
    20    20    21   ar
    21    21    22   ar
    22    22    23   ar
    23    10    11   ar
    24    11    12   ar
    25    12    13    1
    26    13    14    1
    27    28    29   ar
    28    29    30   ar
    29    30    31   ar
    30    31    32    1
    31    32    33    1
    32    32    34    2
    33    32    35    2
    34    31    26   ar
    35    13     3    1
    36    12     7   ar
    37    23    15   ar
    38    22    18   ar
    39    21    24    1
@<TRIPOS>MOLECULE
*****
 35 39 0 0 0
SMALL
GASTEIGER

@<TRIPOS>ATOM
      1 C         -22.1170   -9.7220  -11.9662 C.2     1  UNL1        0.2512
      2 O         -22.1813   -9.6868  -10.7067 O.2     1  UNL1       -0.2698
      3 N         -21.5398   -8.6088  -12.6756 N.am    1  UNL1       -0.2424
      4 C         -20.3358   -7.9597  -12.1465 C.3     1  UNL1        0.1437
      5 C         -20.5939   -6.4853  -11.8285 C.3     1  UNL1        0.2269
      6 O         -21.8674   -6.2954  -11.2167 O.3     1  UNL1       -0.4738
      7 C         -23.0967   -6.2843  -11.8988 C.ar    1  UNL1        0.1388
      8 C         -24.1272   -5.5242  -11.3363 C.ar    1  UNL1        0.0367
      9 C         -25.3704   -5.4267  -11.9605 C.ar    1  UNL1        0.0031
     10 C         -25.6148   -6.0975  -13.1672 C.ar    1  UNL1        0.0001
     11 C         -24.5936   -6.8818  -13.7282 C.ar    1  UNL1        0.0031
     12 C         -23.3417   -7.0067  -13.0988 C.ar    1  UNL1        0.0633
     13 C         -22.3239   -7.9367  -13.7196 C.3     1  UNL1        0.2658
     14 F         -21.4991   -7.2271  -14.5766 F       1  UNL1       -0.2095
     15 C         -26.9378   -5.9925  -13.8327 C.ar    1  UNL1        0.0015
     16 C         -27.8828   -7.0513  -13.7271 C.ar    1  UNL1        0.0016
     17 C         -29.1394   -6.9624  -14.3551 C.ar    1  UNL1        0.0206
     18 C         -29.4217   -5.8089  -15.0789 C.ar    1  UNL1        0.0985
     19 N         -30.5471   -5.5152  -15.7547 N.ar    1  UNL1       -0.2241
     20 C         -30.2796   -4.2845  -16.2661 C.ar    1  UNL1        0.1750
     21 N         -29.0516   -3.8171  -15.9359 N.ar    1  UNL1       -0.3349
     22 C         -28.5249   -4.7919  -15.1858 C.ar    1  UNL1        0.0757
     23 C         -27.2717   -4.8372  -14.5814 C.ar    1  UNL1        0.0185
     24 H         -28.6193   -2.9059  -16.2062 H       1  UNL1        0.1675
     25 C         -21.2989  -13.7218  -14.8706 C.3     1  UNL1        0.0324
     26 C         -22.2704  -12.8596  -14.1071 C.ar    1  UNL1       -0.0046
     27 C         -21.7797  -11.7385  -13.4150 C.ar    1  UNL1        0.0015
     28 C         -22.6417  -10.9041  -12.6876 C.ar    1  UNL1        0.0534
     29 C         -24.0054  -11.2182  -12.6295 C.ar    1  UNL1        0.0058
     30 C         -24.5043  -12.3346  -13.3008 C.ar    1  UNL1        0.0182
     31 C         -23.6515  -13.1701  -14.0400 C.ar    1  UNL1        0.1018
     32 S         -24.3267  -14.5821  -14.8785 S.O2    1  UNL1        0.0101
     33 C         -24.5114  -14.3132  -16.6308 C.3     1  UNL1        0.1816
     34 O         -25.6857  -14.8958  -14.3193 O.2     1  UNL1       -0.1686
     35 O         -23.4170  -15.7610  -14.6766 O.2     1  UNL1       -0.1686
@<TRIPOS>BOND
     1    25    26    1
     2    26    27   ar
     3    27    28   ar
     4    28     1    1
     5     1     2    2
     6     1     3   am
     7     3     4    1
     8     4     5    1
     9     5     6    1
    10     6     7    1
    11     7     8   ar
    12     8     9   ar
    13     9    10   ar
    14    10    15    1
    15    15    16   ar
    16    16    17   ar
    17    17    18   ar
    18    18    19   ar
    19    19    20   ar
    20    20    21   ar
    21    21    22   ar
    22    22    23   ar
    23    10    11   ar
    24    11    12   ar
    25    12    13    1
    26    13    14    1
    27    28    29   ar
    28    29    30   ar
    29    30    31   ar
    30    31    32    1
    31    32    33    1
    32    32    34    2
    33    32    35    2
    34    31    26   ar
    35    13     3    1
    36    12     7   ar
    37    23    15   ar
    38    22    18   ar
    39    21    24    1
@<TRIPOS>MOLECULE
*****
 35 39 0 0 0
SMALL
GASTEIGER

@<TRIPOS>ATOM
      1 C         -23.3982   -7.1623  -10.9610 C.2     1  UNL1        0.2512
      2 O         -22.2810   -6.6136  -11.1672 O.2     1  UNL1       -0.2698
      3 N         -23.5214   -8.1419   -9.9118 N.am    1  UNL1       -0.2424
      4 C         -22.8476   -7.9163   -8.6288 C.3     1  UNL1        0.1437
      5 C         -21.8308   -9.0211   -8.3337 C.3     1  UNL1        0.2269
      6 O         -21.0982   -9.3857   -9.5010 O.3     1  UNL1       -0.4738
      7 C         -21.5809  -10.2111  -10.5316 C.ar    1  UNL1        0.1388
      8 C         -20.6339  -10.9484  -11.2498 C.ar    1  UNL1        0.0367
      9 C         -21.0231  -11.8192  -12.2671 C.ar    1  UNL1        0.0031
     10 C         -22.3779  -11.9686  -12.5957 C.ar    1  UNL1        0.0001
     11 C         -23.3346  -11.2153  -11.8957 C.ar    1  UNL1        0.0031
     12 C         -22.9550  -10.3170  -10.8818 C.ar    1  UNL1        0.0633
     13 C         -24.0344   -9.4798  -10.2336 C.3     1  UNL1        0.2658
     14 F         -24.5034  -10.1153   -9.0960 F       1  UNL1       -0.2095
     15 C         -22.7925  -12.8969  -13.6777 C.ar    1  UNL1        0.0015
     16 C         -21.8181  -13.5000  -14.5215 C.ar    1  UNL1        0.0016
     17 C         -22.2005  -14.3805  -15.5509 C.ar    1  UNL1        0.0206
     18 C         -23.5576  -14.6375  -15.7127 C.ar    1  UNL1        0.0985
     19 N         -24.1419  -15.4360  -16.6241 N.ar    1  UNL1       -0.2241
     20 C         -25.4634  -15.3127  -16.3303 C.ar    1  UNL1        0.1750
     21 N         -25.7105  -14.4817  -15.2892 N.ar    1  UNL1       -0.3349
     22 C         -24.4963  -14.0656  -14.9115 C.ar    1  UNL1        0.0757
     23 C         -24.1633  -13.1899  -13.8819 C.ar    1  UNL1        0.0185
     24 H         -26.6364  -14.2270  -14.8790 H       1  UNL1        0.1675
     25 C         -28.1670   -7.8946  -12.3123 C.3     1  UNL1        0.0324
     26 C         -26.8801   -7.1305  -12.4864 C.ar    1  UNL1       -0.0046
     27 C         -25.7772   -7.4726  -11.6845 C.ar    1  UNL1        0.0015
     28 C         -24.5566   -6.7915  -11.8059 C.ar    1  UNL1        0.0534
     29 C         -24.4538   -5.7353  -12.7200 C.ar    1  UNL1        0.0058
     30 C         -25.5439   -5.3766  -13.5131 C.ar    1  UNL1        0.0182
     31 C         -26.7666   -6.0588  -13.4067 C.ar    1  UNL1        0.1018
     32 S         -28.1299   -5.5696  -14.4337 S.O2    1  UNL1        0.0101
     33 C         -27.6118   -4.6261  -15.8544 C.3     1  UNL1        0.1816
     34 O         -29.0761   -4.7147  -13.6386 O.2     1  UNL1       -0.1686
     35 O         -28.8499   -6.7956  -14.9200 O.2     1  UNL1       -0.1686
@<TRIPOS>BOND
     1    25    26    1
     2    26    27   ar
     3    27    28   ar
     4    28     1    1
     5     1     2    2
     6     1     3   am
     7     3     4    1
     8     4     5    1
     9     5     6    1
    10     6     7    1
    11     7     8   ar
    12     8     9   ar
    13     9    10   ar
    14    10    15    1
    15    15    16   ar
    16    16    17   ar
    17    17    18   ar
    18    18    19   ar
    19    19    20   ar
    20    20    21   ar
    21    21    22   ar
    22    22    23   ar
    23    10    11   ar
    24    11    12   ar
    25    12    13    1
    26    13    14    1
    27    28    29   ar
    28    29    30   ar
    29    30    31   ar
    30    31    32    1
    31    32    33    1
    32    32    34    2
    33    32    35    2
    34    31    26   ar
    35    13     3    1
    36    12     7   ar
    37    23    15   ar
    38    22    18   ar
    39    21    24    1
