@<TRIPOS>MOLECULE
*****
 32 35 0 0 0
SMALL
GASTEIGER

@<TRIPOS>ATOM
      1 C         -23.7501  -12.0937  -13.8343 C.ar    1  UNL1        0.0149
      2 C         -24.5255  -11.2428  -13.0144 C.ar    1  UNL1        0.0158
      3 C         -23.9045  -10.5869  -11.9494 C.ar    1  UNL1        0.0598
      4 C         -22.5664  -10.7801  -11.6856 C.ar    1  UNL1        0.0177
      5 C         -21.7661  -11.6029  -12.4704 C.ar    1  UNL1        0.0079
      6 C         -22.3591  -12.2631  -13.5617 C.ar    1  UNL1        0.0330
      7 BR        -21.2233  -13.3738  -14.6380 Br      1  UNL1       -0.0492
      8 C         -22.2738  -10.0193  -10.5785 C.ar    1  UNL1        0.0177
      9 C         -21.0788   -9.8215   -9.8894 C.ar    1  UNL1        0.0082
     10 C         -21.0965   -8.9567   -8.7817 C.ar    1  UNL1        0.0347
     11 BR        -19.4843   -8.6157   -7.8189 Br      1  UNL1       -0.0490
     12 C         -22.2973   -8.3299   -8.3844 C.ar    1  UNL1        0.0082
     13 C         -23.4897   -8.5475   -9.0977 C.ar    1  UNL1        0.0177
     14 C         -23.4493   -9.3930  -10.2135 C.ar    1  UNL1        0.0600
     15 N         -24.4598   -9.7188  -11.0638 N.ar    1  UNL1       -0.3243
     16 C         -24.4295  -12.7701  -15.0018 C.3     1  UNL1        0.1692
     17 C         -24.7870  -14.8797  -15.8935 C.3     1  UNL1        0.1746
     18 O         -24.7034  -14.1256  -14.7040 O.3     1  UNL1       -0.3463
     19 C         -25.8292   -9.1832  -11.0826 C.3     1  UNL1        0.1429
     20 C         -26.0535   -8.1796  -12.2335 C.3     1  UNL1        0.2027
     21 F         -27.3155   -8.3783  -12.7674 F       1  UNL1       -0.2334
     22 C         -25.8962   -6.7065  -11.8265 C.3     1  UNL1        0.1259
     23 N         -24.8545   -6.0400  -12.6097 N.pl3   1  UNL1       -0.3157
     24 H         -25.1402   -5.2713  -13.2578 H       1  UNL1        0.1483
     25 C         -23.4990   -6.5129  -12.6547 C.ar    1  UNL1        0.1317
     26 C         -22.5684   -6.0719  -11.7043 C.ar    1  UNL1        0.0343
     27 C         -21.2705   -6.5864  -11.7249 C.ar    1  UNL1        0.0077
     28 C         -20.9113   -7.5324  -12.6865 C.ar    1  UNL1        0.0578
     29 C         -21.8596   -7.9513  -13.6229 C.ar    1  UNL1        0.2261
     30 N         -23.1191   -7.4341  -13.5841 N.ar    1  UNL1       -0.1969
     31 O         -21.5069   -8.9040  -14.5829 O.3     1  UNL1       -0.4561
     32 C         -22.2376   -9.0844  -15.7906 C.3     1  UNL1        0.2542
@<TRIPOS>BOND
     1    17    18    1
     2    18    16    1
     3    16     1    1
     4     1     2   ar
     5     2     3   ar
     6     3     4   ar
     7     4     5   ar
     8     5     6   ar
     9     6     7    1
    10     4     8   ar
    11     8     9   ar
    12     9    10   ar
    13    10    11    1
    14    10    12   ar
    15    12    13   ar
    16    13    14   ar
    17    14    15   ar
    18    15    19    1
    19    19    20    1
    20    20    21    1
    21    20    22    1
    22    22    23    1
    23    23    25    1
    24    25    26   ar
    25    26    27   ar
    26    27    28   ar
    27    28    29   ar
    28    29    31    1
    29    31    32    1
    30    29    30   ar
    31     6     1   ar
    32    14     8   ar
    33    30    25   ar
    34    15     3   ar
    35    23    24    1
@<TRIPOS>MOLECULE
*****
 32 35 0 0 0
SMALL
GASTEIGER

@<TRIPOS>ATOM
      1 C         -21.5681   -8.9340  -10.0902 C.ar    1  UNL1        0.0149
      2 C         -22.8795   -8.8539  -10.6111 C.ar    1  UNL1        0.0158
      3 C         -23.3024   -9.8267  -11.5192 C.ar    1  UNL1        0.0598
      4 C         -22.4533  -10.8347  -11.9198 C.ar    1  UNL1        0.0177
      5 C         -21.1584  -10.9542  -11.4275 C.ar    1  UNL1        0.0079
      6 C         -20.7096   -9.9995  -10.4971 C.ar    1  UNL1        0.0330
      7 BR        -18.9258  -10.2048   -9.8203 Br      1  UNL1       -0.0492
      8 C         -23.1561  -11.6021  -12.8182 C.ar    1  UNL1        0.0177
      9 C         -22.8000  -12.7519  -13.5205 C.ar    1  UNL1        0.0082
     10 C         -23.7614  -13.3245  -14.3708 C.ar    1  UNL1        0.0347
     11 BR        -23.3472  -14.9207  -15.3317 Br      1  UNL1       -0.0490
     12 C         -25.0353  -12.7324  -14.5092 C.ar    1  UNL1        0.0082
     13 C         -25.3685  -11.5715  -13.7888 C.ar    1  UNL1        0.0177
     14 C         -24.4072  -11.0277  -12.9274 C.ar    1  UNL1        0.0600
     15 N         -24.5180   -9.9422  -12.1152 N.ar    1  UNL1       -0.3243
     16 C         -21.1370   -7.8928   -9.0841 C.3     1  UNL1        0.1692
     17 C         -21.6557   -5.6582   -9.4170 C.3     1  UNL1        0.1746
     18 O         -22.1312   -6.8971   -8.9378 O.3     1  UNL1       -0.3463
     19 C         -25.7139   -9.1244  -11.8627 C.3     1  UNL1        0.1429
     20 C         -26.0820   -8.2316  -13.0666 C.3     1  UNL1        0.2027
     21 F         -27.3944   -7.8109  -12.9332 F       1  UNL1       -0.2334
     22 C         -25.1689   -7.0095  -13.2492 C.3     1  UNL1        0.1259
     23 N         -24.5287   -7.0079  -14.5656 N.pl3   1  UNL1       -0.3157
     24 H         -24.9200   -6.3797  -15.3038 H       1  UNL1        0.1483
     25 C         -23.5102   -7.9523  -14.9315 C.ar    1  UNL1        0.1317
     26 C         -22.2283   -7.8554  -14.3738 C.ar    1  UNL1        0.0343
     27 C         -21.2668   -8.8161  -14.6934 C.ar    1  UNL1        0.0077
     28 C         -21.5880   -9.8615  -15.5609 C.ar    1  UNL1        0.0578
     29 C         -22.8733   -9.9309  -16.1036 C.ar    1  UNL1        0.2261
     30 N         -23.7942   -8.9813  -15.7784 N.ar    1  UNL1       -0.1969
     31 O         -23.2021  -10.9800  -16.9666 O.3     1  UNL1       -0.4561
     32 C         -22.2389  -11.9123  -17.4441 C.3     1  UNL1        0.2542
@<TRIPOS>BOND
     1    17    18    1
     2    18    16    1
     3    16     1    1
     4     1     2   ar
     5     2     3   ar
     6     3     4   ar
     7     4     5   ar
     8     5     6   ar
     9     6     7    1
    10     4     8   ar
    11     8     9   ar
    12     9    10   ar
    13    10    11    1
    14    10    12   ar
    15    12    13   ar
    16    13    14   ar
    17    14    15   ar
    18    15    19    1
    19    19    20    1
    20    20    21    1
    21    20    22    1
    22    22    23    1
    23    23    25    1
    24    25    26   ar
    25    26    27   ar
    26    27    28   ar
    27    28    29   ar
    28    29    31    1
    29    31    32    1
    30    29    30   ar
    31     6     1   ar
    32    14     8   ar
    33    30    25   ar
    34    15     3   ar
    35    23    24    1
@<TRIPOS>MOLECULE
*****
 32 35 0 0 0
SMALL
GASTEIGER

@<TRIPOS>ATOM
      1 C         -21.1746   -8.8624   -9.5414 C.ar    1  UNL1        0.0149
      2 C         -22.5179   -8.6817   -9.9420 C.ar    1  UNL1        0.0158
      3 C         -23.0560   -9.5456  -10.8980 C.ar    1  UNL1        0.0598
      4 C         -22.2891  -10.5426  -11.4594 C.ar    1  UNL1        0.0177
      5 C         -20.9663  -10.7592  -11.0895 C.ar    1  UNL1        0.0079
      6 C         -20.4015   -9.9165  -10.1152 C.ar    1  UNL1        0.0330
      7 BR        -18.5813  -10.2551   -9.6106 Br      1  UNL1       -0.0492
      8 C         -23.0956  -11.1922  -12.3637 C.ar    1  UNL1        0.0177
      9 C         -22.8500  -12.2821  -13.1966 C.ar    1  UNL1        0.0082
     10 C         -23.9011  -12.7326  -14.0135 C.ar    1  UNL1        0.0347
     11 BR        -23.6388  -14.2439  -15.1492 Br      1  UNL1       -0.0490
     12 C         -25.1530  -12.0808  -13.9903 C.ar    1  UNL1        0.0082
     13 C         -25.3738  -10.9824  -13.1402 C.ar    1  UNL1        0.0177
     14 C         -24.3233  -10.5617  -12.3149 C.ar    1  UNL1        0.0600
     15 N         -24.3189   -9.5559  -11.3992 N.ar    1  UNL1       -0.3243
     16 C         -20.6175   -7.9403   -8.4824 C.3     1  UNL1        0.1692
     17 C         -19.5802   -8.3547   -6.4513 C.3     1  UNL1        0.1746
     18 O         -20.7690   -8.5077   -7.1955 O.3     1  UNL1       -0.3463
     19 C         -25.4518   -8.7202  -10.9737 C.3     1  UNL1        0.1429
     20 C         -26.3591   -8.3125  -12.1537 C.3     1  UNL1        0.2027
     21 F         -27.6670   -8.2217  -11.7082 F       1  UNL1       -0.2334
     22 C         -25.9573   -6.9945  -12.8333 C.3     1  UNL1        0.1259
     23 N         -25.1418   -7.2306  -14.0258 N.pl3   1  UNL1       -0.3157
     24 H         -25.6269   -7.3034  -14.9489 H       1  UNL1        0.1483
     25 C         -23.7407   -7.5391  -13.9559 C.ar    1  UNL1        0.1317
     26 C         -23.1718   -8.4363  -14.8698 C.ar    1  UNL1        0.0343
     27 C         -21.7976   -8.6800  -14.8269 C.ar    1  UNL1        0.0077
     28 C         -21.0041   -8.0307  -13.8797 C.ar    1  UNL1        0.0578
     29 C         -21.5995   -7.1434  -12.9798 C.ar    1  UNL1        0.2261
     30 N         -22.9423   -6.9228  -13.0397 N.ar    1  UNL1       -0.1969
     31 O         -20.8080   -6.4849  -12.0345 O.3     1  UNL1       -0.4561
     32 C         -21.2535   -5.3325  -11.3286 C.3     1  UNL1        0.2542
@<TRIPOS>BOND
     1    17    18    1
     2    18    16    1
     3    16     1    1
     4     1     2   ar
     5     2     3   ar
     6     3     4   ar
     7     4     5   ar
     8     5     6   ar
     9     6     7    1
    10     4     8   ar
    11     8     9   ar
    12     9    10   ar
    13    10    11    1
    14    10    12   ar
    15    12    13   ar
    16    13    14   ar
    17    14    15   ar
    18    15    19    1
    19    19    20    1
    20    20    21    1
    21    20    22    1
    22    22    23    1
    23    23    25    1
    24    25    26   ar
    25    26    27   ar
    26    27    28   ar
    27    28    29   ar
    28    29    31    1
    29    31    32    1
    30    29    30   ar
    31     6     1   ar
    32    14     8   ar
    33    30    25   ar
    34    15     3   ar
    35    23    24    1
@<TRIPOS>MOLECULE
*****
 32 35 0 0 0
SMALL
GASTEIGER

@<TRIPOS>ATOM
      1 C         -23.2051   -7.8478  -12.8249 C.ar    1  UNL1        0.0149
      2 C         -23.1421   -9.2331  -13.0977 C.ar    1  UNL1        0.0158
      3 C         -22.1629   -9.9992  -12.4620 C.ar    1  UNL1        0.0598
      4 C         -21.2589   -9.4161  -11.6017 C.ar    1  UNL1        0.0177
      5 C         -21.2895   -8.0589  -11.3006 C.ar    1  UNL1        0.0079
      6 C         -22.2762   -7.2641  -11.9114 C.ar    1  UNL1        0.0330
      7 BR        -22.3056   -5.3996  -11.4585 Br      1  UNL1       -0.0492
      8 C         -20.4300  -10.4229  -11.1665 C.ar    1  UNL1        0.0177
      9 C         -19.3569  -10.4096  -10.2775 C.ar    1  UNL1        0.0082
     10 C         -18.7040  -11.6272  -10.0202 C.ar    1  UNL1        0.0347
     11 BR        -17.2509  -11.6814   -8.7840 Br      1  UNL1       -0.0490
     12 C         -19.1243  -12.8122  -10.6620 C.ar    1  UNL1        0.0082
     13 C         -20.2102  -12.7973  -11.5553 C.ar    1  UNL1        0.0177
     14 C         -20.8651  -11.5801  -11.7818 C.ar    1  UNL1        0.0600
     15 N         -21.9473  -11.3365  -12.5690 N.ar    1  UNL1       -0.3243
     16 C         -24.2908   -7.0390  -13.4953 C.3     1  UNL1        0.1692
     17 C         -26.3499   -6.0117  -13.2161 C.3     1  UNL1        0.1746
     18 O         -25.3930   -6.8642  -12.6260 O.3     1  UNL1       -0.3463
     19 C         -22.7651  -12.3134  -13.3036 C.3     1  UNL1        0.1429
     20 C         -22.1024  -12.7628  -14.6231 C.3     1  UNL1        0.2027
     21 F         -21.7822  -14.1070  -14.5336 F       1  UNL1       -0.2334
     22 C         -22.9609  -12.5234  -15.8745 C.3     1  UNL1        0.1259
     23 N         -22.2609  -11.6941  -16.8569 N.pl3   1  UNL1       -0.3157
     24 H         -21.6947  -12.1735  -17.5934 H       1  UNL1        0.1483
     25 C         -22.1778  -10.2647  -16.7435 C.ar    1  UNL1        0.1317
     26 C         -21.1125   -9.6750  -16.0499 C.ar    1  UNL1        0.0343
     27 C         -21.0133   -8.2832  -15.9997 C.ar    1  UNL1        0.0077
     28 C         -21.9705   -7.4930  -16.6384 C.ar    1  UNL1        0.0578
     29 C         -23.0229   -8.1088  -17.3201 C.ar    1  UNL1        0.2261
     30 N         -23.0997   -9.4684  -17.3541 N.ar    1  UNL1       -0.1969
     31 O         -23.9795   -7.3221  -17.9677 O.3     1  UNL1       -0.4561
     32 C         -24.2608   -5.9817  -17.5814 C.3     1  UNL1        0.2542
@<TRIPOS>BOND
     1    17    18    1
     2    18    16    1
     3    16     1    1
     4     1     2   ar
     5     2     3   ar
     6     3     4   ar
     7     4     5   ar
     8     5     6   ar
     9     6     7    1
    10     4     8   ar
    11     8     9   ar
    12     9    10   ar
    13    10    11    1
    14    10    12   ar
    15    12    13   ar
    16    13    14   ar
    17    14    15   ar
    18    15    19    1
    19    19    20    1
    20    20    21    1
    21    20    22    1
    22    22    23    1
    23    23    25    1
    24    25    26   ar
    25    26    27   ar
    26    27    28   ar
    27    28    29   ar
    28    29    31    1
    29    31    32    1
    30    29    30   ar
    31     6     1   ar
    32    14     8   ar
    33    30    25   ar
    34    15     3   ar
    35    23    24    1
@<TRIPOS>MOLECULE
*****
 32 35 0 0 0
SMALL
GASTEIGER

@<TRIPOS>ATOM
      1 C         -24.3007  -10.6813  -14.2219 C.ar    1  UNL1        0.0149
      2 C         -25.1535   -9.6079  -13.8784 C.ar    1  UNL1        0.0158
      3 C         -24.5955   -8.4629  -13.3061 C.ar    1  UNL1        0.0598
      4 C         -23.2427   -8.3855  -13.0585 C.ar    1  UNL1        0.0177
      5 C         -22.3676   -9.4152  -13.3865 C.ar    1  UNL1        0.0079
      6 C         -22.8976  -10.5745  -13.9813 C.ar    1  UNL1        0.0330
      7 BR        -21.6614  -11.9679  -14.4421 Br      1  UNL1       -0.0492
      8 C         -23.0218   -7.1572  -12.4819 C.ar    1  UNL1        0.0177
      9 C         -21.8485   -6.5444  -12.0464 C.ar    1  UNL1        0.0082
     10 C         -21.9470   -5.2523  -11.5023 C.ar    1  UNL1        0.0347
     11 BR        -20.3713   -4.3450  -10.9219 Br      1  UNL1       -0.0490
     12 C         -23.2030   -4.6174  -11.3932 C.ar    1  UNL1        0.0082
     13 C         -24.3718   -5.2590  -11.8403 C.ar    1  UNL1        0.0177
     14 C         -24.2528   -6.5364  -12.4023 C.ar    1  UNL1        0.0600
     15 N         -25.2307   -7.3234  -12.9264 N.ar    1  UNL1       -0.3243
     16 C         -24.9155  -11.8995  -14.8702 C.3     1  UNL1        0.1692
     17 C         -25.0770  -14.1762  -14.4652 C.3     1  UNL1        0.1746
     18 O         -25.2047  -12.8890  -13.9016 O.3     1  UNL1       -0.3463
     19 C         -26.6482   -6.9863  -13.1258 C.3     1  UNL1        0.1429
     20 C         -27.5538   -7.5715  -12.0216 C.3     1  UNL1        0.2027
     21 F         -27.6732   -8.9379  -12.2114 F       1  UNL1       -0.2334
     22 C         -27.0656   -7.2943  -10.5914 C.3     1  UNL1        0.1259
     23 N         -26.6582   -8.5261   -9.9135 N.pl3   1  UNL1       -0.3157
     24 H         -27.3927   -9.0860   -9.4239 H       1  UNL1        0.1483
     25 C         -25.2808   -8.8972   -9.7455 C.ar    1  UNL1        0.1317
     26 C         -24.8334  -10.1535  -10.1761 C.ar    1  UNL1        0.0343
     27 C         -23.4799  -10.4762  -10.0606 C.ar    1  UNL1        0.0077
     28 C         -22.5864   -9.5496   -9.5207 C.ar    1  UNL1        0.0578
     29 C         -23.0616   -8.3060   -9.0975 C.ar    1  UNL1        0.2261
     30 N         -24.3866   -8.0142   -9.2188 N.ar    1  UNL1       -0.1969
     31 O         -22.1696   -7.3719   -8.5634 O.3     1  UNL1       -0.4561
     32 C         -20.7572   -7.5294   -8.6369 C.3     1  UNL1        0.2542
@<TRIPOS>BOND
     1    17    18    1
     2    18    16    1
     3    16     1    1
     4     1     2   ar
     5     2     3   ar
     6     3     4   ar
     7     4     5   ar
     8     5     6   ar
     9     6     7    1
    10     4     8   ar
    11     8     9   ar
    12     9    10   ar
    13    10    11    1
    14    10    12   ar
    15    12    13   ar
    16    13    14   ar
    17    14    15   ar
    18    15    19    1
    19    19    20    1
    20    20    21    1
    21    20    22    1
    22    22    23    1
    23    23    25    1
    24    25    26   ar
    25    26    27   ar
    26    27    28   ar
    27    28    29   ar
    28    29    31    1
    29    31    32    1
    30    29    30   ar
    31     6     1   ar
    32    14     8   ar
    33    30    25   ar
    34    15     3   ar
    35    23    24    1
@<TRIPOS>MOLECULE
*****
 32 35 0 0 0
SMALL
GASTEIGER

@<TRIPOS>ATOM
      1 C         -25.3799   -7.0868  -13.0639 C.ar    1  UNL1        0.0149
      2 C         -24.0334   -7.3673  -13.3889 C.ar    1  UNL1        0.0158
      3 C         -23.6859   -8.6719  -13.7456 C.ar    1  UNL1        0.0598
      4 C         -24.6302   -9.6746  -13.7601 C.ar    1  UNL1        0.0177
      5 C         -25.9663   -9.4409  -13.4538 C.ar    1  UNL1        0.0079
      6 C         -26.3506   -8.1327  -13.1083 C.ar    1  UNL1        0.0330
      7 BR        -28.2050   -7.8385  -12.7124 Br      1  UNL1       -0.0492
      8 C         -23.9722  -10.8242  -14.1283 C.ar    1  UNL1        0.0177
      9 C         -24.4330  -12.1253  -14.3202 C.ar    1  UNL1        0.0082
     10 C         -23.5006  -13.0989  -14.7174 C.ar    1  UNL1        0.0347
     11 BR        -24.0765  -14.8910  -15.0323 Br      1  UNL1       -0.0490
     12 C         -22.1428  -12.7563  -14.8959 C.ar    1  UNL1        0.0082
     13 C         -21.7044  -11.4353  -14.6949 C.ar    1  UNL1        0.0177
     14 C         -22.6511  -10.4723  -14.3230 C.ar    1  UNL1        0.0600
     15 N         -22.4642   -9.1420  -14.1098 N.ar    1  UNL1       -0.3243
     16 C         -25.7457   -5.6639  -12.7121 C.3     1  UNL1        0.1692
     17 C         -26.4358   -4.8496  -14.7697 C.3     1  UNL1        0.1746
     18 O         -26.8536   -5.2289  -13.4765 O.3     1  UNL1       -0.3463
     19 C         -21.2354   -8.3606  -14.3152 C.3     1  UNL1        0.1429
     20 C         -21.0723   -7.8927  -15.7769 C.3     1  UNL1        0.2027
     21 F         -19.9324   -8.4689  -16.3117 F       1  UNL1       -0.2334
     22 C         -22.2759   -8.2069  -16.6786 C.3     1  UNL1        0.1259
     23 N         -23.1339   -7.0347  -16.8589 N.pl3   1  UNL1       -0.3157
     24 H         -23.2042   -6.3490  -16.0729 H       1  UNL1        0.1483
     25 C         -24.0091   -6.8831  -17.9876 C.ar    1  UNL1        0.1317
     26 C         -24.7501   -5.7048  -18.1497 C.ar    1  UNL1        0.0343
     27 C         -25.5504   -5.5482  -19.2830 C.ar    1  UNL1        0.0077
     28 C         -25.6057   -6.5608  -20.2422 C.ar    1  UNL1        0.0578
     29 C         -24.8581   -7.7255  -20.0525 C.ar    1  UNL1        0.2261
     30 N         -24.0857   -7.8564  -18.9382 N.ar    1  UNL1       -0.1969
     31 O         -24.9041   -8.7390  -21.0139 O.3     1  UNL1       -0.4561
     32 C         -25.3580   -8.5160  -22.3440 C.3     1  UNL1        0.2542
@<TRIPOS>BOND
     1    17    18    1
     2    18    16    1
     3    16     1    1
     4     1     2   ar
     5     2     3   ar
     6     3     4   ar
     7     4     5   ar
     8     5     6   ar
     9     6     7    1
    10     4     8   ar
    11     8     9   ar
    12     9    10   ar
    13    10    11    1
    14    10    12   ar
    15    12    13   ar
    16    13    14   ar
    17    14    15   ar
    18    15    19    1
    19    19    20    1
    20    20    21    1
    21    20    22    1
    22    22    23    1
    23    23    25    1
    24    25    26   ar
    25    26    27   ar
    26    27    28   ar
    27    28    29   ar
    28    29    31    1
    29    31    32    1
    30    29    30   ar
    31     6     1   ar
    32    14     8   ar
    33    30    25   ar
    34    15     3   ar
    35    23    24    1
@<TRIPOS>MOLECULE
*****
 32 35 0 0 0
SMALL
GASTEIGER

@<TRIPOS>ATOM
      1 C         -21.3677   -7.7641  -11.6806 C.ar    1  UNL1        0.0149
      2 C         -21.9766   -7.8066  -12.9553 C.ar    1  UNL1        0.0158
      3 C         -22.8193   -8.8769  -13.2622 C.ar    1  UNL1        0.0598
      4 C         -23.0381   -9.8864  -12.3509 C.ar    1  UNL1        0.0177
      5 C         -22.4645   -9.8805  -11.0842 C.ar    1  UNL1        0.0079
      6 C         -21.6252   -8.8059  -10.7390 C.ar    1  UNL1        0.0330
      7 BR        -20.8667   -8.8159   -8.9764 Br      1  UNL1       -0.0492
      8 C         -23.8853  -10.7828  -12.9583 C.ar    1  UNL1        0.0177
      9 C         -24.4484  -11.9715  -12.4982 C.ar    1  UNL1        0.0082
     10 C         -25.3033  -12.6711  -13.3671 C.ar    1  UNL1        0.0347
     11 BR        -26.1347  -14.2865  -12.7823 Br      1  UNL1       -0.0490
     12 C         -25.5594  -12.1798  -14.6654 C.ar    1  UNL1        0.0082
     13 C         -24.9775  -10.9773  -15.1046 C.ar    1  UNL1        0.0177
     14 C         -24.1475  -10.2802  -14.2176 C.ar    1  UNL1        0.0600
     15 N         -23.5116   -9.0934  -14.4111 N.ar    1  UNL1       -0.3243
     16 C         -20.4851   -6.5829  -11.3523 C.3     1  UNL1        0.1692
     17 C         -21.9846   -4.9945  -10.5767 C.3     1  UNL1        0.1746
     18 O         -21.1458   -5.3676  -11.6481 O.3     1  UNL1       -0.3463
     19 C         -23.6181   -8.1926  -15.5687 C.3     1  UNL1        0.1429
     20 C         -22.5859   -8.5215  -16.6680 C.3     1  UNL1        0.2027
     21 F         -21.9485   -7.3544  -17.0538 F       1  UNL1       -0.2334
     22 C         -21.5366   -9.5658  -16.2569 C.3     1  UNL1        0.1259
     23 N         -21.8390  -10.8830  -16.8195 N.pl3   1  UNL1       -0.3157
     24 H         -22.1732  -10.9321  -17.8088 H       1  UNL1        0.1483
     25 C         -21.8647  -12.0773  -16.0220 C.ar    1  UNL1        0.1317
     26 C         -21.1472  -12.1356  -14.8197 C.ar    1  UNL1        0.0343
     27 C         -21.2303  -13.2815  -14.0263 C.ar    1  UNL1        0.0077
     28 C         -22.0243  -14.3549  -14.4336 C.ar    1  UNL1        0.0578
     29 C         -22.7263  -14.2693  -15.6383 C.ar    1  UNL1        0.2261
     30 N         -22.6285  -13.1419  -16.3965 N.ar    1  UNL1       -0.1969
     31 O         -23.5287  -15.3383  -16.0467 O.3     1  UNL1       -0.4561
     32 C         -24.9019  -15.1823  -16.3858 C.3     1  UNL1        0.2542
@<TRIPOS>BOND
     1    17    18    1
     2    18    16    1
     3    16     1    1
     4     1     2   ar
     5     2     3   ar
     6     3     4   ar
     7     4     5   ar
     8     5     6   ar
     9     6     7    1
    10     4     8   ar
    11     8     9   ar
    12     9    10   ar
    13    10    11    1
    14    10    12   ar
    15    12    13   ar
    16    13    14   ar
    17    14    15   ar
    18    15    19    1
    19    19    20    1
    20    20    21    1
    21    20    22    1
    22    22    23    1
    23    23    25    1
    24    25    26   ar
    25    26    27   ar
    26    27    28   ar
    27    28    29   ar
    28    29    31    1
    29    31    32    1
    30    29    30   ar
    31     6     1   ar
    32    14     8   ar
    33    30    25   ar
    34    15     3   ar
    35    23    24    1
@<TRIPOS>MOLECULE
*****
 32 35 0 0 0
SMALL
GASTEIGER

@<TRIPOS>ATOM
      1 C         -25.4219   -6.9376  -13.7094 C.ar    1  UNL1        0.0149
      2 C         -25.3765   -6.2315  -14.9329 C.ar    1  UNL1        0.0158
      3 C         -26.4902   -5.4825  -15.3182 C.ar    1  UNL1        0.0598
      4 C         -27.6225   -5.4475  -14.5345 C.ar    1  UNL1        0.0177
      5 C         -27.7069   -6.1216  -13.3213 C.ar    1  UNL1        0.0079
      6 C         -26.5941   -6.8702  -12.8973 C.ar    1  UNL1        0.0330
      7 BR        -26.7341   -7.7709  -11.2087 Br      1  UNL1       -0.0492
      8 C         -28.5282   -4.6505  -15.1938 C.ar    1  UNL1        0.0177
      9 C         -29.8210   -4.2552  -14.8557 C.ar    1  UNL1        0.0082
     10 C         -30.5014   -3.4081  -15.7471 C.ar    1  UNL1        0.0347
     11 BR        -32.2608   -2.8019  -15.3232 Br      1  UNL1       -0.0490
     12 C         -29.8867   -2.9940  -16.9485 C.ar    1  UNL1        0.0082
     13 C         -28.5807   -3.4083  -17.2654 C.ar    1  UNL1        0.0177
     14 C         -27.9078   -4.2325  -16.3546 C.ar    1  UNL1        0.0600
     15 N         -26.6413   -4.7225  -16.4344 N.ar    1  UNL1       -0.3243
     16 C         -24.1969   -7.7165  -13.2912 C.3     1  UNL1        0.1692
     17 C         -21.9741   -7.4362  -12.6963 C.3     1  UNL1        0.1746
     18 O         -23.2667   -6.8733  -12.6396 O.3     1  UNL1       -0.3463
     19 C         -25.6231   -4.4258  -17.4532 C.3     1  UNL1        0.1429
     20 C         -25.7401   -5.3443  -18.6879 C.3     1  UNL1        0.2027
     21 F         -25.7737   -4.5634  -19.8309 F       1  UNL1       -0.2334
     22 C         -24.6151   -6.3834  -18.8109 C.3     1  UNL1        0.1259
     23 N         -23.7453   -6.3768  -17.6336 N.pl3   1  UNL1       -0.3157
     24 H         -23.5650   -5.4634  -17.1583 H       1  UNL1        0.1483
     25 C         -22.9979   -7.5308  -17.2177 C.ar    1  UNL1        0.1317
     26 C         -21.7290   -7.3772  -16.6431 C.ar    1  UNL1        0.0343
     27 C         -21.0406   -8.5040  -16.1893 C.ar    1  UNL1        0.0077
     28 C         -21.6186   -9.7689  -16.3096 C.ar    1  UNL1        0.0578
     29 C         -22.8838   -9.8915  -16.8890 C.ar    1  UNL1        0.2261
     30 N         -23.5357   -8.7782  -17.3259 N.ar    1  UNL1       -0.1969
     31 O         -23.4701  -11.1550  -17.0046 O.3     1  UNL1       -0.4561
     32 C         -24.3379  -11.6927  -16.0133 C.3     1  UNL1        0.2542
@<TRIPOS>BOND
     1    17    18    1
     2    18    16    1
     3    16     1    1
     4     1     2   ar
     5     2     3   ar
     6     3     4   ar
     7     4     5   ar
     8     5     6   ar
     9     6     7    1
    10     4     8   ar
    11     8     9   ar
    12     9    10   ar
    13    10    11    1
    14    10    12   ar
    15    12    13   ar
    16    13    14   ar
    17    14    15   ar
    18    15    19    1
    19    19    20    1
    20    20    21    1
    21    20    22    1
    22    22    23    1
    23    23    25    1
    24    25    26   ar
    25    26    27   ar
    26    27    28   ar
    27    28    29   ar
    28    29    31    1
    29    31    32    1
    30    29    30   ar
    31     6     1   ar
    32    14     8   ar
    33    30    25   ar
    34    15     3   ar
    35    23    24    1
@<TRIPOS>MOLECULE
*****
 32 35 0 0 0
SMALL
GASTEIGER

@<TRIPOS>ATOM
      1 C         -28.7674   -2.9700  -17.8179 C.ar    1  UNL1        0.0149
      2 C         -27.4753   -3.5424  -17.8003 C.ar    1  UNL1        0.0158
      3 C         -27.1145   -4.3538  -16.7226 C.ar    1  UNL1        0.0598
      4 C         -27.9902   -4.5767  -15.6830 C.ar    1  UNL1        0.0177
      5 C         -29.2722   -4.0385  -15.6636 C.ar    1  UNL1        0.0079
      6 C         -29.6713   -3.2316  -16.7444 C.ar    1  UNL1        0.0330
      7 BR        -31.4537   -2.5221  -16.6984 Br      1  UNL1       -0.0492
      8 C         -27.3338   -5.3879  -14.7878 C.ar    1  UNL1        0.0177
      9 C         -27.7439   -5.9386  -13.5752 C.ar    1  UNL1        0.0082
     10 C         -26.8317   -6.7544  -12.8842 C.ar    1  UNL1        0.0347
     11 BR        -27.3466   -7.5679  -11.2362 Br      1  UNL1       -0.0490
     12 C         -25.5412   -6.9847  -13.4076 C.ar    1  UNL1        0.0082
     13 C         -25.1529   -6.4160  -14.6338 C.ar    1  UNL1        0.0177
     14 C         -26.0825   -5.6256  -15.3214 C.ar    1  UNL1        0.0600
     15 N         -25.9408   -5.0094  -16.5258 N.ar    1  UNL1       -0.3243
     16 C         -29.1539   -2.1215  -19.0066 C.3     1  UNL1        0.1692
     17 C         -27.8905   -1.7577  -20.9157 C.3     1  UNL1        0.1746
     18 O         -28.0209   -1.4650  -19.5417 O.3     1  UNL1       -0.3463
     19 C         -24.8067   -5.1026  -17.4574 C.3     1  UNL1        0.1429
     20 C         -25.0774   -6.0822  -18.6189 C.3     1  UNL1        0.2027
     21 F         -24.9009   -5.4182  -19.8211 F       1  UNL1       -0.2334
     22 C         -24.2014   -7.3442  -18.5979 C.3     1  UNL1        0.1259
     23 N         -23.0163   -7.1628  -17.7580 N.pl3   1  UNL1       -0.3157
     24 H         -22.3088   -6.4509  -18.0500 H       1  UNL1        0.1483
     25 C         -22.7048   -8.0362  -16.6610 C.ar    1  UNL1        0.1317
     26 C         -23.0606   -9.3905  -16.7174 C.ar    1  UNL1        0.0343
     27 C         -22.6978  -10.2391  -15.6697 C.ar    1  UNL1        0.0077
     28 C         -21.9861   -9.7355  -14.5796 C.ar    1  UNL1        0.0578
     29 C         -21.6475   -8.3805  -14.5497 C.ar    1  UNL1        0.2261
     30 N         -22.0136   -7.5715  -15.5826 N.ar    1  UNL1       -0.1969
     31 O         -20.9282   -7.8730  -13.4640 O.3     1  UNL1       -0.4561
     32 C         -21.5579   -7.2649  -12.3422 C.3     1  UNL1        0.2542
@<TRIPOS>BOND
     1    17    18    1
     2    18    16    1
     3    16     1    1
     4     1     2   ar
     5     2     3   ar
     6     3     4   ar
     7     4     5   ar
     8     5     6   ar
     9     6     7    1
    10     4     8   ar
    11     8     9   ar
    12     9    10   ar
    13    10    11    1
    14    10    12   ar
    15    12    13   ar
    16    13    14   ar
    17    14    15   ar
    18    15    19    1
    19    19    20    1
    20    20    21    1
    21    20    22    1
    22    22    23    1
    23    23    25    1
    24    25    26   ar
    25    26    27   ar
    26    27    28   ar
    27    28    29   ar
    28    29    31    1
    29    31    32    1
    30    29    30   ar
    31     6     1   ar
    32    14     8   ar
    33    30    25   ar
    34    15     3   ar
    35    23    24    1
