@<TRIPOS>MOLECULE
*****
 50 55 0 0 0
SMALL
GASTEIGER

@<TRIPOS>ATOM
      1 C          59.4852   87.6689   11.0155 C.2     1  UNL1        0.2483
      2 O          59.5618   88.3422   12.0798 O.2     1  UNL1       -0.2701
      3 N          59.2560   86.2532   11.0912 N.am    1  UNL1       -0.2945
      4 H          58.8534   85.7757   10.2545 H       1  UNL1        0.1501
      5 C          59.7799   89.6626    7.2056 C.ar    1  UNL1        0.0502
      6 C          59.1608   88.4092    7.3165 C.ar    1  UNL1        0.0148
      7 C          59.0790   87.7679    8.5548 C.ar    1  UNL1        0.0080
      8 C          59.6250   88.3595    9.7080 C.ar    1  UNL1        0.0808
      9 C          60.2482   89.6211    9.5926 C.ar    1  UNL1        0.1457
     10 F          60.7445   90.2682   10.6762 F       1  UNL1       -0.2040
     11 C          60.3226   90.2599    8.3515 C.ar    1  UNL1        0.0443
     12 N          60.1505   92.0713    3.7891 N.pl3   1  UNL1       -0.3041
     13 C          58.9826   92.2398    4.6617 C.3     1  UNL1        0.1122
     14 C          58.6455   90.9126    5.3380 C.3     1  UNL1        0.1122
     15 N          59.8560   90.3352    5.9348 N.pl3   1  UNL1       -0.3040
     16 C          61.0341   90.1705    5.0747 C.3     1  UNL1        0.1122
     17 C          61.3653   91.4901    4.3731 C.3     1  UNL1        0.1122
     18 C          61.4354   94.0387    0.8523 C.ar    1  UNL1       -0.0099
     19 C          61.3628   93.3866    2.0996 C.ar    1  UNL1        0.0111
     20 C          60.1959   92.7301    2.5096 C.ar    1  UNL1        0.0485
     21 C          59.0783   92.7291    1.6674 C.ar    1  UNL1        0.0267
     22 C          59.1223   93.3702    0.4280 C.ar    1  UNL1        0.0691
     23 CL         57.6828   93.3275   -0.5843 Cl      1  UNL1       -0.0813
     24 C          60.2943   94.0281    0.0094 C.ar    1  UNL1        0.0643
     25 CL         60.2996   94.8276   -1.5669 Cl      1  UNL1       -0.0817
     26 C          63.6888   94.8463    1.6470 C.3     1  UNL1        0.0047
     27 C          62.7305   94.7396    0.4542 C.3     1  UNL1        0.0233
     28 C          63.4021   94.0328   -0.7306 C.3     1  UNL1        0.0047
     29 C          59.4636   85.4941   12.3340 C.3     1  UNL1        0.1535
     30 C          58.8097   84.1330   12.2668 C.2     1  UNL1        0.2443
     31 O          57.6269   83.9790   12.6778 O.2     1  UNL1       -0.2730
     32 N          59.5045   83.0434   11.6390 N.am    1  UNL1       -0.2825
     33 H          60.3353   83.2727   11.0475 H       1  UNL1        0.1549
     34 C          59.0586   81.6769   11.6741 C.ar    1  UNL1        0.0535
     35 C          59.3893   80.8219   12.7394 C.ar    1  UNL1        0.0353
     36 C          58.9533   79.4947   12.7180 C.ar    1  UNL1        0.1002
     37 N          58.2267   79.0314   11.6668 N.ar    1  UNL1       -0.2422
     38 C          57.9083   79.8306   10.6145 C.ar    1  UNL1        0.1002
     39 C          58.3254   81.1636   10.5955 C.ar    1  UNL1        0.0353
     40 C          60.9647   85.3704   12.6795 C.3     1  UNL1        0.0569
     41 C          61.3431   86.0919   13.9451 C.ar    1  UNL1       -0.0017
     42 C          60.8933   85.8028   15.2307 C.ar    1  UNL1        0.0681
     43 N          61.4925   86.6103   16.1347 N.ar    1  UNL1       -0.3523
     44 C          62.3138   87.4095   15.4327 C.ar    1  UNL1        0.0563
     45 C          63.1602   88.3979   15.9336 C.ar    1  UNL1        0.0170
     46 C          63.9504   89.1145   15.0165 C.ar    1  UNL1        0.0015
     47 C          63.8719   88.8362   13.6345 C.ar    1  UNL1        0.0001
     48 C          63.0060   87.8361   13.1571 C.ar    1  UNL1        0.0012
     49 C          62.2455   87.1300   14.0913 C.ar    1  UNL1        0.0131
     50 H          61.3493   86.6046   17.1690 H       1  UNL1        0.1660
@<TRIPOS>BOND
     1    26    27    1
     2    27    28    1
     3    27    18    1
     4    18    19   ar
     5    19    20   ar
     6    20    12    1
     7    12    13    1
     8    13    14    1
     9    14    15    1
    10    15     5    1
    11     5     6   ar
    12     6     7   ar
    13     7     8   ar
    14     8     1    1
    15     1     2    2
    16     1     3   am
    17     3    29    1
    18    29    40    1
    19    40    41    1
    20    41    42   ar
    21    42    43   ar
    22    43    44   ar
    23    44    45   ar
    24    45    46   ar
    25    46    47   ar
    26    47    48   ar
    27    48    49   ar
    28    29    30    1
    29    30    31    2
    30    30    32   am
    31    32    34    1
    32    34    35   ar
    33    35    36   ar
    34    36    37   ar
    35    37    38   ar
    36    38    39   ar
    37     8     9   ar
    38     9    10    1
    39     9    11   ar
    40    15    16    1
    41    16    17    1
    42    20    21   ar
    43    21    22   ar
    44    22    23    1
    45    22    24   ar
    46    24    25    1
    47    24    18   ar
    48    17    12    1
    49    11     5   ar
    50    49    41   ar
    51    39    34   ar
    52    49    44   ar
    53     3     4    1
    54    43    50    1
    55    32    33    1
@<TRIPOS>MOLECULE
*****
 50 55 0 0 0
SMALL
GASTEIGER

@<TRIPOS>ATOM
      1 C          59.3574   86.9859   10.9085 C.2     1  UNL1        0.2483
      2 O          58.5483   87.3485   11.8062 O.2     1  UNL1       -0.2701
      3 N          60.1843   85.8325   11.1280 N.am    1  UNL1       -0.2945
      4 H          60.5738   85.3416   10.2927 H       1  UNL1        0.1501
      5 C          59.6742   89.2315    7.2432 C.ar    1  UNL1        0.0502
      6 C          60.2115   89.7271    8.4400 C.ar    1  UNL1        0.0148
      7 C          60.0950   88.9950    9.6240 C.ar    1  UNL1        0.0080
      8 C          59.4282   87.7568    9.6408 C.ar    1  UNL1        0.0808
      9 C          58.8880   87.2612    8.4342 C.ar    1  UNL1        0.1457
     10 F          58.2824   86.0493    8.3738 F       1  UNL1       -0.2040
     11 C          59.0119   87.9963    7.2517 C.ar    1  UNL1        0.0443
     12 N          60.1807   91.8295    3.9866 N.pl3   1  UNL1       -0.3041
     13 C          58.9741   91.9443    4.8142 C.3     1  UNL1        0.1122
     14 C          58.6157   90.5799    5.3995 C.3     1  UNL1        0.1122
     15 N          59.8022   89.9746    6.0166 N.pl3   1  UNL1       -0.3040
     16 C          61.0184   89.8631    5.2021 C.3     1  UNL1        0.1122
     17 C          61.3720   91.2212    4.5909 C.3     1  UNL1        0.1122
     18 C          61.6230   93.8493    1.1605 C.ar    1  UNL1       -0.0099
     19 C          61.4983   93.1307    2.3664 C.ar    1  UNL1        0.0111
     20 C          60.2786   92.5593    2.7492 C.ar    1  UNL1        0.0485
     21 C          59.1605   92.7124    1.9217 C.ar    1  UNL1        0.0267
     22 C          59.2557   93.4221    0.7233 C.ar    1  UNL1        0.0691
     23 CL         57.8123   93.5737   -0.2729 Cl      1  UNL1       -0.0813
     24 C          60.4807   93.9950    0.3319 C.ar    1  UNL1        0.0643
     25 CL         60.5498   94.8866   -1.1926 Cl      1  UNL1       -0.0817
     26 C          64.0132   94.1926    1.8891 C.3     1  UNL1        0.0047
     27 C          62.9745   94.4524    0.7908 C.3     1  UNL1        0.0233
     28 C          63.4637   93.9274   -0.5654 C.3     1  UNL1        0.0047
     29 C          60.3981   85.2691   12.4698 C.3     1  UNL1        0.1535
     30 C          60.8226   86.3335   13.4556 C.2     1  UNL1        0.2443
     31 O          60.1250   86.5583   14.4825 O.2     1  UNL1       -0.2730
     32 N          62.0748   87.0127   13.2694 N.am    1  UNL1       -0.2825
     33 H          62.7583   86.5969   12.5966 H       1  UNL1        0.1549
     34 C          62.4937   88.1543   14.0366 C.ar    1  UNL1        0.0535
     35 C          62.5029   88.1336   15.4418 C.ar    1  UNL1        0.0353
     36 C          62.8954   89.2754   16.1448 C.ar    1  UNL1        0.1002
     37 N          63.2517   90.4021   15.4732 N.ar    1  UNL1       -0.2422
     38 C          63.2343   90.4566   14.1152 C.ar    1  UNL1        0.1002
     39 C          62.8472   89.3376   13.3739 C.ar    1  UNL1        0.0353
     40 C          59.1474   84.5149   12.9745 C.3     1  UNL1        0.0569
     41 C          58.6396   83.4886   11.9975 C.ar    1  UNL1       -0.0017
     42 C          58.0746   83.7395   10.7500 C.ar    1  UNL1        0.0681
     43 N          57.7948   82.5791   10.1149 N.ar    1  UNL1       -0.3523
     44 C          58.1742   81.5970   10.9503 C.ar    1  UNL1        0.0563
     45 C          58.1008   80.2230   10.7251 C.ar    1  UNL1        0.0170
     46 C          58.5687   79.3644   11.7364 C.ar    1  UNL1        0.0015
     47 C          59.0859   79.8920   12.9396 C.ar    1  UNL1        0.0001
     48 C          59.1441   81.2826   13.1411 C.ar    1  UNL1        0.0012
     49 C          58.6876   82.1111   12.1139 C.ar    1  UNL1        0.0131
     50 H          57.3767   82.4724    9.1640 H       1  UNL1        0.1660
@<TRIPOS>BOND
     1    26    27    1
     2    27    28    1
     3    27    18    1
     4    18    19   ar
     5    19    20   ar
     6    20    12    1
     7    12    13    1
     8    13    14    1
     9    14    15    1
    10    15     5    1
    11     5     6   ar
    12     6     7   ar
    13     7     8   ar
    14     8     1    1
    15     1     2    2
    16     1     3   am
    17     3    29    1
    18    29    40    1
    19    40    41    1
    20    41    42   ar
    21    42    43   ar
    22    43    44   ar
    23    44    45   ar
    24    45    46   ar
    25    46    47   ar
    26    47    48   ar
    27    48    49   ar
    28    29    30    1
    29    30    31    2
    30    30    32   am
    31    32    34    1
    32    34    35   ar
    33    35    36   ar
    34    36    37   ar
    35    37    38   ar
    36    38    39   ar
    37     8     9   ar
    38     9    10    1
    39     9    11   ar
    40    15    16    1
    41    16    17    1
    42    20    21   ar
    43    21    22   ar
    44    22    23    1
    45    22    24   ar
    46    24    25    1
    47    24    18   ar
    48    17    12    1
    49    11     5   ar
    50    49    41   ar
    51    39    34   ar
    52    49    44   ar
    53     3     4    1
    54    43    50    1
    55    32    33    1
@<TRIPOS>MOLECULE
*****
 50 55 0 0 0
SMALL
GASTEIGER

@<TRIPOS>ATOM
      1 C          59.3128   87.3177   10.8824 C.2     1  UNL1        0.2483
      2 O          58.6462   87.8500   11.8121 O.2     1  UNL1       -0.2701
      3 N          59.8880   86.0171   11.0821 N.am    1  UNL1       -0.2945
      4 H          60.1212   85.4486   10.2378 H       1  UNL1        0.1501
      5 C          59.6824   89.4298    7.1435 C.ar    1  UNL1        0.0502
      6 C          58.9857   88.2150    7.2185 C.ar    1  UNL1        0.0148
      7 C          58.8800   87.5343    8.4338 C.ar    1  UNL1        0.0080
      8 C          59.4786   88.0465    9.5989 C.ar    1  UNL1        0.0808
      9 C          60.1797   89.2693    9.5195 C.ar    1  UNL1        0.1457
     10 F          60.7314   89.8425   10.6179 F       1  UNL1       -0.2040
     11 C          60.2780   89.9480    8.3015 C.ar    1  UNL1        0.0443
     12 N          60.1156   91.9494    3.8156 N.pl3   1  UNL1       -0.3041
     13 C          58.9244   92.0795    4.6629 C.3     1  UNL1        0.1122
     14 C          58.5833   90.7284    5.2880 C.3     1  UNL1        0.1122
     15 N          59.7839   90.1432    5.8970 N.pl3   1  UNL1       -0.3040
     16 C          60.9850   90.0167    5.0625 C.3     1  UNL1        0.1122
     17 C          61.3209   91.3609    4.4118 C.3     1  UNL1        0.1122
     18 C          59.1354   93.3101    0.4489 C.ar    1  UNL1       -0.0099
     19 C          59.0936   92.6334    1.6845 C.ar    1  UNL1        0.0111
     20 C          60.1869   92.6492    2.5592 C.ar    1  UNL1        0.0485
     21 C          61.3458   93.3438    2.1949 C.ar    1  UNL1        0.0267
     22 C          61.4149   94.0199    0.9755 C.ar    1  UNL1        0.0691
     23 CL         62.9008   94.8773    0.5807 Cl      1  UNL1       -0.0813
     24 C          60.3171   94.0105    0.0944 C.ar    1  UNL1        0.0643
     25 CL         60.4543   94.8790   -1.4389 Cl      1  UNL1       -0.0817
     26 C          57.3840   94.6703   -0.7529 C.3     1  UNL1        0.0047
     27 C          57.9169   93.2606   -0.4675 C.3     1  UNL1        0.0233
     28 C          58.2337   92.5169   -1.7716 C.3     1  UNL1        0.0047
     29 C          60.0476   85.4313   12.4219 C.3     1  UNL1        0.1535
     30 C          59.3263   84.1079   12.5368 C.2     1  UNL1        0.2443
     31 O          58.1789   84.0566   13.0589 O.2     1  UNL1       -0.2730
     32 N          59.9096   82.9303   11.9563 N.am    1  UNL1       -0.2825
     33 H          60.6944   83.0601   11.2780 H       1  UNL1        0.1549
     34 C          59.4042   81.5991   12.1555 C.ar    1  UNL1        0.0535
     35 C          59.6071   80.9077   13.3622 C.ar    1  UNL1        0.0353
     36 C          59.1179   79.6064   13.5009 C.ar    1  UNL1        0.1002
     37 N          58.4632   79.0095   12.4700 N.ar    1  UNL1       -0.2422
     38 C          58.2690   79.6473   11.2856 C.ar    1  UNL1        0.1002
     39 C          58.7431   80.9488   11.1046 C.ar    1  UNL1        0.0353
     40 C          61.5378   85.2841   12.8032 C.3     1  UNL1        0.0569
     41 C          62.2637   86.6007   12.8768 C.ar    1  UNL1       -0.0017
     42 C          62.7263   87.3539   11.8011 C.ar    1  UNL1        0.0681
     43 N          63.2706   88.5134   12.2343 N.ar    1  UNL1       -0.3523
     44 C          63.1598   88.4988   13.5736 C.ar    1  UNL1        0.0563
     45 C          63.5642   89.4925   14.4642 C.ar    1  UNL1        0.0170
     46 C          63.3406   89.2774   15.8362 C.ar    1  UNL1        0.0015
     47 C          62.7323   88.0841   16.2830 C.ar    1  UNL1        0.0001
     48 C          62.3381   87.0970   15.3622 C.ar    1  UNL1        0.0012
     49 C          62.5578   87.3443   14.0056 C.ar    1  UNL1        0.0131
     50 H          63.6843   89.2684   11.6434 H       1  UNL1        0.1660
@<TRIPOS>BOND
     1    26    27    1
     2    27    28    1
     3    27    18    1
     4    18    19   ar
     5    19    20   ar
     6    20    12    1
     7    12    13    1
     8    13    14    1
     9    14    15    1
    10    15     5    1
    11     5     6   ar
    12     6     7   ar
    13     7     8   ar
    14     8     1    1
    15     1     2    2
    16     1     3   am
    17     3    29    1
    18    29    40    1
    19    40    41    1
    20    41    42   ar
    21    42    43   ar
    22    43    44   ar
    23    44    45   ar
    24    45    46   ar
    25    46    47   ar
    26    47    48   ar
    27    48    49   ar
    28    29    30    1
    29    30    31    2
    30    30    32   am
    31    32    34    1
    32    34    35   ar
    33    35    36   ar
    34    36    37   ar
    35    37    38   ar
    36    38    39   ar
    37     8     9   ar
    38     9    10    1
    39     9    11   ar
    40    15    16    1
    41    16    17    1
    42    20    21   ar
    43    21    22   ar
    44    22    23    1
    45    22    24   ar
    46    24    25    1
    47    24    18   ar
    48    17    12    1
    49    11     5   ar
    50    49    41   ar
    51    39    34   ar
    52    49    44   ar
    53     3     4    1
    54    43    50    1
    55    32    33    1
@<TRIPOS>MOLECULE
*****
 50 55 0 0 0
SMALL
GASTEIGER

@<TRIPOS>ATOM
      1 C          59.8453   87.1099   10.9030 C.2     1  UNL1        0.2483
      2 O          60.7946   86.3097   11.1278 O.2     1  UNL1       -0.2701
      3 N          58.8148   87.2768   11.8892 N.am    1  UNL1       -0.2945
      4 H          58.2518   88.1559   11.8669 H       1  UNL1        0.1501
      5 C          59.8889   89.3183    7.2019 C.ar    1  UNL1        0.0502
      6 C          60.5098   89.8275    8.3517 C.ar    1  UNL1        0.0148
      7 C          60.4816   89.1074    9.5483 C.ar    1  UNL1        0.0080
      8 C          59.8217   87.8678    9.6258 C.ar    1  UNL1        0.0808
      9 C          59.1971   87.3586    8.4666 C.ar    1  UNL1        0.1457
     10 F          58.5926   86.1446    8.4624 F       1  UNL1       -0.2040
     11 C          59.2329   88.0817    7.2709 C.ar    1  UNL1        0.0443
     12 N          60.1297   91.8890    3.8936 N.pl3   1  UNL1       -0.3041
     13 C          58.9648   91.9719    4.7825 C.3     1  UNL1        0.1122
     14 C          58.6872   90.6036    5.4015 C.3     1  UNL1        0.1122
     15 N          59.9255   90.0491    5.9619 N.pl3   1  UNL1       -0.3040
     16 C          61.1005   89.9700    5.0856 C.3     1  UNL1        0.1122
     17 C          61.3723   91.3315    4.4410 C.3     1  UNL1        0.1122
     18 C          58.9833   93.2793    0.5921 C.ar    1  UNL1       -0.0099
     19 C          59.0050   92.5867    1.8194 C.ar    1  UNL1        0.0111
     20 C          60.1361   92.6053    2.6445 C.ar    1  UNL1        0.0485
     21 C          61.2692   93.3189    2.2380 C.ar    1  UNL1        0.0267
     22 C          61.2755   94.0111    1.0256 C.ar    1  UNL1        0.0691
     23 CL         62.7317   94.8920    0.5760 Cl      1  UNL1       -0.0813
     24 C          60.1394   93.9989    0.1944 C.ar    1  UNL1        0.0643
     25 CL         60.1974   94.8881   -1.3320 Cl      1  UNL1       -0.0817
     26 C          57.4270   94.5945   -0.8945 C.3     1  UNL1        0.0047
     27 C          57.7256   93.2259   -0.2695 C.3     1  UNL1        0.0233
     28 C          57.8380   92.1404   -1.3480 C.3     1  UNL1        0.0047
     29 C          58.6133   86.3097   12.9791 C.3     1  UNL1        0.1535
     30 C          58.0895   84.9908   12.4587 C.2     1  UNL1        0.2443
     31 O          56.8927   84.6559   12.6760 O.2     1  UNL1       -0.2730
     32 N          58.9301   84.1718   11.6300 N.am    1  UNL1       -0.2825
     33 H          59.7872   84.6104   11.2230 H       1  UNL1        0.1549
     34 C          58.6040   82.8303   11.2286 C.ar    1  UNL1        0.0535
     35 C          58.1138   82.5454    9.9426 C.ar    1  UNL1        0.0353
     36 C          57.7878   81.2292    9.6058 C.ar    1  UNL1        0.1002
     37 N          57.9310   80.2346   10.5212 N.ar    1  UNL1       -0.2422
     38 C          58.3850   80.4839   11.7778 C.ar    1  UNL1        0.1002
     39 C          58.7211   81.7859   12.1560 C.ar    1  UNL1        0.0353
     40 C          59.9046   86.1058   13.8030 C.3     1  UNL1        0.0569
     41 C          60.4391   87.3832   14.3931 C.ar    1  UNL1       -0.0017
     42 C          59.7463   88.2732   15.2094 C.ar    1  UNL1        0.0681
     43 N          60.5578   89.2777   15.6104 N.ar    1  UNL1       -0.3523
     44 C          61.7558   89.0332   15.0526 C.ar    1  UNL1        0.0563
     45 C          62.9212   89.7857   15.1936 C.ar    1  UNL1        0.0170
     46 C          64.0771   89.3401   14.5273 C.ar    1  UNL1        0.0015
     47 C          64.0409   88.1703   13.7373 C.ar    1  UNL1        0.0001
     48 C          62.8501   87.4331   13.6098 C.ar    1  UNL1        0.0012
     49 C          61.7225   87.8899   14.2951 C.ar    1  UNL1        0.0131
     50 H          60.3031   90.0752   16.2345 H       1  UNL1        0.1660
@<TRIPOS>BOND
     1    26    27    1
     2    27    28    1
     3    27    18    1
     4    18    19   ar
     5    19    20   ar
     6    20    12    1
     7    12    13    1
     8    13    14    1
     9    14    15    1
    10    15     5    1
    11     5     6   ar
    12     6     7   ar
    13     7     8   ar
    14     8     1    1
    15     1     2    2
    16     1     3   am
    17     3    29    1
    18    29    40    1
    19    40    41    1
    20    41    42   ar
    21    42    43   ar
    22    43    44   ar
    23    44    45   ar
    24    45    46   ar
    25    46    47   ar
    26    47    48   ar
    27    48    49   ar
    28    29    30    1
    29    30    31    2
    30    30    32   am
    31    32    34    1
    32    34    35   ar
    33    35    36   ar
    34    36    37   ar
    35    37    38   ar
    36    38    39   ar
    37     8     9   ar
    38     9    10    1
    39     9    11   ar
    40    15    16    1
    41    16    17    1
    42    20    21   ar
    43    21    22   ar
    44    22    23    1
    45    22    24   ar
    46    24    25    1
    47    24    18   ar
    48    17    12    1
    49    11     5   ar
    50    49    41   ar
    51    39    34   ar
    52    49    44   ar
    53     3     4    1
    54    43    50    1
    55    32    33    1
@<TRIPOS>MOLECULE
*****
 50 55 0 0 0
SMALL
GASTEIGER

@<TRIPOS>ATOM
      1 C          59.2245   87.5449   10.6588 C.2     1  UNL1        0.2483
      2 O          58.1772   86.8792   10.8868 O.2     1  UNL1       -0.2701
      3 N          60.2597   87.5939   11.6529 N.am    1  UNL1       -0.2945
      4 H          61.2278   87.8315   11.3422 H       1  UNL1        0.1501
      5 C          59.7421   89.6211    6.9173 C.ar    1  UNL1        0.0502
      6 C          60.1478   90.2042    8.1266 C.ar    1  UNL1        0.0148
      7 C          59.9668   89.5260    9.3343 C.ar    1  UNL1        0.0080
      8 C          59.3653   88.2550    9.3619 C.ar    1  UNL1        0.0808
      9 C          58.9575   87.6714    8.1427 C.ar    1  UNL1        0.1457
     10 F          58.4222   86.4262    8.0971 F       1  UNL1       -0.2040
     11 C          59.1456   88.3530    6.9369 C.ar    1  UNL1        0.0443
     12 N          60.4671   92.0599    3.5800 N.pl3   1  UNL1       -0.3041
     13 C          59.2564   92.2806    4.3796 C.3     1  UNL1        0.1122
     14 C          58.8025   90.9640    5.0065 C.3     1  UNL1        0.1122
     15 N          59.9377   90.3088    5.6675 N.pl3   1  UNL1       -0.3040
     16 C          61.1580   90.0912    4.8811 C.3     1  UNL1        0.1122
     17 C          61.6072   91.4009    4.2285 C.3     1  UNL1        0.1122
     18 C          59.7147   93.4154    0.1531 C.ar    1  UNL1       -0.0099
     19 C          59.5813   92.7606    1.3940 C.ar    1  UNL1        0.0111
     20 C          60.6320   92.7358    2.3193 C.ar    1  UNL1        0.0485
     21 C          61.8401   93.3666    2.0014 C.ar    1  UNL1        0.0267
     22 C          61.9999   94.0196    0.7779 C.ar    1  UNL1        0.0691
     23 CL         63.5437   94.7963    0.4428 Cl      1  UNL1       -0.0813
     24 C          60.9453   94.0510   -0.1541 C.ar    1  UNL1        0.0643
     25 CL         61.1974   94.8878   -1.6903 Cl      1  UNL1       -0.0817
     26 C          57.6439   92.1866   -0.5977 C.3     1  UNL1        0.0047
     27 C          58.5394   93.4120   -0.8193 C.3     1  UNL1        0.0233
     28 C          57.7303   94.7116   -0.7158 C.3     1  UNL1        0.0047
     29 C          60.0164   87.2131   13.0527 C.3     1  UNL1        0.1535
     30 C          61.0984   86.2942   13.5722 C.2     1  UNL1        0.2443
     31 O          60.8720   85.5490   14.5647 O.2     1  UNL1       -0.2730
     32 N          62.3467   86.1999   12.8673 N.am    1  UNL1       -0.2825
     33 H          62.3881   86.5882   11.8976 H       1  UNL1        0.1549
     34 C          63.5007   85.5001   13.3629 C.ar    1  UNL1        0.0535
     35 C          64.2451   85.9864   14.4513 C.ar    1  UNL1        0.0353
     36 C          65.3735   85.2844   14.8825 C.ar    1  UNL1        0.1002
     37 N          65.7554   84.1469   14.2438 N.ar    1  UNL1       -0.2422
     38 C          65.0654   83.6637   13.1772 C.ar    1  UNL1        0.1002
     39 C          63.9321   84.3356   12.7130 C.ar    1  UNL1        0.0353
     40 C          59.8621   88.4543   13.9601 C.3     1  UNL1        0.0569
     41 C          61.1485   88.8670   14.6238 C.ar    1  UNL1       -0.0017
     42 C          61.5128   88.6293   15.9464 C.ar    1  UNL1        0.0681
     43 N          62.7658   89.0801   16.1807 N.ar    1  UNL1       -0.3523
     44 C          63.1958   89.6038   15.0201 C.ar    1  UNL1        0.0563
     45 C          64.4413   90.1756   14.7629 C.ar    1  UNL1        0.0170
     46 C          64.6899   90.6547   13.4639 C.ar    1  UNL1        0.0015
     47 C          63.6968   90.5602   12.4647 C.ar    1  UNL1        0.0001
     48 C          62.4478   89.9821   12.7537 C.ar    1  UNL1        0.0012
     49 C          62.2345   89.5005   14.0469 C.ar    1  UNL1        0.0131
     50 H          63.2922   89.0228   17.0807 H       1  UNL1        0.1660
@<TRIPOS>BOND
     1    26    27    1
     2    27    28    1
     3    27    18    1
     4    18    19   ar
     5    19    20   ar
     6    20    12    1
     7    12    13    1
     8    13    14    1
     9    14    15    1
    10    15     5    1
    11     5     6   ar
    12     6     7   ar
    13     7     8   ar
    14     8     1    1
    15     1     2    2
    16     1     3   am
    17     3    29    1
    18    29    40    1
    19    40    41    1
    20    41    42   ar
    21    42    43   ar
    22    43    44   ar
    23    44    45   ar
    24    45    46   ar
    25    46    47   ar
    26    47    48   ar
    27    48    49   ar
    28    29    30    1
    29    30    31    2
    30    30    32   am
    31    32    34    1
    32    34    35   ar
    33    35    36   ar
    34    36    37   ar
    35    37    38   ar
    36    38    39   ar
    37     8     9   ar
    38     9    10    1
    39     9    11   ar
    40    15    16    1
    41    16    17    1
    42    20    21   ar
    43    21    22   ar
    44    22    23    1
    45    22    24   ar
    46    24    25    1
    47    24    18   ar
    48    17    12    1
    49    11     5   ar
    50    49    41   ar
    51    39    34   ar
    52    49    44   ar
    53     3     4    1
    54    43    50    1
    55    32    33    1
@<TRIPOS>MOLECULE
*****
 50 55 0 0 0
SMALL
GASTEIGER

@<TRIPOS>ATOM
      1 C          59.4432   84.4422    9.5126 C.2     1  UNL1        0.2483
      2 O          58.2002   84.4518    9.7291 O.2     1  UNL1       -0.2701
      3 N          59.9930   83.4781    8.6013 N.am    1  UNL1       -0.2945
      4 H          60.9187   83.6868    8.1656 H       1  UNL1        0.1501
      5 C          62.0008   87.2416   11.5616 C.ar    1  UNL1        0.0502
      6 C          61.2363   86.3082   12.2764 C.ar    1  UNL1        0.0148
      7 C          60.4038   85.4116   11.6025 C.ar    1  UNL1        0.0080
      8 C          60.3074   85.4358   10.1996 C.ar    1  UNL1        0.0808
      9 C          61.0779   86.3773    9.4832 C.ar    1  UNL1        0.1457
     10 F          61.0709   86.4144    8.1276 F       1  UNL1       -0.2040
     11 C          61.9128   87.2688   10.1631 C.ar    1  UNL1        0.0443
     12 N          64.0857   90.0851   13.8374 N.pl3   1  UNL1       -0.3041
     13 C          63.2444   90.5362   12.7227 C.3     1  UNL1        0.1122
     14 C          63.1930   89.4574   11.6429 C.3     1  UNL1        0.1122
     15 N          62.8711   88.1598   12.2491 N.pl3   1  UNL1       -0.3040
     16 C          63.6993   87.7020   13.3713 C.3     1  UNL1        0.1122
     17 C          63.7770   88.7868   14.4485 C.3     1  UNL1        0.1122
     18 C          67.0979   92.2228   14.5475 C.ar    1  UNL1       -0.0099
     19 C          66.2129   91.3185   13.9266 C.ar    1  UNL1        0.0111
     20 C          64.9702   91.0121   14.4945 C.ar    1  UNL1        0.0485
     21 C          64.6044   91.6095   15.7059 C.ar    1  UNL1        0.0267
     22 C          65.4636   92.5063   16.3436 C.ar    1  UNL1        0.0691
     23 CL         64.9403   93.2252   17.8628 Cl      1  UNL1       -0.0813
     24 C          66.7123   92.8208   15.7748 C.ar    1  UNL1        0.0643
     25 CL         67.7659   93.9595   16.6216 Cl      1  UNL1       -0.0817
     26 C          69.6045   92.1796   14.8253 C.3     1  UNL1        0.0047
     27 C          68.4402   92.5213   13.8870 C.3     1  UNL1        0.0233
     28 C          68.5761   91.7831   12.5488 C.3     1  UNL1        0.0047
     29 C          59.2459   82.2807    8.1869 C.3     1  UNL1        0.1535
     30 C          60.0902   81.0327    8.3066 C.2     1  UNL1        0.2443
     31 O          60.0132   80.1308    7.4277 O.2     1  UNL1       -0.2730
     32 N          61.0526   80.9273    9.3680 N.am    1  UNL1       -0.2825
     33 H          61.3039   81.8005    9.8850 H       1  UNL1        0.1549
     34 C          61.7782   79.7262    9.6811 C.ar    1  UNL1        0.0535
     35 C          61.4022   78.8973   10.7520 C.ar    1  UNL1        0.0353
     36 C          62.1523   77.7526   11.0331 C.ar    1  UNL1        0.1002
     37 N          63.2460   77.4518   10.2841 N.ar    1  UNL1       -0.2422
     38 C          63.6435   78.2452    9.2545 C.ar    1  UNL1        0.1002
     39 C          62.9224   79.3996    8.9406 C.ar    1  UNL1        0.0353
     40 C          57.9261   82.1336    8.9771 C.3     1  UNL1        0.0569
     41 C          57.9685   81.0321   10.0021 C.ar    1  UNL1       -0.0017
     42 C          57.5109   79.7276    9.8369 C.ar    1  UNL1        0.0681
     43 N          57.7705   78.9914   10.9410 N.ar    1  UNL1       -0.3523
     44 C          58.3844   79.8189   11.8039 C.ar    1  UNL1        0.0563
     45 C          58.8627   79.5073   13.0760 C.ar    1  UNL1        0.0170
     46 C          59.4895   80.5291   13.8120 C.ar    1  UNL1        0.0015
     47 C          59.6154   81.8268   13.2699 C.ar    1  UNL1        0.0001
     48 C          59.1198   82.1136   11.9854 C.ar    1  UNL1        0.0012
     49 C          58.5169   81.0762   11.2712 C.ar    1  UNL1        0.0131
     50 H          57.5454   77.9821   11.0860 H       1  UNL1        0.1660
@<TRIPOS>BOND
     1    26    27    1
     2    27    28    1
     3    27    18    1
     4    18    19   ar
     5    19    20   ar
     6    20    12    1
     7    12    13    1
     8    13    14    1
     9    14    15    1
    10    15     5    1
    11     5     6   ar
    12     6     7   ar
    13     7     8   ar
    14     8     1    1
    15     1     2    2
    16     1     3   am
    17     3    29    1
    18    29    40    1
    19    40    41    1
    20    41    42   ar
    21    42    43   ar
    22    43    44   ar
    23    44    45   ar
    24    45    46   ar
    25    46    47   ar
    26    47    48   ar
    27    48    49   ar
    28    29    30    1
    29    30    31    2
    30    30    32   am
    31    32    34    1
    32    34    35   ar
    33    35    36   ar
    34    36    37   ar
    35    37    38   ar
    36    38    39   ar
    37     8     9   ar
    38     9    10    1
    39     9    11   ar
    40    15    16    1
    41    16    17    1
    42    20    21   ar
    43    21    22   ar
    44    22    23    1
    45    22    24   ar
    46    24    25    1
    47    24    18   ar
    48    17    12    1
    49    11     5   ar
    50    49    41   ar
    51    39    34   ar
    52    49    44   ar
    53     3     4    1
    54    43    50    1
    55    32    33    1
@<TRIPOS>MOLECULE
*****
 50 55 0 0 0
SMALL
GASTEIGER

@<TRIPOS>ATOM
      1 C          58.6733   83.5840   12.5518 C.2     1  UNL1        0.2483
      2 O          57.4714   83.6183   12.9343 O.2     1  UNL1       -0.2701
      3 N          59.1569   82.4293   11.8480 N.am    1  UNL1       -0.2945
      4 H          60.0025   82.5402   11.2455 H       1  UNL1        0.1501
      5 C          61.2781   86.9447   13.2570 C.ar    1  UNL1        0.0502
      6 C          61.7829   85.7342   12.7604 C.ar    1  UNL1        0.0148
      7 C          60.9309   84.6484   12.5443 C.ar    1  UNL1        0.0080
      8 C          59.5574   84.7444   12.8310 C.ar    1  UNL1        0.0808
      9 C          59.0529   85.9643   13.3315 C.ar    1  UNL1        0.1457
     10 F          57.7300   86.1374   13.5752 F       1  UNL1       -0.2040
     11 C          59.9097   87.0487   13.5412 C.ar    1  UNL1        0.0443
     12 N          64.1655   89.9777   13.5318 N.pl3   1  UNL1       -0.3041
     13 C          64.3858   88.7119   14.2412 C.3     1  UNL1        0.1122
     14 C          63.0437   88.0971   14.6326 C.3     1  UNL1        0.1122
     15 N          62.1483   88.0720   13.4696 N.pl3   1  UNL1       -0.3040
     16 C          61.9276   89.3298   12.7457 C.3     1  UNL1        0.1122
     17 C          63.2681   89.9663   12.3704 C.3     1  UNL1        0.1122
     18 C          66.3555   92.9738   12.9202 C.ar    1  UNL1       -0.0099
     19 C          65.5090   91.8672   12.7078 C.ar    1  UNL1        0.0111
     20 C          65.0298   91.1026   13.7785 C.ar    1  UNL1        0.0485
     21 C          65.4059   91.4397   15.0836 C.ar    1  UNL1        0.0267
     22 C          66.2459   92.5290   15.3218 C.ar    1  UNL1        0.0691
     23 CL         66.6769   92.9010   16.9875 Cl      1  UNL1       -0.0813
     24 C          66.7271   93.3034   14.2491 C.ar    1  UNL1        0.0643
     25 CL         67.7901   94.6707   14.6017 Cl      1  UNL1       -0.0817
     26 C          67.1694   92.8497   10.5361 C.3     1  UNL1        0.0047
     27 C          66.8500   93.7729   11.7186 C.3     1  UNL1        0.0233
     28 C          65.8374   94.8532   11.3163 C.3     1  UNL1        0.0047
     29 C          58.4370   81.1467   11.8647 C.3     1  UNL1        0.1535
     30 C          57.9579   80.7631   10.4834 C.2     1  UNL1        0.2443
     31 O          57.3064   79.6960   10.3140 O.2     1  UNL1       -0.2730
     32 N          58.1589   81.6690    9.3867 N.am    1  UNL1       -0.2825
     33 H          58.4200   82.6557    9.6126 H       1  UNL1        0.1549
     34 C          57.9058   81.3370    8.0109 C.ar    1  UNL1        0.0535
     35 C          58.1347   80.0433    7.5118 C.ar    1  UNL1        0.0353
     36 C          57.8968   79.7739    6.1617 C.ar    1  UNL1        0.1002
     37 N          57.4608   80.7608    5.3349 N.ar    1  UNL1       -0.2422
     38 C          57.2488   82.0252    5.7861 C.ar    1  UNL1        0.1002
     39 C          57.4755   82.3375    7.1286 C.ar    1  UNL1        0.0353
     40 C          59.2961   80.0217   12.4845 C.3     1  UNL1        0.0569
     41 C          60.7737   80.2230   12.2797 C.ar    1  UNL1       -0.0017
     42 C          61.5275   79.7865   11.1936 C.ar    1  UNL1        0.0681
     43 N          62.8089   80.2025   11.3088 N.ar    1  UNL1       -0.3523
     44 C          62.8733   80.8946   12.4590 C.ar    1  UNL1        0.0563
     45 C          63.9887   81.5361   12.9959 C.ar    1  UNL1        0.0170
     46 C          63.8314   82.2196   14.2153 C.ar    1  UNL1        0.0015
     47 C          62.5792   82.2395   14.8675 C.ar    1  UNL1        0.0001
     48 C          61.4720   81.5801   14.3045 C.ar    1  UNL1        0.0012
     49 C          61.6532   80.9234   13.0856 C.ar    1  UNL1        0.0131
     50 H          63.5858   80.0265   10.6337 H       1  UNL1        0.1660
@<TRIPOS>BOND
     1    26    27    1
     2    27    28    1
     3    27    18    1
     4    18    19   ar
     5    19    20   ar
     6    20    12    1
     7    12    13    1
     8    13    14    1
     9    14    15    1
    10    15     5    1
    11     5     6   ar
    12     6     7   ar
    13     7     8   ar
    14     8     1    1
    15     1     2    2
    16     1     3   am
    17     3    29    1
    18    29    40    1
    19    40    41    1
    20    41    42   ar
    21    42    43   ar
    22    43    44   ar
    23    44    45   ar
    24    45    46   ar
    25    46    47   ar
    26    47    48   ar
    27    48    49   ar
    28    29    30    1
    29    30    31    2
    30    30    32   am
    31    32    34    1
    32    34    35   ar
    33    35    36   ar
    34    36    37   ar
    35    37    38   ar
    36    38    39   ar
    37     8     9   ar
    38     9    10    1
    39     9    11   ar
    40    15    16    1
    41    16    17    1
    42    20    21   ar
    43    21    22   ar
    44    22    23    1
    45    22    24   ar
    46    24    25    1
    47    24    18   ar
    48    17    12    1
    49    11     5   ar
    50    49    41   ar
    51    39    34   ar
    52    49    44   ar
    53     3     4    1
    54    43    50    1
    55    32    33    1
