@<TRIPOS>MOLECULE
*****
 47 52 0 0 0
SMALL
GASTEIGER

@<TRIPOS>ATOM
      1 O          63.4807   90.8301   10.1897 O.2     1  UNL1       -0.2701
      2 C          62.7296   90.0998   10.8907 C.2     1  UNL1        0.2483
      3 N          62.6969   90.3025   12.3083 N.am    1  UNL1       -0.2945
      4 H          61.8192   90.6695   12.7399 H       1  UNL1        0.1501
      5 C          61.9399   89.0136   10.2508 C.ar    1  UNL1        0.0808
      6 C          62.5770   87.8099    9.8978 C.ar    1  UNL1        0.0080
      7 C          61.8448   86.7360    9.3861 C.ar    1  UNL1        0.0148
      8 C          60.4564   86.8366    9.2110 C.ar    1  UNL1        0.0502
      9 C          59.8187   88.0430    9.5436 C.ar    1  UNL1        0.0443
     10 C          60.5478   89.1245   10.0446 C.ar    1  UNL1        0.1457
     11 F          59.8731   90.2613   10.3466 F       1  UNL1       -0.2040
     12 N          59.6941   85.6975    8.7567 N.pl3   1  UNL1       -0.3040
     13 C          58.2287   85.6616    8.8746 C.3     1  UNL1        0.1122
     14 C          57.8275   84.5476    9.8493 C.3     1  UNL1        0.1122
     15 N          58.6436   83.3385    9.6394 N.pl3   1  UNL1       -0.3040
     16 C          59.4800   83.2442    8.4325 C.3     1  UNL1        0.1122
     17 C          60.4003   84.4695    8.3495 C.3     1  UNL1        0.1122
     18 C          58.7103   82.3367   10.6762 C.ar    1  UNL1        0.0488
     19 C          59.0212   82.6934   12.0002 C.ar    1  UNL1        0.0154
     20 C          59.0461   81.7261   13.0075 C.ar    1  UNL1        0.0135
     21 C          58.7600   80.3903   12.7109 C.ar    1  UNL1        0.0683
     22 CL         58.7958   79.2031   14.0075 Cl      1  UNL1       -0.0814
     23 C          58.4450   80.0216   11.3930 C.ar    1  UNL1        0.0694
     24 CL         58.0761   78.3532   10.9774 Cl      1  UNL1       -0.0813
     25 C          58.4188   80.9927   10.3850 C.ar    1  UNL1        0.0268
     26 C          63.7855   89.8628   13.1853 C.3     1  UNL1        0.1535
     27 C          64.5708   91.0620   13.6706 C.2     1  UNL1        0.2443
     28 O          64.3862   92.1962   13.1504 O.2     1  UNL1       -0.2730
     29 N          65.5618   90.8889   14.6954 N.am    1  UNL1       -0.2825
     30 H          65.4575   90.0672   15.3330 H       1  UNL1        0.1549
     31 C          66.6994   91.7505   14.8891 C.ar    1  UNL1        0.0535
     32 C          67.8373   91.6782   14.0643 C.ar    1  UNL1        0.0353
     33 C          68.9340   92.5018   14.3276 C.ar    1  UNL1        0.1002
     34 N          68.9076   93.3584   15.3818 N.ar    1  UNL1       -0.2422
     35 C          67.8305   93.4394   16.2056 C.ar    1  UNL1        0.1002
     36 C          66.7119   92.6340   15.9780 C.ar    1  UNL1        0.0353
     37 C          63.2312   88.9911   14.3301 C.3     1  UNL1        0.0569
     38 C          62.4602   87.8131   13.8054 C.ar    1  UNL1       -0.0017
     39 C          62.9863   86.5968   13.3795 C.ar    1  UNL1        0.0681
     40 N          62.0014   85.7916   12.9201 N.ar    1  UNL1       -0.3523
     41 C          60.8602   86.4909   13.0459 C.ar    1  UNL1        0.0563
     42 C          59.5750   86.0821   12.6925 C.ar    1  UNL1        0.0170
     43 C          58.5168   86.9855   12.9015 C.ar    1  UNL1        0.0015
     44 C          58.7644   88.2633   13.4512 C.ar    1  UNL1        0.0001
     45 C          60.0722   88.6491   13.7974 C.ar    1  UNL1        0.0012
     46 C          61.1000   87.7309   13.5802 C.ar    1  UNL1        0.0131
     47 H          62.1110   84.8261   12.5375 H       1  UNL1        0.1660
@<TRIPOS>BOND
     1     1     2    2
     2     2     3   am
     3     3    26    1
     4    26    37    1
     5    37    38    1
     6    38    39   ar
     7    39    40   ar
     8    40    41   ar
     9    41    42   ar
    10    42    43   ar
    11    43    44   ar
    12    44    45   ar
    13    45    46   ar
    14    26    27    1
    15    27    28    2
    16    27    29   am
    17    29    31    1
    18    31    32   ar
    19    32    33   ar
    20    33    34   ar
    21    34    35   ar
    22    35    36   ar
    23     2     5    1
    24     5     6   ar
    25     6     7   ar
    26     7     8   ar
    27     8    12    1
    28    12    13    1
    29    13    14    1
    30    14    15    1
    31    15    18    1
    32    18    19   ar
    33    19    20   ar
    34    20    21   ar
    35    21    22    1
    36    21    23   ar
    37    23    24    1
    38    23    25   ar
    39    15    16    1
    40    16    17    1
    41     8     9   ar
    42     9    10   ar
    43    10    11    1
    44    46    38   ar
    45    36    31   ar
    46    10     5   ar
    47    46    41   ar
    48    17    12    1
    49    25    18   ar
    50     3     4    1
    51    40    47    1
    52    29    30    1
@<TRIPOS>MOLECULE
*****
 47 52 0 0 0
SMALL
GASTEIGER

@<TRIPOS>ATOM
      1 O          64.1195   91.0785   10.8413 O.2     1  UNL1       -0.2701
      2 C          63.0499   90.6370   11.3414 C.2     1  UNL1        0.2483
      3 N          62.6099   91.1582   12.6009 N.am    1  UNL1       -0.2945
      4 H          61.7368   91.7311   12.6264 H       1  UNL1        0.1501
      5 C          62.2981   89.5538   10.6525 C.ar    1  UNL1        0.0808
      6 C          61.3495   89.8871    9.6683 C.ar    1  UNL1        0.0080
      7 C          60.6990   88.8918    8.9353 C.ar    1  UNL1        0.0148
      8 C          60.9770   87.5363    9.1675 C.ar    1  UNL1        0.0502
      9 C          61.9088   87.1979   10.1625 C.ar    1  UNL1        0.0443
     10 C          62.5537   88.1890   10.9070 C.ar    1  UNL1        0.1457
     11 F          63.4426   87.7969   11.8529 F       1  UNL1       -0.2040
     12 N          60.3608   86.5154    8.3531 N.pl3   1  UNL1       -0.3040
     13 C          58.9151   86.5211    8.0837 C.3     1  UNL1        0.1122
     14 C          58.2764   85.2844    8.7273 C.3     1  UNL1        0.1122
     15 N          59.1211   84.0914    8.5393 N.pl3   1  UNL1       -0.3040
     16 C          60.2424   84.1550    7.5887 C.3     1  UNL1        0.1122
     17 C          61.1506   85.3394    7.9458 C.3     1  UNL1        0.1122
     18 C          58.9177   82.9364    9.3805 C.ar    1  UNL1        0.0488
     19 C          58.0938   81.8776    8.9595 C.ar    1  UNL1        0.0154
     20 C          57.9313   80.7447    9.7601 C.ar    1  UNL1        0.0135
     21 C          58.5883   80.6492   10.9903 C.ar    1  UNL1        0.0683
     22 CL         58.3629   79.2042   11.9666 Cl      1  UNL1       -0.0814
     23 C          59.4163   81.6985   11.4209 C.ar    1  UNL1        0.0694
     24 CL         60.2630   81.6176   12.9600 Cl      1  UNL1       -0.0813
     25 C          59.5795   82.8325   10.6165 C.ar    1  UNL1        0.0268
     26 C          63.2461   90.7826   13.8665 C.3     1  UNL1        0.1535
     27 C          62.6985   89.4547   14.3429 C.2     1  UNL1        0.2443
     28 O          61.4606   89.2193   14.2847 O.2     1  UNL1       -0.2730
     29 N          63.5939   88.4831   14.9057 N.am    1  UNL1       -0.2825
     30 H          64.6011   88.5404   14.6322 H       1  UNL1        0.1549
     31 C          63.2072   87.4552   15.8373 C.ar    1  UNL1        0.0535
     32 C          62.9324   86.1390   15.4222 C.ar    1  UNL1        0.0353
     33 C          62.5116   85.1933   16.3598 C.ar    1  UNL1        0.1002
     34 N          62.3556   85.5454   17.6626 N.ar    1  UNL1       -0.2422
     35 C          62.5971   86.8118   18.0909 C.ar    1  UNL1        0.1002
     36 C          63.0205   87.7887   17.1865 C.ar    1  UNL1        0.0353
     37 C          64.7809   90.7929   13.7174 C.3     1  UNL1        0.0569
     38 C          65.4390   91.5715   14.8210 C.ar    1  UNL1       -0.0017
     39 C          64.8259   92.0743   15.9651 C.ar    1  UNL1        0.0681
     40 N          65.7150   92.7703   16.7099 N.ar    1  UNL1       -0.3523
     41 C          66.8811   92.7169   16.0431 C.ar    1  UNL1        0.0563
     42 C          68.0930   93.2995   16.4117 C.ar    1  UNL1        0.0170
     43 C          69.1940   93.1259   15.5531 C.ar    1  UNL1        0.0015
     44 C          69.0602   92.3839   14.3583 C.ar    1  UNL1        0.0001
     45 C          67.8243   91.8082   14.0114 C.ar    1  UNL1        0.0012
     46 C          66.7518   91.9960   14.8837 C.ar    1  UNL1        0.0131
     47 H          65.5270   93.2567   17.6146 H       1  UNL1        0.1660
@<TRIPOS>BOND
     1     1     2    2
     2     2     3   am
     3     3    26    1
     4    26    37    1
     5    37    38    1
     6    38    39   ar
     7    39    40   ar
     8    40    41   ar
     9    41    42   ar
    10    42    43   ar
    11    43    44   ar
    12    44    45   ar
    13    45    46   ar
    14    26    27    1
    15    27    28    2
    16    27    29   am
    17    29    31    1
    18    31    32   ar
    19    32    33   ar
    20    33    34   ar
    21    34    35   ar
    22    35    36   ar
    23     2     5    1
    24     5     6   ar
    25     6     7   ar
    26     7     8   ar
    27     8    12    1
    28    12    13    1
    29    13    14    1
    30    14    15    1
    31    15    18    1
    32    18    19   ar
    33    19    20   ar
    34    20    21   ar
    35    21    22    1
    36    21    23   ar
    37    23    24    1
    38    23    25   ar
    39    15    16    1
    40    16    17    1
    41     8     9   ar
    42     9    10   ar
    43    10    11    1
    44    46    38   ar
    45    36    31   ar
    46    10     5   ar
    47    46    41   ar
    48    17    12    1
    49    25    18   ar
    50     3     4    1
    51    40    47    1
    52    29    30    1
@<TRIPOS>MOLECULE
*****
 47 52 0 0 0
SMALL
GASTEIGER

@<TRIPOS>ATOM
      1 O          63.5341   90.9160   10.3174 O.2     1  UNL1       -0.2701
      2 C          62.7563   90.1924   10.9961 C.2     1  UNL1        0.2483
      3 N          62.6782   90.4006   12.4110 N.am    1  UNL1       -0.2945
      4 H          61.7889   90.7741   12.8122 H       1  UNL1        0.1501
      5 C          61.9819   89.1082   10.3344 C.ar    1  UNL1        0.0808
      6 C          62.5937   87.8626   10.1024 C.ar    1  UNL1        0.0080
      7 C          61.8649   86.7950    9.5732 C.ar    1  UNL1        0.0148
      8 C          60.5055   86.9436    9.2593 C.ar    1  UNL1        0.0502
      9 C          59.8952   88.1907    9.4708 C.ar    1  UNL1        0.0443
     10 C          60.6223   89.2657    9.9887 C.ar    1  UNL1        0.1457
     11 F          59.9750   90.4434   10.1695 F       1  UNL1       -0.2040
     12 N          59.7383   85.8150    8.7874 N.pl3   1  UNL1       -0.3040
     13 C          58.2734   85.7802    8.9118 C.3     1  UNL1        0.1122
     14 C          57.8743   84.6489    9.8672 C.3     1  UNL1        0.1122
     15 N          58.6865   83.4422    9.6306 N.pl3   1  UNL1       -0.3040
     16 C          59.5168   83.3687    8.4181 C.3     1  UNL1        0.1122
     17 C          60.4396   84.5932    8.3537 C.3     1  UNL1        0.1122
     18 C          58.7558   82.4209   10.6480 C.ar    1  UNL1        0.0488
     19 C          59.1322   82.7428   11.9640 C.ar    1  UNL1        0.0154
     20 C          59.1600   81.7580   12.9541 C.ar    1  UNL1        0.0135
     21 C          58.8115   80.4392   12.6483 C.ar    1  UNL1        0.0683
     22 CL         58.8532   79.2294   13.9236 Cl      1  UNL1       -0.0814
     23 C          58.4309   80.1053   11.3385 C.ar    1  UNL1        0.0694
     24 CL         57.9824   78.4594   10.9119 Cl      1  UNL1       -0.0813
     25 C          58.4019   81.0939   10.3477 C.ar    1  UNL1        0.0268
     26 C          63.7349   89.9583   13.3249 C.3     1  UNL1        0.1535
     27 C          64.5724   91.1433   13.7543 C.2     1  UNL1        0.2443
     28 O          64.4365   92.2592   13.1819 O.2     1  UNL1       -0.2730
     29 N          65.5565   90.9750   14.7865 N.am    1  UNL1       -0.2825
     30 H          65.4176   90.1891   15.4615 H       1  UNL1        0.1549
     31 C          66.7309   91.7943   14.9405 C.ar    1  UNL1        0.0535
     32 C          66.7995   92.8255   15.8955 C.ar    1  UNL1        0.0353
     33 C          67.9432   93.6237   15.9683 C.ar    1  UNL1        0.1002
     34 N          68.9781   93.4143   15.1134 N.ar    1  UNL1       -0.2422
     35 C          68.9349   92.4377   14.1702 C.ar    1  UNL1        0.1002
     36 C          67.8103   91.6159   14.0632 C.ar    1  UNL1        0.0353
     37 C          63.1269   89.1786   14.5083 C.3     1  UNL1        0.0569
     38 C          62.6893   87.8013   14.0972 C.ar    1  UNL1       -0.0017
     39 C          61.4462   87.4413   13.5845 C.ar    1  UNL1        0.0681
     40 N          61.3895   86.1056   13.3786 N.ar    1  UNL1       -0.3523
     41 C          62.5824   85.6191   13.7627 C.ar    1  UNL1        0.0563
     42 C          62.9968   84.2880   13.7482 C.ar    1  UNL1        0.0170
     43 C          64.2941   83.9981   14.2094 C.ar    1  UNL1        0.0015
     44 C          65.1377   85.0331   14.6710 C.ar    1  UNL1        0.0001
     45 C          64.6922   86.3675   14.6750 C.ar    1  UNL1        0.0012
     46 C          63.4019   86.6236   14.2100 C.ar    1  UNL1        0.0131
     47 H          60.5780   85.5648   13.0051 H       1  UNL1        0.1660
@<TRIPOS>BOND
     1     1     2    2
     2     2     3   am
     3     3    26    1
     4    26    37    1
     5    37    38    1
     6    38    39   ar
     7    39    40   ar
     8    40    41   ar
     9    41    42   ar
    10    42    43   ar
    11    43    44   ar
    12    44    45   ar
    13    45    46   ar
    14    26    27    1
    15    27    28    2
    16    27    29   am
    17    29    31    1
    18    31    32   ar
    19    32    33   ar
    20    33    34   ar
    21    34    35   ar
    22    35    36   ar
    23     2     5    1
    24     5     6   ar
    25     6     7   ar
    26     7     8   ar
    27     8    12    1
    28    12    13    1
    29    13    14    1
    30    14    15    1
    31    15    18    1
    32    18    19   ar
    33    19    20   ar
    34    20    21   ar
    35    21    22    1
    36    21    23   ar
    37    23    24    1
    38    23    25   ar
    39    15    16    1
    40    16    17    1
    41     8     9   ar
    42     9    10   ar
    43    10    11    1
    44    46    38   ar
    45    36    31   ar
    46    10     5   ar
    47    46    41   ar
    48    17    12    1
    49    25    18   ar
    50     3     4    1
    51    40    47    1
    52    29    30    1
@<TRIPOS>MOLECULE
*****
 47 52 0 0 0
SMALL
GASTEIGER

@<TRIPOS>ATOM
      1 O          62.7176   87.7480   17.4592 O.2     1  UNL1       -0.2701
      2 C          63.2916   87.4870   16.3676 C.2     1  UNL1        0.2483
      3 N          63.9197   88.5527   15.6457 N.am    1  UNL1       -0.2945
      4 H          64.9607   88.5506   15.5580 H       1  UNL1        0.1501
      5 C          63.2604   86.1029   15.8231 C.ar    1  UNL1        0.0808
      6 C          62.1221   85.3026   16.0306 C.ar    1  UNL1        0.0080
      7 C          62.0222   84.0362   15.4497 C.ar    1  UNL1        0.0148
      8 C          63.0582   83.5343   14.6476 C.ar    1  UNL1        0.0502
      9 C          64.2050   84.3214   14.4535 C.ar    1  UNL1        0.0443
     10 C          64.3155   85.5840   15.0418 C.ar    1  UNL1        0.1457
     11 F          65.4482   86.2943   14.8158 F       1  UNL1       -0.2040
     12 N          62.9156   82.2588   13.9857 N.pl3   1  UNL1       -0.3040
     13 C          63.8577   81.8295   12.9413 C.3     1  UNL1        0.1122
     14 C          63.1140   81.7188   11.6047 C.3     1  UNL1        0.1122
     15 N          61.7854   81.1069   11.7849 N.pl3   1  UNL1       -0.3040
     16 C          61.4661   80.4623   13.0685 C.3     1  UNL1        0.1122
     17 C          61.7002   81.4566   14.2138 C.3     1  UNL1        0.1122
     18 C          60.7839   81.2663   10.7580 C.ar    1  UNL1        0.0488
     19 C          59.5074   80.6953   10.9052 C.ar    1  UNL1        0.0154
     20 C          58.5291   80.8851    9.9266 C.ar    1  UNL1        0.0135
     21 C          58.8074   81.6476    8.7885 C.ar    1  UNL1        0.0683
     22 CL         57.5475   81.8685    7.5819 Cl      1  UNL1       -0.0814
     23 C          60.0774   82.2257    8.6310 C.ar    1  UNL1        0.0694
     24 CL         60.4681   83.1942    7.2162 Cl      1  UNL1       -0.0813
     25 C          61.0562   82.0360    9.6136 C.ar    1  UNL1        0.0268
     26 C          63.1492   89.5473   14.8942 C.3     1  UNL1        0.1535
     27 C          63.9787   90.7974   14.6959 C.2     1  UNL1        0.2443
     28 O          63.7044   91.6015   13.7635 O.2     1  UNL1       -0.2730
     29 N          65.1095   91.0366   15.5481 N.am    1  UNL1       -0.2825
     30 H          65.1103   90.5790   16.4879 H       1  UNL1        0.1549
     31 C          66.2505   91.8389   15.1897 C.ar    1  UNL1        0.0535
     32 C          66.8759   91.7254   13.9342 C.ar    1  UNL1        0.0353
     33 C          68.0107   92.4906   13.6567 C.ar    1  UNL1        0.1002
     34 N          68.5156   93.3300   14.5981 N.ar    1  UNL1       -0.2422
     35 C          67.9441   93.4493   15.8246 C.ar    1  UNL1        0.1002
     36 C          66.8072   92.7028   16.1437 C.ar    1  UNL1        0.0353
     37 C          62.6347   88.9392   13.5739 C.3     1  UNL1        0.0569
     38 C          61.3430   88.1978   13.7721 C.ar    1  UNL1       -0.0017
     39 C          60.2871   88.5717   14.5985 C.ar    1  UNL1        0.0681
     40 N          59.3106   87.6363   14.5688 N.ar    1  UNL1       -0.3523
     41 C          59.7434   86.6731   13.7370 C.ar    1  UNL1        0.0563
     42 C          59.0848   85.4927   13.3951 C.ar    1  UNL1        0.0170
     43 C          59.7310   84.6125   12.5078 C.ar    1  UNL1        0.0015
     44 C          61.0070   84.9274   11.9895 C.ar    1  UNL1        0.0001
     45 C          61.6482   86.1256   12.3531 C.ar    1  UNL1        0.0012
     46 C          60.9816   86.9788   13.2329 C.ar    1  UNL1        0.0131
     47 H          58.4085   87.6578   15.0944 H       1  UNL1        0.1660
@<TRIPOS>BOND
     1     1     2    2
     2     2     3   am
     3     3    26    1
     4    26    37    1
     5    37    38    1
     6    38    39   ar
     7    39    40   ar
     8    40    41   ar
     9    41    42   ar
    10    42    43   ar
    11    43    44   ar
    12    44    45   ar
    13    45    46   ar
    14    26    27    1
    15    27    28    2
    16    27    29   am
    17    29    31    1
    18    31    32   ar
    19    32    33   ar
    20    33    34   ar
    21    34    35   ar
    22    35    36   ar
    23     2     5    1
    24     5     6   ar
    25     6     7   ar
    26     7     8   ar
    27     8    12    1
    28    12    13    1
    29    13    14    1
    30    14    15    1
    31    15    18    1
    32    18    19   ar
    33    19    20   ar
    34    20    21   ar
    35    21    22    1
    36    21    23   ar
    37    23    24    1
    38    23    25   ar
    39    15    16    1
    40    16    17    1
    41     8     9   ar
    42     9    10   ar
    43    10    11    1
    44    46    38   ar
    45    36    31   ar
    46    10     5   ar
    47    46    41   ar
    48    17    12    1
    49    25    18   ar
    50     3     4    1
    51    40    47    1
    52    29    30    1
@<TRIPOS>MOLECULE
*****
 47 52 0 0 0
SMALL
GASTEIGER

@<TRIPOS>ATOM
      1 O          59.4448   81.2279   12.4012 O.2     1  UNL1       -0.2701
      2 C          59.1378   82.4476   12.3160 C.2     1  UNL1        0.2483
      3 N          57.9544   82.8131   11.5965 N.am    1  UNL1       -0.2945
      4 H          57.1514   83.2170   12.1288 H       1  UNL1        0.1501
      5 C          60.0279   83.4819   12.9084 C.ar    1  UNL1        0.0808
      6 C          59.5882   84.8166   12.9777 C.ar    1  UNL1        0.0080
      7 C          60.3587   85.7915   13.6156 C.ar    1  UNL1        0.0148
      8 C          61.5906   85.4598   14.1995 C.ar    1  UNL1        0.0502
      9 C          62.0429   84.1328   14.1158 C.ar    1  UNL1        0.0443
     10 C          61.2820   83.1558   13.4686 C.ar    1  UNL1        0.1457
     11 F          61.7743   81.8932   13.4221 F       1  UNL1       -0.2040
     12 N          62.3448   86.4541   14.9259 N.pl3   1  UNL1       -0.3040
     13 C          61.6733   87.5146   15.6920 C.3     1  UNL1        0.1122
     14 C          61.9916   88.8744   15.0584 C.3     1  UNL1        0.1122
     15 N          63.4061   88.9534   14.6524 N.pl3   1  UNL1       -0.3040
     16 C          64.3411   87.9191   15.1225 C.3     1  UNL1        0.1122
     17 C          63.8052   86.5323   14.7417 C.3     1  UNL1        0.1122
     18 C          63.8180   89.9582   13.7018 C.ar    1  UNL1        0.0488
     19 C          64.8588   90.8526   14.0080 C.ar    1  UNL1        0.0154
     20 C          65.2800   91.7978   13.0699 C.ar    1  UNL1        0.0135
     21 C          64.6720   91.8645   11.8129 C.ar    1  UNL1        0.0683
     22 CL         65.2345   93.0643   10.6571 Cl      1  UNL1       -0.0814
     23 C          63.6335   90.9749   11.4935 C.ar    1  UNL1        0.0694
     24 CL         62.8437   91.0230    9.9231 Cl      1  UNL1       -0.0813
     25 C          63.2137   90.0271   12.4343 C.ar    1  UNL1        0.0268
     26 C          57.8930   82.7924   10.1325 C.3     1  UNL1        0.1535
     27 C          57.8007   84.2066    9.6018 C.2     1  UNL1        0.2443
     28 O          56.9919   84.4869    8.6753 O.2     1  UNL1       -0.2730
     29 N          58.6751   85.2165   10.1288 N.am    1  UNL1       -0.2825
     30 H          59.0632   85.0657   11.0876 H       1  UNL1        0.1549
     31 C          59.0740   86.4057    9.4211 C.ar    1  UNL1        0.0535
     32 C          58.7284   86.6218    8.0742 C.ar    1  UNL1        0.0353
     33 C          59.1844   87.7684    7.4201 C.ar    1  UNL1        0.1002
     34 N          59.9680   88.6633    8.0765 N.ar    1  UNL1       -0.2422
     35 C          60.3321   88.4744    9.3716 C.ar    1  UNL1        0.1002
     36 C          59.8974   87.3414   10.0636 C.ar    1  UNL1        0.0353
     37 C          59.0851   82.0006    9.5583 C.3     1  UNL1        0.0569
     38 C          59.8231   82.7904    8.5148 C.ar    1  UNL1       -0.0017
     39 C          59.5526   82.8229    7.1497 C.ar    1  UNL1        0.0681
     40 N          60.4555   83.5992    6.5080 N.ar    1  UNL1       -0.3523
     41 C          61.2967   84.0510    7.4544 C.ar    1  UNL1        0.0563
     42 C          62.4029   84.8807    7.2758 C.ar    1  UNL1        0.0170
     43 C          63.1578   85.2237    8.4124 C.ar    1  UNL1        0.0015
     44 C          62.7954   84.7341    9.6871 C.ar    1  UNL1        0.0001
     45 C          61.6743   83.8975    9.8371 C.ar    1  UNL1        0.0012
     46 C          60.9447   83.5767    8.6920 C.ar    1  UNL1        0.0131
     47 H          60.4932   83.7973    5.4834 H       1  UNL1        0.1660
@<TRIPOS>BOND
     1     1     2    2
     2     2     3   am
     3     3    26    1
     4    26    37    1
     5    37    38    1
     6    38    39   ar
     7    39    40   ar
     8    40    41   ar
     9    41    42   ar
    10    42    43   ar
    11    43    44   ar
    12    44    45   ar
    13    45    46   ar
    14    26    27    1
    15    27    28    2
    16    27    29   am
    17    29    31    1
    18    31    32   ar
    19    32    33   ar
    20    33    34   ar
    21    34    35   ar
    22    35    36   ar
    23     2     5    1
    24     5     6   ar
    25     6     7   ar
    26     7     8   ar
    27     8    12    1
    28    12    13    1
    29    13    14    1
    30    14    15    1
    31    15    18    1
    32    18    19   ar
    33    19    20   ar
    34    20    21   ar
    35    21    22    1
    36    21    23   ar
    37    23    24    1
    38    23    25   ar
    39    15    16    1
    40    16    17    1
    41     8     9   ar
    42     9    10   ar
    43    10    11    1
    44    46    38   ar
    45    36    31   ar
    46    10     5   ar
    47    46    41   ar
    48    17    12    1
    49    25    18   ar
    50     3     4    1
    51    40    47    1
    52    29    30    1
@<TRIPOS>MOLECULE
*****
 47 52 0 0 0
SMALL
GASTEIGER

@<TRIPOS>ATOM
      1 O          63.7692   90.1235   10.3925 O.2     1  UNL1       -0.2701
      2 C          62.5712   89.8624   10.6852 C.2     1  UNL1        0.2483
      3 N          61.9436   90.5954   11.7437 N.am    1  UNL1       -0.2945
      4 H          61.1639   91.2482   11.5047 H       1  UNL1        0.1501
      5 C          61.8524   88.7714    9.9738 C.ar    1  UNL1        0.0808
      6 C          62.4393   87.4956    9.8892 C.ar    1  UNL1        0.0080
      7 C          61.7479   86.4266    9.3145 C.ar    1  UNL1        0.0148
      8 C          60.4521   86.6040    8.8066 C.ar    1  UNL1        0.0502
      9 C          59.8695   87.8803    8.8710 C.ar    1  UNL1        0.0443
     10 C          60.5611   88.9560    9.4341 C.ar    1  UNL1        0.1457
     11 F          59.9433   90.1627    9.4662 F       1  UNL1       -0.2040
     12 N          59.7123   85.4785    8.2859 N.pl3   1  UNL1       -0.3040
     13 C          58.2428   85.4431    8.3292 C.3     1  UNL1        0.1122
     14 C          57.7918   84.3059    9.2540 C.3     1  UNL1        0.1122
     15 N          58.6161   83.1005    9.0550 N.pl3   1  UNL1       -0.3040
     16 C          59.5120   83.0346    7.8896 C.3     1  UNL1        0.1122
     17 C          60.4367   84.2593    7.8839 C.3     1  UNL1        0.1122
     18 C          58.6294   82.0729   10.0682 C.ar    1  UNL1        0.0488
     19 C          57.9269   80.8696    9.8796 C.ar    1  UNL1        0.0154
     20 C          57.9746   79.8622   10.8460 C.ar    1  UNL1        0.0135
     21 C          58.7239   80.0381   12.0129 C.ar    1  UNL1        0.0683
     22 CL         58.7637   78.7442   13.2029 Cl      1  UNL1       -0.0814
     23 C          59.4324   81.2340   12.2119 C.ar    1  UNL1        0.0694
     24 CL         60.3893   81.4949   13.6640 Cl      1  UNL1       -0.0813
     25 C          59.3850   82.2420   11.2416 C.ar    1  UNL1        0.0268
     26 C          62.2451   90.3412   13.1551 C.3     1  UNL1        0.1535
     27 C          61.3651   89.2256   13.6758 C.2     1  UNL1        0.2443
     28 O          61.7922   88.4419   14.5673 O.2     1  UNL1       -0.2730
     29 N          60.0574   89.0371   13.1130 N.am    1  UNL1       -0.2825
     30 H          59.6038   89.8628   12.6603 H       1  UNL1        0.1549
     31 C          59.3407   87.7880   13.1058 C.ar    1  UNL1        0.0535
     32 C          58.0300   87.6786   13.6062 C.ar    1  UNL1        0.0353
     33 C          57.3992   86.4326   13.6226 C.ar    1  UNL1        0.1002
     34 N          58.0521   85.3304   13.1703 N.ar    1  UNL1       -0.2422
     35 C          59.3234   85.4011   12.6967 C.ar    1  UNL1        0.1002
     36 C          59.9911   86.6277   12.6618 C.ar    1  UNL1        0.0353
     37 C          63.7515   90.0681   13.3395 C.3     1  UNL1        0.0569
     38 C          64.3095   90.8158   14.5173 C.ar    1  UNL1       -0.0017
     39 C          63.6839   91.0240   15.7432 C.ar    1  UNL1        0.0681
     40 N          64.4606   91.7872   16.5457 N.ar    1  UNL1       -0.3523
     41 C          65.5668   92.0677   15.8352 C.ar    1  UNL1        0.0563
     42 C          66.6570   92.8381   16.2374 C.ar    1  UNL1        0.0170
     43 C          67.7113   93.0137   15.3224 C.ar    1  UNL1        0.0015
     44 C          67.6522   92.4236   14.0401 C.ar    1  UNL1        0.0001
     45 C          66.5386   91.6520   13.6612 C.ar    1  UNL1        0.0012
     46 C          65.5102   91.4944   14.5907 C.ar    1  UNL1        0.0131
     47 H          64.2380   92.1003   17.5167 H       1  UNL1        0.1660
@<TRIPOS>BOND
     1     1     2    2
     2     2     3   am
     3     3    26    1
     4    26    37    1
     5    37    38    1
     6    38    39   ar
     7    39    40   ar
     8    40    41   ar
     9    41    42   ar
    10    42    43   ar
    11    43    44   ar
    12    44    45   ar
    13    45    46   ar
    14    26    27    1
    15    27    28    2
    16    27    29   am
    17    29    31    1
    18    31    32   ar
    19    32    33   ar
    20    33    34   ar
    21    34    35   ar
    22    35    36   ar
    23     2     5    1
    24     5     6   ar
    25     6     7   ar
    26     7     8   ar
    27     8    12    1
    28    12    13    1
    29    13    14    1
    30    14    15    1
    31    15    18    1
    32    18    19   ar
    33    19    20   ar
    34    20    21   ar
    35    21    22    1
    36    21    23   ar
    37    23    24    1
    38    23    25   ar
    39    15    16    1
    40    16    17    1
    41     8     9   ar
    42     9    10   ar
    43    10    11    1
    44    46    38   ar
    45    36    31   ar
    46    10     5   ar
    47    46    41   ar
    48    17    12    1
    49    25    18   ar
    50     3     4    1
    51    40    47    1
    52    29    30    1
@<TRIPOS>MOLECULE
*****
 47 52 0 0 0
SMALL
GASTEIGER

@<TRIPOS>ATOM
      1 O          64.3398   82.5732   15.9390 O.2     1  UNL1       -0.2701
      2 C          63.4985   83.0724   15.1440 C.2     1  UNL1        0.2483
      3 N          62.7522   82.1978   14.2898 N.am    1  UNL1       -0.2945
      4 H          61.7237   82.1044   14.4471 H       1  UNL1        0.1501
      5 C          63.3345   84.5489   15.0651 C.ar    1  UNL1        0.0808
      6 C          62.0754   85.1206   15.3241 C.ar    1  UNL1        0.0080
      7 C          61.9118   86.5075   15.3541 C.ar    1  UNL1        0.0148
      8 C          63.0015   87.3607   15.1239 C.ar    1  UNL1        0.0502
      9 C          64.2564   86.7947   14.8455 C.ar    1  UNL1        0.0443
     10 C          64.4234   85.4081   14.8024 C.ar    1  UNL1        0.1457
     11 F          65.6601   84.9244   14.5284 F       1  UNL1       -0.2040
     12 N          62.8435   88.7918   15.2344 N.pl3   1  UNL1       -0.3040
     13 C          62.5699   89.6245   14.0536 C.3     1  UNL1        0.1122
     14 C          63.7569   90.5652   13.8127 C.3     1  UNL1        0.1122
     15 N          64.2634   91.1174   15.0818 N.pl3   1  UNL1       -0.3040
     16 C          63.4610   90.9472   16.3034 C.3     1  UNL1        0.1122
     17 C          63.1543   89.4580   16.5120 C.3     1  UNL1        0.1122
     18 C          65.5862   91.6925   15.1294 C.ar    1  UNL1        0.0488
     19 C          65.9986   92.4539   16.2372 C.ar    1  UNL1        0.0154
     20 C          67.2929   92.9756   16.2963 C.ar    1  UNL1        0.0135
     21 C          68.1955   92.7449   15.2540 C.ar    1  UNL1        0.0683
     22 CL         69.8177   93.4135   15.3681 Cl      1  UNL1       -0.0814
     23 C          67.7968   91.9836   14.1434 C.ar    1  UNL1        0.0694
     24 CL         68.9014   91.6675   12.8121 Cl      1  UNL1       -0.0813
     25 C          66.4998   91.4600   14.0866 C.ar    1  UNL1        0.0268
     26 C          63.3476   81.5619   13.1114 C.3     1  UNL1        0.1535
     27 C          62.2590   81.1518   12.1434 C.2     1  UNL1        0.2443
     28 O          62.5229   80.3855   11.1768 O.2     1  UNL1       -0.2730
     29 N          60.9337   81.6801   12.3068 N.am    1  UNL1       -0.2825
     30 H          60.6586   82.0052   13.2613 H       1  UNL1        0.1549
     31 C          59.9695   81.8168   11.2458 C.ar    1  UNL1        0.0535
     32 C          59.9178   82.9619   10.4296 C.ar    1  UNL1        0.0353
     33 C          58.9298   83.0658    9.4480 C.ar    1  UNL1        0.1002
     34 N          58.0159   82.0730    9.2908 N.ar    1  UNL1       -0.2422
     35 C          58.0297   80.9631   10.0740 C.ar    1  UNL1        0.1002
     36 C          59.0012   80.8183   11.0674 C.ar    1  UNL1        0.0353
     37 C          64.4079   82.4881   12.4822 C.3     1  UNL1        0.0569
     38 C          63.9200   83.0955   11.1976 C.ar    1  UNL1       -0.0017
     39 C          64.1687   82.6301    9.9095 C.ar    1  UNL1        0.0681
     40 N          63.6174   83.4588    8.9936 N.ar    1  UNL1       -0.3523
     41 C          63.0293   84.4459    9.6914 C.ar    1  UNL1        0.0563
     42 C          62.3389   85.5452    9.1829 C.ar    1  UNL1        0.0170
     43 C          61.8089   86.4707   10.1005 C.ar    1  UNL1        0.0015
     44 C          61.9804   86.2798   11.4898 C.ar    1  UNL1        0.0001
     45 C          62.6828   85.1613   11.9743 C.ar    1  UNL1        0.0012
     46 C          63.1948   84.2604   11.0401 C.ar    1  UNL1        0.0131
     47 H          63.6519   83.3540    7.9551 H       1  UNL1        0.1660
@<TRIPOS>BOND
     1     1     2    2
     2     2     3   am
     3     3    26    1
     4    26    37    1
     5    37    38    1
     6    38    39   ar
     7    39    40   ar
     8    40    41   ar
     9    41    42   ar
    10    42    43   ar
    11    43    44   ar
    12    44    45   ar
    13    45    46   ar
    14    26    27    1
    15    27    28    2
    16    27    29   am
    17    29    31    1
    18    31    32   ar
    19    32    33   ar
    20    33    34   ar
    21    34    35   ar
    22    35    36   ar
    23     2     5    1
    24     5     6   ar
    25     6     7   ar
    26     7     8   ar
    27     8    12    1
    28    12    13    1
    29    13    14    1
    30    14    15    1
    31    15    18    1
    32    18    19   ar
    33    19    20   ar
    34    20    21   ar
    35    21    22    1
    36    21    23   ar
    37    23    24    1
    38    23    25   ar
    39    15    16    1
    40    16    17    1
    41     8     9   ar
    42     9    10   ar
    43    10    11    1
    44    46    38   ar
    45    36    31   ar
    46    10     5   ar
    47    46    41   ar
    48    17    12    1
    49    25    18   ar
    50     3     4    1
    51    40    47    1
    52    29    30    1
@<TRIPOS>MOLECULE
*****
 47 52 0 0 0
SMALL
GASTEIGER

@<TRIPOS>ATOM
      1 O          62.7887   88.4676   16.5819 O.2     1  UNL1       -0.2701
      2 C          63.5377   87.9739   15.6963 C.2     1  UNL1        0.2483
      3 N          64.4687   88.8298   15.0237 N.am    1  UNL1       -0.2945
      4 H          65.4899   88.6820   15.1864 H       1  UNL1        0.1501
      5 C          63.4068   86.5388   15.3268 C.ar    1  UNL1        0.0808
      6 C          62.1320   85.9442   15.2996 C.ar    1  UNL1        0.0080
      7 C          61.9656   84.6279   14.8628 C.ar    1  UNL1        0.0148
      8 C          63.0689   83.8693   14.4434 C.ar    1  UNL1        0.0502
      9 C          64.3460   84.4520   14.4872 C.ar    1  UNL1        0.0443
     10 C          64.5200   85.7643   14.9345 C.ar    1  UNL1        0.1457
     11 F          65.7785   86.2687   14.9527 F       1  UNL1       -0.2040
     12 N          62.8810   82.5373   13.9185 N.pl3   1  UNL1       -0.3040
     13 C          63.8238   81.9566   12.9507 C.3     1  UNL1        0.1122
     14 C          63.1037   81.7347   11.6149 C.3     1  UNL1        0.1122
     15 N          61.7447   81.2049   11.8254 N.pl3   1  UNL1       -0.3040
     16 C          61.3691   80.7175   13.1620 C.3     1  UNL1        0.1122
     17 C          61.6252   81.8186   14.1998 C.3     1  UNL1        0.1122
     18 C          60.7733   81.2960   10.7619 C.ar    1  UNL1        0.0488
     19 C          59.5291   80.6499   10.8686 C.ar    1  UNL1        0.0154
     20 C          58.5772   80.7732    9.8539 C.ar    1  UNL1        0.0135
     21 C          58.8501   81.5431    8.7195 C.ar    1  UNL1        0.0683
     22 CL         57.6237   81.6787    7.4667 Cl      1  UNL1       -0.0814
     23 C          60.0878   82.1959    8.6022 C.ar    1  UNL1        0.0694
     24 CL         60.4705   83.1763    7.1934 Cl      1  UNL1       -0.0813
     25 C          61.0401   82.0727    9.6209 C.ar    1  UNL1        0.0268
     26 C          64.0477   89.7894   13.9992 C.3     1  UNL1        0.1535
     27 C          62.9629   89.1793   13.1383 C.2     1  UNL1        0.2443
     28 O          61.7614   89.1966   13.5219 O.2     1  UNL1       -0.2730
     29 N          63.3189   88.5385   11.9034 N.am    1  UNL1       -0.2825
     30 H          64.2137   88.8308   11.4490 H       1  UNL1        0.1549
     31 C          62.5449   87.5066   11.2629 C.ar    1  UNL1        0.0535
     32 C          62.5573   86.1753   11.7184 C.ar    1  UNL1        0.0353
     33 C          61.8284   85.2033   11.0296 C.ar    1  UNL1        0.1002
     34 N          61.1222   85.5387    9.9185 N.ar    1  UNL1       -0.2422
     35 C          61.1039   86.8117    9.4448 C.ar    1  UNL1        0.1002
     36 C          61.8184   87.8151   10.1038 C.ar    1  UNL1        0.0353
     37 C          63.6316   91.1223   14.6535 C.3     1  UNL1        0.0569
     38 C          64.7553   91.7224   15.4501 C.ar    1  UNL1       -0.0017
     39 C          64.6727   92.2610   16.7310 C.ar    1  UNL1        0.0681
     40 N          65.8710   92.7597   17.1115 N.ar    1  UNL1       -0.3523
     41 C          66.7068   92.5467   16.0804 C.ar    1  UNL1        0.0563
     42 C          68.0532   92.8992   15.9970 C.ar    1  UNL1        0.0170
     43 C          68.7418   92.5886   14.8099 C.ar    1  UNL1        0.0015
     44 C          68.0765   91.9417   13.7446 C.ar    1  UNL1        0.0001
     45 C          66.7167   91.5989   13.8567 C.ar    1  UNL1        0.0012
     46 C          66.0616   91.9181   15.0464 C.ar    1  UNL1        0.0131
     47 H          66.0948   93.2235   18.0199 H       1  UNL1        0.1660
@<TRIPOS>BOND
     1     1     2    2
     2     2     3   am
     3     3    26    1
     4    26    37    1
     5    37    38    1
     6    38    39   ar
     7    39    40   ar
     8    40    41   ar
     9    41    42   ar
    10    42    43   ar
    11    43    44   ar
    12    44    45   ar
    13    45    46   ar
    14    26    27    1
    15    27    28    2
    16    27    29   am
    17    29    31    1
    18    31    32   ar
    19    32    33   ar
    20    33    34   ar
    21    34    35   ar
    22    35    36   ar
    23     2     5    1
    24     5     6   ar
    25     6     7   ar
    26     7     8   ar
    27     8    12    1
    28    12    13    1
    29    13    14    1
    30    14    15    1
    31    15    18    1
    32    18    19   ar
    33    19    20   ar
    34    20    21   ar
    35    21    22    1
    36    21    23   ar
    37    23    24    1
    38    23    25   ar
    39    15    16    1
    40    16    17    1
    41     8     9   ar
    42     9    10   ar
    43    10    11    1
    44    46    38   ar
    45    36    31   ar
    46    10     5   ar
    47    46    41   ar
    48    17    12    1
    49    25    18   ar
    50     3     4    1
    51    40    47    1
    52    29    30    1
@<TRIPOS>MOLECULE
*****
 47 52 0 0 0
SMALL
GASTEIGER

@<TRIPOS>ATOM
      1 O          62.7175   79.1545   11.4785 O.2     1  UNL1       -0.2701
      2 C          61.8471   79.8881   12.0202 C.2     1  UNL1        0.2483
      3 N          60.4627   79.6063   11.7842 N.am    1  UNL1       -0.2945
      4 H          59.8788   79.2698   12.5823 H       1  UNL1        0.1501
      5 C          62.2651   81.0560   12.8414 C.ar    1  UNL1        0.0808
      6 C          63.4141   81.7822   12.4782 C.ar    1  UNL1        0.0080
      7 C          63.7769   82.9402   13.1699 C.ar    1  UNL1        0.0148
      8 C          63.0028   83.4027   14.2448 C.ar    1  UNL1        0.0502
      9 C          61.8658   82.6704   14.6236 C.ar    1  UNL1        0.0443
     10 C          61.5047   81.5047   13.9429 C.ar    1  UNL1        0.1457
     11 F          60.3960   80.8434   14.3576 F       1  UNL1       -0.2040
     12 N          63.3380   84.6425   14.9048 N.pl3   1  UNL1       -0.3040
     13 C          62.3318   85.4025   15.6615 C.3     1  UNL1        0.1122
     14 C          62.0901   86.7494   14.9692 C.3     1  UNL1        0.1122
     15 N          63.3563   87.3417   14.5023 N.pl3   1  UNL1       -0.3040
     16 C          64.6272   86.7648   14.9683 C.3     1  UNL1        0.1122
     17 C          64.6525   85.2620   14.6577 C.3     1  UNL1        0.1122
     18 C          63.3288   88.3813   13.5017 C.ar    1  UNL1        0.0488
     19 C          63.9617   89.6157   13.7312 C.ar    1  UNL1        0.0154
     20 C          63.9657   90.6044   12.7446 C.ar    1  UNL1        0.0135
     21 C          63.3411   90.3771   11.5147 C.ar    1  UNL1        0.0683
     22 CL         63.3730   91.6442   10.2960 Cl      1  UNL1       -0.0814
     23 C          62.7081   89.1474   11.2719 C.ar    1  UNL1        0.0694
     24 CL         61.9132   88.8195    9.7380 Cl      1  UNL1       -0.0813
     25 C          62.7065   88.1570   12.2612 C.ar    1  UNL1        0.0268
     26 C          59.8062   79.9268   10.5138 C.3     1  UNL1        0.1535
     27 C          58.7243   80.9603   10.7407 C.2     1  UNL1        0.2443
     28 O          57.6548   80.9187   10.0732 O.2     1  UNL1       -0.2730
     29 N          58.9450   82.0166   11.6883 N.am    1  UNL1       -0.2825
     30 H          59.6401   81.8439   12.4495 H       1  UNL1        0.1549
     31 C          58.2970   83.3021   11.6480 C.ar    1  UNL1        0.0535
     32 C          57.8132   83.8549   10.4477 C.ar    1  UNL1        0.0353
     33 C          57.2388   85.1279   10.4564 C.ar    1  UNL1        0.1002
     34 N          57.1595   85.8337   11.6145 N.ar    1  UNL1       -0.2422
     35 C          57.6324   85.3340   12.7858 C.ar    1  UNL1        0.1002
     36 C          58.2139   84.0643   12.8221 C.ar    1  UNL1        0.0353
     37 C          60.8517   80.3564    9.4649 C.3     1  UNL1        0.0569
     38 C          60.4070   81.5753    8.7072 C.ar    1  UNL1       -0.0017
     39 C          59.5233   81.6107    7.6323 C.ar    1  UNL1        0.0681
     40 N          59.3989   82.8740    7.1651 N.ar    1  UNL1       -0.3523
     41 C          60.2008   83.6343    7.9306 C.ar    1  UNL1        0.0563
     42 C          60.4175   85.0074    7.8242 C.ar    1  UNL1        0.0170
     43 C          61.3144   85.6037    8.7295 C.ar    1  UNL1        0.0015
     44 C          61.9685   84.8227    9.7084 C.ar    1  UNL1        0.0001
     45 C          61.7312   83.4386    9.7915 C.ar    1  UNL1        0.0012
     46 C          60.8353   82.8767    8.8815 C.ar    1  UNL1        0.0131
     47 H          58.8058   83.1889    6.3654 H       1  UNL1        0.1660
@<TRIPOS>BOND
     1     1     2    2
     2     2     3   am
     3     3    26    1
     4    26    37    1
     5    37    38    1
     6    38    39   ar
     7    39    40   ar
     8    40    41   ar
     9    41    42   ar
    10    42    43   ar
    11    43    44   ar
    12    44    45   ar
    13    45    46   ar
    14    26    27    1
    15    27    28    2
    16    27    29   am
    17    29    31    1
    18    31    32   ar
    19    32    33   ar
    20    33    34   ar
    21    34    35   ar
    22    35    36   ar
    23     2     5    1
    24     5     6   ar
    25     6     7   ar
    26     7     8   ar
    27     8    12    1
    28    12    13    1
    29    13    14    1
    30    14    15    1
    31    15    18    1
    32    18    19   ar
    33    19    20   ar
    34    20    21   ar
    35    21    22    1
    36    21    23   ar
    37    23    24    1
    38    23    25   ar
    39    15    16    1
    40    16    17    1
    41     8     9   ar
    42     9    10   ar
    43    10    11    1
    44    46    38   ar
    45    36    31   ar
    46    10     5   ar
    47    46    41   ar
    48    17    12    1
    49    25    18   ar
    50     3     4    1
    51    40    47    1
    52    29    30    1
