@<TRIPOS>MOLECULE
*****
 48 53 0 0 0
SMALL
GASTEIGER

@<TRIPOS>ATOM
      1 O           9.5077   74.8757   24.1409 O.2     1  UNL1       -0.2701
      2 C           8.8012   75.8596   24.4919 C.2     1  UNL1        0.2484
      3 N           9.3675   76.9142   25.2870 N.am    1  UNL1       -0.2945
      4 H           8.7085   77.6379   25.6470 H       1  UNL1        0.1501
      5 C           7.3613   75.8800   24.1671 C.ar    1  UNL1        0.0813
      6 C           6.4240   76.1637   25.1718 C.ar    1  UNL1        0.0147
      7 C           5.0857   76.4127   24.8462 C.ar    1  UNL1        0.0481
      8 BR          3.8654   76.8201   26.2669 Br      1  UNL1       -0.0477
      9 C           4.6676   76.3667   23.5007 C.ar    1  UNL1        0.0565
     10 C           5.5855   75.9596   22.5178 C.ar    1  UNL1        0.0448
     11 C           6.9211   75.7276   22.8427 C.ar    1  UNL1        0.1457
     12 F           7.7853   75.3765   21.8563 F       1  UNL1       -0.2040
     13 N           3.3611   76.8419   23.1137 N.pl3   1  UNL1       -0.3036
     14 C           2.5782   76.1299   22.0950 C.3     1  UNL1        0.1122
     15 C           2.7173   76.8344   20.7285 C.3     1  UNL1        0.1123
     16 N           3.2763   78.1859   20.8957 N.pl3   1  UNL1       -0.3034
     17 C           2.7694   78.9880   22.0155 C.3     1  UNL1        0.1123
     18 C           3.0146   78.2544   23.3492 C.3     1  UNL1        0.1122
     19 C           4.5135   78.5382   20.2434 C.ar    1  UNL1        0.0587
     20 C           5.6128   78.9709   21.0066 C.ar    1  UNL1        0.0162
     21 C           6.8419   79.2323   20.3983 C.ar    1  UNL1        0.0127
     22 C           6.9824   79.0923   19.0166 C.ar    1  UNL1        0.0586
     23 CL          8.5291   79.4214   18.2573 Cl      1  UNL1       -0.0822
     24 C           5.8898   78.6908   18.2415 C.ar    1  UNL1        0.0240
     25 C           4.6576   78.4111   18.8464 C.ar    1  UNL1        0.0718
     26 CL          3.3029   77.9464   17.8255 Cl      1  UNL1       -0.0809
     27 C          10.6946   76.8174   25.9043 C.3     1  UNL1        0.1535
     28 C          11.6909   77.7127   25.1995 C.2     1  UNL1        0.2443
     29 O          11.2874   78.4318   24.2452 O.2     1  UNL1       -0.2730
     30 N          13.0719   77.7670   25.6030 N.am    1  UNL1       -0.2825
     31 H          13.3362   77.4332   26.5553 H       1  UNL1        0.1549
     32 C          14.1258   78.3053   24.7874 C.ar    1  UNL1        0.0535
     33 C          14.6078   79.5951   25.0492 C.ar    1  UNL1        0.0353
     34 C          15.6548   80.1111   24.2822 C.ar    1  UNL1        0.1002
     35 N          16.2143   79.3586   23.2983 N.ar    1  UNL1       -0.2422
     36 C          15.7825   78.0971   23.0343 C.ar    1  UNL1        0.1002
     37 C          14.7370   77.5432   23.7773 C.ar    1  UNL1        0.0353
     38 C          10.6296   77.1002   27.4215 C.3     1  UNL1        0.0569
     39 C          10.1534   75.9291   28.2401 C.ar    1  UNL1       -0.0017
     40 C          10.9260   74.8619   28.6911 C.ar    1  UNL1        0.0681
     41 N          10.1806   74.0236   29.4467 N.ar    1  UNL1       -0.3523
     42 C           8.9424   74.5460   29.4707 C.ar    1  UNL1        0.0563
     43 C           7.8226   74.0359   30.1274 C.ar    1  UNL1        0.0170
     44 C           6.6151   74.7501   30.0204 C.ar    1  UNL1        0.0015
     45 C           6.5520   75.9384   29.2602 C.ar    1  UNL1        0.0001
     46 C           7.6961   76.4242   28.6027 C.ar    1  UNL1        0.0012
     47 C           8.8840   75.7060   28.7416 C.ar    1  UNL1        0.0131
     48 H          10.5064   73.1506   29.9179 H       1  UNL1        0.1660
@<TRIPOS>BOND
     1     1     2    2
     2     2     3   am
     3     3    27    1
     4    27    38    1
     5    38    39    1
     6    39    40   ar
     7    40    41   ar
     8    41    42   ar
     9    42    43   ar
    10    43    44   ar
    11    44    45   ar
    12    45    46   ar
    13    46    47   ar
    14    27    28    1
    15    28    29    2
    16    28    30   am
    17    30    32    1
    18    32    33   ar
    19    33    34   ar
    20    34    35   ar
    21    35    36   ar
    22    36    37   ar
    23     2     5    1
    24     5     6   ar
    25     6     7   ar
    26     7     8    1
    27     7     9   ar
    28     9    13    1
    29    13    14    1
    30    14    15    1
    31    15    16    1
    32    16    19    1
    33    19    20   ar
    34    20    21   ar
    35    21    22   ar
    36    22    23    1
    37    22    24   ar
    38    24    25   ar
    39    25    26    1
    40    16    17    1
    41    17    18    1
    42     9    10   ar
    43    10    11   ar
    44    11    12    1
    45    47    39   ar
    46    37    32   ar
    47    11     5   ar
    48    47    42   ar
    49    18    13    1
    50    25    19   ar
    51     3     4    1
    52    41    48    1
    53    30    31    1
@<TRIPOS>MOLECULE
*****
 48 53 0 0 0
SMALL
GASTEIGER

@<TRIPOS>ATOM
      1 O          10.2041   78.3845   22.4752 O.2     1  UNL1       -0.2701
      2 C           9.0865   77.8802   22.7700 C.2     1  UNL1        0.2484
      3 N           8.7699   77.5624   24.1352 N.am    1  UNL1       -0.2945
      4 H           7.8838   77.0387   24.3033 H       1  UNL1        0.1501
      5 C           8.1378   77.5244   21.6965 C.ar    1  UNL1        0.0813
      6 C           7.8050   76.1790   21.4779 C.ar    1  UNL1        0.0147
      7 C           6.7463   75.8372   20.6286 C.ar    1  UNL1        0.0481
      8 BR          6.3301   73.9806   20.3971 Br      1  UNL1       -0.0477
      9 C           6.0129   76.8480   19.9747 C.ar    1  UNL1        0.0565
     10 C           6.4333   78.1827   20.1023 C.ar    1  UNL1        0.0448
     11 C           7.4778   78.5216   20.9609 C.ar    1  UNL1        0.1457
     12 F           7.8261   79.8276   21.0878 F       1  UNL1       -0.2040
     13 N           4.7829   76.5430   19.2843 N.pl3   1  UNL1       -0.3036
     14 C           3.8828   77.6193   18.8498 C.3     1  UNL1        0.1122
     15 C           2.7234   77.7820   19.8559 C.3     1  UNL1        0.1123
     16 N           2.6391   76.6116   20.7446 N.pl3   1  UNL1       -0.3034
     17 C           2.8150   75.2896   20.1318 C.3     1  UNL1        0.1123
     18 C           4.1892   75.2034   19.4382 C.3     1  UNL1        0.1122
     19 C           2.7693   76.7809   22.1711 C.ar    1  UNL1        0.0587
     20 C           3.7648   76.0795   22.8748 C.ar    1  UNL1        0.0162
     21 C           3.9586   76.2983   24.2399 C.ar    1  UNL1        0.0127
     22 C           3.1431   77.1995   24.9265 C.ar    1  UNL1        0.0586
     23 CL          3.3912   77.4714   26.6416 Cl      1  UNL1       -0.0822
     24 C           2.1304   77.8825   24.2456 C.ar    1  UNL1        0.0240
     25 C           1.9400   77.6803   22.8725 C.ar    1  UNL1        0.0718
     26 CL          0.6291   78.5334   22.0680 Cl      1  UNL1       -0.0809
     27 C           9.7671   77.5992   25.2103 C.3     1  UNL1        0.1535
     28 C           9.1446   78.0411   26.5172 C.2     1  UNL1        0.2443
     29 O           8.3326   79.0060   26.5038 O.2     1  UNL1       -0.2730
     30 N           9.4495   77.3789   27.7587 N.am    1  UNL1       -0.2825
     31 H           9.8534   76.4174   27.7356 H       1  UNL1        0.1549
     32 C           9.1852   77.9415   29.0546 C.ar    1  UNL1        0.0535
     33 C          10.0209   78.9521   29.5493 C.ar    1  UNL1        0.0353
     34 C           9.7498   79.5268   30.7931 C.ar    1  UNL1        0.1002
     35 N           8.6704   79.1193   31.5115 N.ar    1  UNL1       -0.2422
     36 C           7.8299   78.1562   31.0492 C.ar    1  UNL1        0.1002
     37 C           8.0655   77.5547   29.8104 C.ar    1  UNL1        0.0353
     38 C          10.4995   76.2456   25.3428 C.3     1  UNL1        0.0569
     39 C           9.8211   75.1119   24.6196 C.ar    1  UNL1       -0.0017
     40 C           8.4665   74.7919   24.6620 C.ar    1  UNL1        0.0681
     41 N           8.2007   73.7479   23.8442 N.ar    1  UNL1       -0.3523
     42 C           9.3756   73.3995   23.2918 C.ar    1  UNL1        0.0563
     43 C           9.6075   72.3737   22.3757 C.ar    1  UNL1        0.0170
     44 C          10.9255   72.1822   21.9221 C.ar    1  UNL1        0.0015
     45 C          11.9714   73.0038   22.3964 C.ar    1  UNL1        0.0001
     46 C          11.7083   74.0254   23.3259 C.ar    1  UNL1        0.0012
     47 C          10.3894   74.2047   23.7440 C.ar    1  UNL1        0.0131
     48 H           7.2690   73.3077   23.6757 H       1  UNL1        0.1660
@<TRIPOS>BOND
     1     1     2    2
     2     2     3   am
     3     3    27    1
     4    27    38    1
     5    38    39    1
     6    39    40   ar
     7    40    41   ar
     8    41    42   ar
     9    42    43   ar
    10    43    44   ar
    11    44    45   ar
    12    45    46   ar
    13    46    47   ar
    14    27    28    1
    15    28    29    2
    16    28    30   am
    17    30    32    1
    18    32    33   ar
    19    33    34   ar
    20    34    35   ar
    21    35    36   ar
    22    36    37   ar
    23     2     5    1
    24     5     6   ar
    25     6     7   ar
    26     7     8    1
    27     7     9   ar
    28     9    13    1
    29    13    14    1
    30    14    15    1
    31    15    16    1
    32    16    19    1
    33    19    20   ar
    34    20    21   ar
    35    21    22   ar
    36    22    23    1
    37    22    24   ar
    38    24    25   ar
    39    25    26    1
    40    16    17    1
    41    17    18    1
    42     9    10   ar
    43    10    11   ar
    44    11    12    1
    45    47    39   ar
    46    37    32   ar
    47    11     5   ar
    48    47    42   ar
    49    18    13    1
    50    25    19   ar
    51     3     4    1
    52    41    48    1
    53    30    31    1
@<TRIPOS>MOLECULE
*****
 48 53 0 0 0
SMALL
GASTEIGER

@<TRIPOS>ATOM
      1 O          10.2267   79.3027   22.4706 O.2     1  UNL1       -0.2701
      2 C           9.2435   78.5986   22.8282 C.2     1  UNL1        0.2484
      3 N           9.0812   78.2232   24.2058 N.am    1  UNL1       -0.2945
      4 H           8.3202   77.5435   24.4219 H       1  UNL1        0.1501
      5 C           8.3089   78.0763   21.8120 C.ar    1  UNL1        0.0813
      6 C           8.0988   76.6933   21.7034 C.ar    1  UNL1        0.0147
      7 C           7.0584   76.1919   20.9128 C.ar    1  UNL1        0.0481
      8 BR          6.8128   74.2927   20.8316 Br      1  UNL1       -0.0477
      9 C           6.2193   77.0782   20.2074 C.ar    1  UNL1        0.0565
     10 C           6.5156   78.4517   20.2235 C.ar    1  UNL1        0.0448
     11 C           7.5424   78.9496   21.0240 C.ar    1  UNL1        0.1457
     12 F           7.7695   80.2879   21.0436 F       1  UNL1       -0.2040
     13 N           5.0084   76.6098   19.5774 N.pl3   1  UNL1       -0.3036
     14 C           3.9557   77.5560   19.1847 C.3     1  UNL1        0.1122
     15 C           2.8340   77.5741   20.2451 C.3     1  UNL1        0.1123
     16 N           2.9457   76.4099   21.1390 N.pl3   1  UNL1       -0.3034
     17 C           3.2636   75.1172   20.5208 C.3     1  UNL1        0.1123
     18 C           4.6028   75.2054   19.7620 C.3     1  UNL1        0.1122
     19 C           3.1201   76.6062   22.5572 C.ar    1  UNL1        0.0587
     20 C           4.2027   76.0036   23.2229 C.ar    1  UNL1        0.0162
     21 C           4.4334   76.2542   24.5768 C.ar    1  UNL1        0.0127
     22 C           3.5706   77.0874   25.2908 C.ar    1  UNL1        0.0586
     23 CL          3.8655   77.3996   26.9917 Cl      1  UNL1       -0.0822
     24 C           2.4736   77.6703   24.6488 C.ar    1  UNL1        0.0240
     25 C           2.2444   77.4365   23.2866 C.ar    1  UNL1        0.0718
     26 CL          0.8302   78.1612   22.5327 Cl      1  UNL1       -0.0809
     27 C          10.1225   78.4411   25.2157 C.3     1  UNL1        0.1535
     28 C           9.5241   78.9106   26.5242 C.2     1  UNL1        0.2443
     29 O           9.5648   80.1406   26.8002 O.2     1  UNL1       -0.2730
     30 N           8.9049   77.9907   27.4424 N.am    1  UNL1       -0.2825
     31 H           8.5922   77.0585   27.0939 H       1  UNL1        0.1549
     32 C           8.6374   78.2917   28.8221 C.ar    1  UNL1        0.0535
     33 C           7.3571   78.0567   29.3419 C.ar    1  UNL1        0.0353
     34 C           7.0998   78.3151   30.6901 C.ar    1  UNL1        0.1002
     35 N           8.0916   78.7758   31.4972 N.ar    1  UNL1       -0.2422
     36 C           9.3483   78.9939   31.0273 C.ar    1  UNL1        0.1002
     37 C           9.6479   78.7492   29.6848 C.ar    1  UNL1        0.0353
     38 C          11.0014   77.1835   25.3956 C.3     1  UNL1        0.0569
     39 C          12.1767   77.1215   24.4559 C.ar    1  UNL1       -0.0017
     40 C          12.2364   76.4378   23.2443 C.ar    1  UNL1        0.0681
     41 N          13.4269   76.6502   22.6386 N.ar    1  UNL1       -0.3523
     42 C          14.1236   77.4548   23.4596 C.ar    1  UNL1        0.0563
     43 C          15.4114   77.9528   23.2623 C.ar    1  UNL1        0.0170
     44 C          15.9540   78.7865   24.2574 C.ar    1  UNL1        0.0015
     45 C          15.2103   79.0917   25.4183 C.ar    1  UNL1        0.0001
     46 C          13.9170   78.5684   25.5931 C.ar    1  UNL1        0.0012
     47 C          13.3969   77.7602   24.5818 C.ar    1  UNL1        0.0131
     48 H          13.7362   76.2682   21.7174 H       1  UNL1        0.1660
@<TRIPOS>BOND
     1     1     2    2
     2     2     3   am
     3     3    27    1
     4    27    38    1
     5    38    39    1
     6    39    40   ar
     7    40    41   ar
     8    41    42   ar
     9    42    43   ar
    10    43    44   ar
    11    44    45   ar
    12    45    46   ar
    13    46    47   ar
    14    27    28    1
    15    28    29    2
    16    28    30   am
    17    30    32    1
    18    32    33   ar
    19    33    34   ar
    20    34    35   ar
    21    35    36   ar
    22    36    37   ar
    23     2     5    1
    24     5     6   ar
    25     6     7   ar
    26     7     8    1
    27     7     9   ar
    28     9    13    1
    29    13    14    1
    30    14    15    1
    31    15    16    1
    32    16    19    1
    33    19    20   ar
    34    20    21   ar
    35    21    22   ar
    36    22    23    1
    37    22    24   ar
    38    24    25   ar
    39    25    26    1
    40    16    17    1
    41    17    18    1
    42     9    10   ar
    43    10    11   ar
    44    11    12    1
    45    47    39   ar
    46    37    32   ar
    47    11     5   ar
    48    47    42   ar
    49    18    13    1
    50    25    19   ar
    51     3     4    1
    52    41    48    1
    53    30    31    1
@<TRIPOS>MOLECULE
*****
 48 53 0 0 0
SMALL
GASTEIGER

@<TRIPOS>ATOM
      1 O          10.5301   75.3213   23.1572 O.2     1  UNL1       -0.2701
      2 C           9.4579   75.9512   23.3669 C.2     1  UNL1        0.2484
      3 N           9.1530   76.4501   24.6796 N.am    1  UNL1       -0.2945
      4 H           8.2023   76.8555   24.8199 H       1  UNL1        0.1501
      5 C           8.4670   76.0915   22.2818 C.ar    1  UNL1        0.0813
      6 C           7.9421   74.9460   21.6646 C.ar    1  UNL1        0.0147
      7 C           6.8445   75.0428   20.8016 C.ar    1  UNL1        0.0481
      8 BR          6.1628   73.4337   20.0144 Br      1  UNL1       -0.0477
      9 C           6.2654   76.3004   20.5364 C.ar    1  UNL1        0.0565
     10 C           6.8753   77.4529   21.0599 C.ar    1  UNL1        0.0448
     11 C           7.9585   77.3524   21.9315 C.ar    1  UNL1        0.1457
     12 F           8.4929   78.4882   22.4485 F       1  UNL1       -0.2040
     13 N           5.0037   76.4044   19.8436 N.pl3   1  UNL1       -0.3036
     14 C           4.4437   77.7191   19.5037 C.3     1  UNL1        0.1122
     15 C           3.3695   78.1229   20.5362 C.3     1  UNL1        0.1123
     16 N           2.9553   76.9590   21.3366 N.pl3   1  UNL1       -0.3034
     17 C           2.7581   75.6908   20.6247 C.3     1  UNL1        0.1123
     18 C           4.0578   75.2765   19.9062 C.3     1  UNL1        0.1122
     19 C           3.1183   76.9770   22.7696 C.ar    1  UNL1        0.0587
     20 C           4.1538   76.2376   23.3691 C.ar    1  UNL1        0.0162
     21 C           4.3771   76.3136   24.7451 C.ar    1  UNL1        0.0127
     22 C           3.5525   77.1067   25.5449 C.ar    1  UNL1        0.0586
     23 CL          3.8379   77.1992   27.2732 Cl      1  UNL1       -0.0822
     24 C           2.5010   77.8245   24.9664 C.ar    1  UNL1        0.0240
     25 C           2.2803   77.7661   23.5842 C.ar    1  UNL1        0.0718
     26 CL          0.9222   78.6562   22.9085 Cl      1  UNL1       -0.0809
     27 C           9.9336   76.0877   25.8674 C.3     1  UNL1        0.1535
     28 C          11.1702   76.9515   25.9923 C.2     1  UNL1        0.2443
     29 O          11.4578   77.4350   27.1211 O.2     1  UNL1       -0.2730
     30 N          12.0209   77.2170   24.8615 N.am    1  UNL1       -0.2825
     31 H          11.9731   76.5875   24.0311 H       1  UNL1        0.1549
     32 C          12.9860   78.2810   24.8155 C.ar    1  UNL1        0.0535
     33 C          14.3316   77.9790   24.5653 C.ar    1  UNL1        0.0353
     34 C          15.2690   79.0114   24.4856 C.ar    1  UNL1        0.1002
     35 N          14.8741   80.3035   24.6330 N.ar    1  UNL1       -0.2422
     36 C          13.5734   80.6294   24.8560 C.ar    1  UNL1        0.1002
     37 C          12.6039   79.6272   24.9437 C.ar    1  UNL1        0.0353
     38 C           9.0643   76.1278   27.1437 C.3     1  UNL1        0.0569
     39 C           7.8298   75.2684   27.0679 C.ar    1  UNL1       -0.0017
     40 C           7.3697   74.5719   25.9533 C.ar    1  UNL1        0.0681
     41 N           6.2634   73.8586   26.2640 N.ar    1  UNL1       -0.3523
     42 C           6.0148   74.1041   27.5619 C.ar    1  UNL1        0.0563
     43 C           4.9747   73.5890   28.3353 C.ar    1  UNL1        0.0170
     44 C           4.9021   73.9802   29.6849 C.ar    1  UNL1        0.0015
     45 C           5.8535   74.8747   30.2222 C.ar    1  UNL1        0.0001
     46 C           6.8868   75.3837   29.4158 C.ar    1  UNL1        0.0012
     47 C           6.9453   74.9641   28.0865 C.ar    1  UNL1        0.0131
     48 H           5.7185   73.2399   25.6232 H       1  UNL1        0.1660
@<TRIPOS>BOND
     1     1     2    2
     2     2     3   am
     3     3    27    1
     4    27    38    1
     5    38    39    1
     6    39    40   ar
     7    40    41   ar
     8    41    42   ar
     9    42    43   ar
    10    43    44   ar
    11    44    45   ar
    12    45    46   ar
    13    46    47   ar
    14    27    28    1
    15    28    29    2
    16    28    30   am
    17    30    32    1
    18    32    33   ar
    19    33    34   ar
    20    34    35   ar
    21    35    36   ar
    22    36    37   ar
    23     2     5    1
    24     5     6   ar
    25     6     7   ar
    26     7     8    1
    27     7     9   ar
    28     9    13    1
    29    13    14    1
    30    14    15    1
    31    15    16    1
    32    16    19    1
    33    19    20   ar
    34    20    21   ar
    35    21    22   ar
    36    22    23    1
    37    22    24   ar
    38    24    25   ar
    39    25    26    1
    40    16    17    1
    41    17    18    1
    42     9    10   ar
    43    10    11   ar
    44    11    12    1
    45    47    39   ar
    46    37    32   ar
    47    11     5   ar
    48    47    42   ar
    49    18    13    1
    50    25    19   ar
    51     3     4    1
    52    41    48    1
    53    30    31    1
@<TRIPOS>MOLECULE
*****
 48 53 0 0 0
SMALL
GASTEIGER

@<TRIPOS>ATOM
      1 O          10.6440   77.0043   23.0863 O.2     1  UNL1       -0.2701
      2 C           9.5556   77.6390   23.0341 C.2     1  UNL1        0.2484
      3 N           9.2383   78.6212   24.0339 N.am    1  UNL1       -0.2945
      4 H           8.2772   79.0255   24.0082 H       1  UNL1        0.1501
      5 C           8.5605   77.3019   21.9970 C.ar    1  UNL1        0.0813
      6 C           8.2114   75.9612   21.7754 C.ar    1  UNL1        0.0147
      7 C           7.1161   75.6357   20.9672 C.ar    1  UNL1        0.0481
      8 BR          6.6803   73.7844   20.7297 Br      1  UNL1       -0.0477
      9 C           6.3613   76.6586   20.3579 C.ar    1  UNL1        0.0565
     10 C           6.7941   77.9894   20.4848 C.ar    1  UNL1        0.0448
     11 C           7.8757   78.3119   21.3028 C.ar    1  UNL1        0.1457
     12 F           8.2361   79.6144   21.4316 F       1  UNL1       -0.2040
     13 N           5.1017   76.3687   19.7161 N.pl3   1  UNL1       -0.3036
     14 C           4.2027   77.4563   19.3083 C.3     1  UNL1        0.1122
     15 C           3.0845   77.6436   20.3560 C.3     1  UNL1        0.1123
     16 N           3.0156   76.4803   21.2552 N.pl3   1  UNL1       -0.3034
     17 C           3.1478   75.1518   20.6453 C.3     1  UNL1        0.1123
     18 C           4.4934   75.0396   19.9013 C.3     1  UNL1        0.1122
     19 C           3.2018   76.6564   22.6746 C.ar    1  UNL1        0.0587
     20 C           4.2910   76.0461   23.3222 C.ar    1  UNL1        0.0162
     21 C           4.5329   76.2775   24.6776 C.ar    1  UNL1        0.0127
     22 C           3.6750   77.0990   25.4109 C.ar    1  UNL1        0.0586
     23 CL          3.9839   77.3871   27.1135 Cl      1  UNL1       -0.0822
     24 C           2.5716   77.6892   24.7867 C.ar    1  UNL1        0.0240
     25 C           2.3311   77.4747   23.4234 C.ar    1  UNL1        0.0718
     26 CL          0.9094   78.2078   22.6920 Cl      1  UNL1       -0.0809
     27 C          10.0290   78.7921   25.2575 C.3     1  UNL1        0.1535
     28 C          11.4538   79.1884   24.9356 C.2     1  UNL1        0.2443
     29 O          11.6597   80.2984   24.3731 O.2     1  UNL1       -0.2730
     30 N          12.5660   78.3368   25.2680 N.am    1  UNL1       -0.2825
     31 H          12.4396   77.5954   25.9909 H       1  UNL1        0.1549
     32 C          13.8784   78.4712   24.6976 C.ar    1  UNL1        0.0535
     33 C          14.3391   77.5023   23.7956 C.ar    1  UNL1        0.0353
     34 C          15.5999   77.6447   23.2118 C.ar    1  UNL1        0.1002
     35 N          16.3683   78.7269   23.5045 N.ar    1  UNL1       -0.2422
     36 C          15.9407   79.6934   24.3593 C.ar    1  UNL1        0.1002
     37 C          14.6863   79.5892   24.9657 C.ar    1  UNL1        0.0353
     38 C           9.3534   79.7862   26.2278 C.3     1  UNL1        0.0569
     39 C           8.5902   79.1246   27.3450 C.ar    1  UNL1       -0.0017
     40 C           7.5050   78.2621   27.2127 C.ar    1  UNL1        0.0681
     41 N           7.1069   77.8124   28.4246 N.ar    1  UNL1       -0.3523
     42 C           7.9247   78.3888   29.3223 C.ar    1  UNL1        0.0563
     43 C           7.9062   78.2282   30.7076 C.ar    1  UNL1        0.0170
     44 C           8.8619   78.9308   31.4642 C.ar    1  UNL1        0.0015
     45 C           9.7971   79.7761   30.8278 C.ar    1  UNL1        0.0001
     46 C           9.7864   79.9240   29.4295 C.ar    1  UNL1        0.0012
     47 C           8.8399   79.2010   28.7031 C.ar    1  UNL1        0.0131
     48 H           6.3250   77.1482   28.6186 H       1  UNL1        0.1660
@<TRIPOS>BOND
     1     1     2    2
     2     2     3   am
     3     3    27    1
     4    27    38    1
     5    38    39    1
     6    39    40   ar
     7    40    41   ar
     8    41    42   ar
     9    42    43   ar
    10    43    44   ar
    11    44    45   ar
    12    45    46   ar
    13    46    47   ar
    14    27    28    1
    15    28    29    2
    16    28    30   am
    17    30    32    1
    18    32    33   ar
    19    33    34   ar
    20    34    35   ar
    21    35    36   ar
    22    36    37   ar
    23     2     5    1
    24     5     6   ar
    25     6     7   ar
    26     7     8    1
    27     7     9   ar
    28     9    13    1
    29    13    14    1
    30    14    15    1
    31    15    16    1
    32    16    19    1
    33    19    20   ar
    34    20    21   ar
    35    21    22   ar
    36    22    23    1
    37    22    24   ar
    38    24    25   ar
    39    25    26    1
    40    16    17    1
    41    17    18    1
    42     9    10   ar
    43    10    11   ar
    44    11    12    1
    45    47    39   ar
    46    37    32   ar
    47    11     5   ar
    48    47    42   ar
    49    18    13    1
    50    25    19   ar
    51     3     4    1
    52    41    48    1
    53    30    31    1
@<TRIPOS>MOLECULE
*****
 48 53 0 0 0
SMALL
GASTEIGER

@<TRIPOS>ATOM
      1 O          10.1477   79.1310   22.4079 O.2     1  UNL1       -0.2701
      2 C           9.1192   78.4778   22.7331 C.2     1  UNL1        0.2484
      3 N           8.9303   78.0482   24.0913 N.am    1  UNL1       -0.2945
      4 H           8.1253   77.4113   24.2759 H       1  UNL1        0.1501
      5 C           8.1530   78.0686   21.6946 C.ar    1  UNL1        0.0813
      6 C           7.8753   76.7075   21.4983 C.ar    1  UNL1        0.0147
      7 C           6.8061   76.3095   20.6875 C.ar    1  UNL1        0.0481
      8 BR          6.4681   74.4337   20.4854 Br      1  UNL1       -0.0477
      9 C           6.0061   77.2794   20.0501 C.ar    1  UNL1        0.0565
     10 C           6.3688   78.6330   20.1526 C.ar    1  UNL1        0.0448
     11 C           7.4243   79.0276   20.9732 C.ar    1  UNL1        0.1457
     12 F           7.7162   80.3493   21.0776 F       1  UNL1       -0.2040
     13 N           4.7694   76.9119   19.4034 N.pl3   1  UNL1       -0.3036
     14 C           3.7689   77.9336   19.0678 C.3     1  UNL1        0.1122
     15 C           2.6531   77.9564   20.1343 C.3     1  UNL1        0.1123
     16 N           2.7036   76.7419   20.9645 N.pl3   1  UNL1       -0.3034
     17 C           2.9484   75.4685   20.2768 C.3     1  UNL1        0.1123
     18 C           4.2881   75.5239   19.5158 C.3     1  UNL1        0.1122
     19 C           2.8929   76.8526   22.3901 C.ar    1  UNL1        0.0587
     20 C           3.9232   76.1323   23.0210 C.ar    1  UNL1        0.0162
     21 C           4.1731   76.2958   24.3848 C.ar    1  UNL1        0.0127
     22 C           3.3800   77.1592   25.1426 C.ar    1  UNL1        0.0586
     23 CL          3.6986   77.3615   26.8557 Cl      1  UNL1       -0.0822
     24 C           2.3337   77.8598   24.5344 C.ar    1  UNL1        0.0240
     25 C           2.0868   77.7134   23.1632 C.ar    1  UNL1        0.0718
     26 CL          0.7359   78.5862   22.4514 Cl      1  UNL1       -0.0809
     27 C           9.9825   78.1470   25.1085 C.3     1  UNL1        0.1535
     28 C           9.4360   78.7000   26.4071 C.2     1  UNL1        0.2443
     29 O           9.3347   79.9506   26.5360 O.2     1  UNL1       -0.2730
     30 N           9.0225   77.8336   27.4800 N.am    1  UNL1       -0.2825
     31 H           8.8096   76.8338   27.2720 H       1  UNL1        0.1549
     32 C           8.8312   78.2702   28.8359 C.ar    1  UNL1        0.0535
     33 C           7.6233   77.9842   29.4869 C.ar    1  UNL1        0.0353
     34 C           7.4439   78.3759   30.8155 C.ar    1  UNL1        0.1002
     35 N           8.4431   79.0159   31.4783 N.ar    1  UNL1       -0.2422
     36 C           9.6330   79.2890   30.8805 C.ar    1  UNL1        0.1002
     37 C           9.8534   78.9153   29.5525 C.ar    1  UNL1        0.0353
     38 C          10.6988   76.7931   25.3081 C.3     1  UNL1        0.0569
     39 C          10.1607   75.6850   24.4417 C.ar    1  UNL1       -0.0017
     40 C          10.8181   75.0653   23.3820 C.ar    1  UNL1        0.0681
     41 N          10.0567   74.0728   22.8676 N.ar    1  UNL1       -0.3523
     42 C           8.9210   74.0646   23.5865 C.ar    1  UNL1        0.0563
     43 C           7.8280   73.2123   23.4301 C.ar    1  UNL1        0.0170
     44 C           6.7344   73.3785   24.2995 C.ar    1  UNL1        0.0015
     45 C           6.7530   74.3875   25.2873 C.ar    1  UNL1        0.0001
     46 C           7.8661   75.2369   25.4161 C.ar    1  UNL1        0.0012
     47 C           8.9439   75.0372   24.5530 C.ar    1  UNL1        0.0131
     48 H          10.3066   73.4403   22.0753 H       1  UNL1        0.1660
@<TRIPOS>BOND
     1     1     2    2
     2     2     3   am
     3     3    27    1
     4    27    38    1
     5    38    39    1
     6    39    40   ar
     7    40    41   ar
     8    41    42   ar
     9    42    43   ar
    10    43    44   ar
    11    44    45   ar
    12    45    46   ar
    13    46    47   ar
    14    27    28    1
    15    28    29    2
    16    28    30   am
    17    30    32    1
    18    32    33   ar
    19    33    34   ar
    20    34    35   ar
    21    35    36   ar
    22    36    37   ar
    23     2     5    1
    24     5     6   ar
    25     6     7   ar
    26     7     8    1
    27     7     9   ar
    28     9    13    1
    29    13    14    1
    30    14    15    1
    31    15    16    1
    32    16    19    1
    33    19    20   ar
    34    20    21   ar
    35    21    22   ar
    36    22    23    1
    37    22    24   ar
    38    24    25   ar
    39    25    26    1
    40    16    17    1
    41    17    18    1
    42     9    10   ar
    43    10    11   ar
    44    11    12    1
    45    47    39   ar
    46    37    32   ar
    47    11     5   ar
    48    47    42   ar
    49    18    13    1
    50    25    19   ar
    51     3     4    1
    52    41    48    1
    53    30    31    1
@<TRIPOS>MOLECULE
*****
 48 53 0 0 0
SMALL
GASTEIGER

@<TRIPOS>ATOM
      1 O          10.7186   79.0970   26.3539 O.2     1  UNL1       -0.2701
      2 C          10.5469   77.8626   26.5471 C.2     1  UNL1        0.2484
      3 N          10.9846   76.9060   25.5682 N.am    1  UNL1       -0.2945
      4 H          10.7092   75.9124   25.7251 H       1  UNL1        0.1501
      5 C           9.8055   77.4042   27.7384 C.ar    1  UNL1        0.0813
      6 C           9.6318   78.2712   28.8277 C.ar    1  UNL1        0.0147
      7 C           8.7473   77.9451   29.8623 C.ar    1  UNL1        0.0481
      8 BR          8.5394   79.1886   31.3059 Br      1  UNL1       -0.0477
      9 C           8.0320   76.7311   29.8213 C.ar    1  UNL1        0.0565
     10 C           8.3066   75.8154   28.7915 C.ar    1  UNL1        0.0448
     11 C           9.1760   76.1494   27.7544 C.ar    1  UNL1        0.1457
     12 F           9.3822   75.2528   26.7560 F       1  UNL1       -0.2040
     13 N           6.9518   76.4755   30.7435 N.pl3   1  UNL1       -0.3036
     14 C           6.5277   75.0998   31.0353 C.3     1  UNL1        0.1122
     15 C           5.2745   74.7425   30.2077 C.3     1  UNL1        0.1123
     16 N           4.6551   75.9571   29.6529 N.pl3   1  UNL1       -0.3034
     17 C           4.5658   77.1275   30.5341 C.3     1  UNL1        0.1123
     18 C           5.9718   77.5427   31.0112 C.3     1  UNL1        0.1122
     19 C           4.5097   76.1024   28.2253 C.ar    1  UNL1        0.0587
     20 C           3.9408   77.2727   27.6916 C.ar    1  UNL1        0.0162
     21 C           3.8727   77.4643   26.3104 C.ar    1  UNL1        0.0127
     22 C           4.3460   76.4780   25.4433 C.ar    1  UNL1        0.0586
     23 CL          4.2587   76.7239   23.7086 Cl      1  UNL1       -0.0822
     24 C           4.8878   75.2967   25.9597 C.ar    1  UNL1        0.0240
     25 C           4.9743   75.1039   27.3445 C.ar    1  UNL1        0.0718
     26 CL          5.6284   73.5860   27.9456 Cl      1  UNL1       -0.0809
     27 C          11.4469   77.2936   24.2311 C.3     1  UNL1        0.1535
     28 C          11.8181   76.0786   23.4085 C.2     1  UNL1        0.2443
     29 O          12.4591   76.2484   22.3356 O.2     1  UNL1       -0.2730
     30 N          11.4682   74.7475   23.8307 N.am    1  UNL1       -0.2825
     31 H          11.2307   74.5783   24.8323 H       1  UNL1        0.1549
     32 C          11.4708   73.6029   22.9613 C.ar    1  UNL1        0.0535
     33 C          10.3180   72.8120   22.8616 C.ar    1  UNL1        0.0353
     34 C          10.3025   71.7183   21.9931 C.ar    1  UNL1        0.1002
     35 N          11.3948   71.4335   21.2361 N.ar    1  UNL1       -0.2422
     36 C          12.5200   72.1938   21.2956 C.ar    1  UNL1        0.1002
     37 C          12.5777   73.2963   22.1518 C.ar    1  UNL1        0.0353
     38 C          10.4088   78.1860   23.5155 C.3     1  UNL1        0.0569
     39 C           9.5116   77.4365   22.5661 C.ar    1  UNL1       -0.0017
     40 C           9.4229   77.6185   21.1884 C.ar    1  UNL1        0.0681
     41 N           8.5557   76.7321   20.6483 N.ar    1  UNL1       -0.3523
     42 C           8.0889   75.9972   21.6724 C.ar    1  UNL1        0.0563
     43 C           7.1680   74.9515   21.6114 C.ar    1  UNL1        0.0170
     44 C           6.8172   74.3126   22.8149 C.ar    1  UNL1        0.0015
     45 C           7.3801   74.7350   24.0391 C.ar    1  UNL1        0.0001
     46 C           8.3004   75.7976   24.0703 C.ar    1  UNL1        0.0012
     47 C           8.6441   76.4001   22.8598 C.ar    1  UNL1        0.0131
     48 H           8.3059   76.6383   19.6389 H       1  UNL1        0.1660
@<TRIPOS>BOND
     1     1     2    2
     2     2     3   am
     3     3    27    1
     4    27    38    1
     5    38    39    1
     6    39    40   ar
     7    40    41   ar
     8    41    42   ar
     9    42    43   ar
    10    43    44   ar
    11    44    45   ar
    12    45    46   ar
    13    46    47   ar
    14    27    28    1
    15    28    29    2
    16    28    30   am
    17    30    32    1
    18    32    33   ar
    19    33    34   ar
    20    34    35   ar
    21    35    36   ar
    22    36    37   ar
    23     2     5    1
    24     5     6   ar
    25     6     7   ar
    26     7     8    1
    27     7     9   ar
    28     9    13    1
    29    13    14    1
    30    14    15    1
    31    15    16    1
    32    16    19    1
    33    19    20   ar
    34    20    21   ar
    35    21    22   ar
    36    22    23    1
    37    22    24   ar
    38    24    25   ar
    39    25    26    1
    40    16    17    1
    41    17    18    1
    42     9    10   ar
    43    10    11   ar
    44    11    12    1
    45    47    39   ar
    46    37    32   ar
    47    11     5   ar
    48    47    42   ar
    49    18    13    1
    50    25    19   ar
    51     3     4    1
    52    41    48    1
    53    30    31    1
@<TRIPOS>MOLECULE
*****
 48 53 0 0 0
SMALL
GASTEIGER

@<TRIPOS>ATOM
      1 O          10.5112   78.5058   23.5987 O.2     1  UNL1       -0.2701
      2 C           9.2962   78.1916   23.7230 C.2     1  UNL1        0.2484
      3 N           8.6959   78.1113   25.0261 N.am    1  UNL1       -0.2945
      4 H           7.7258   77.7313   25.0747 H       1  UNL1        0.1501
      5 C           8.5133   77.8096   22.5312 C.ar    1  UNL1        0.0813
      6 C           8.2053   76.4601   22.3026 C.ar    1  UNL1        0.0147
      7 C           7.2806   76.0988   21.3160 C.ar    1  UNL1        0.0481
      8 BR          6.8878   74.2382   21.0762 Br      1  UNL1       -0.0477
      9 C           6.6600   77.0939   20.5338 C.ar    1  UNL1        0.0565
     10 C           7.0679   78.4299   20.6856 C.ar    1  UNL1        0.0448
     11 C           7.9772   78.7885   21.6794 C.ar    1  UNL1        0.1457
     12 F           8.3136   80.0961   21.8207 F       1  UNL1       -0.2040
     13 N           5.5427   76.7746   19.6779 N.pl3   1  UNL1       -0.3036
     14 C           4.6743   77.8373   19.1546 C.3     1  UNL1        0.1122
     15 C           3.3871   77.9376   20.0008 C.3     1  UNL1        0.1123
     16 N           3.2231   76.7397   20.8404 N.pl3   1  UNL1       -0.3034
     17 C           3.5208   75.4417   20.2233 C.3     1  UNL1        0.1123
     18 C           4.9769   75.4148   19.7172 C.3     1  UNL1        0.1122
     19 C           3.1576   76.8707   22.2753 C.ar    1  UNL1        0.0587
     20 C           4.1484   76.2820   23.0814 C.ar    1  UNL1        0.0162
     21 C           4.1460   76.4728   24.4644 C.ar    1  UNL1        0.0127
     22 C           3.1387   77.2307   25.0641 C.ar    1  UNL1        0.0586
     23 CL          3.1406   77.4680   26.8022 Cl      1  UNL1       -0.0822
     24 C           2.1308   77.7979   24.2781 C.ar    1  UNL1        0.0240
     25 C           2.1353   77.6243   22.8879 C.ar    1  UNL1        0.0718
     26 CL          0.8255   78.3251   21.9462 Cl      1  UNL1       -0.0809
     27 C           9.4780   78.1741   26.2654 C.3     1  UNL1        0.1535
     28 C           8.6083   78.5662   27.4404 C.2     1  UNL1        0.2443
     29 O           9.0078   79.4838   28.2079 O.2     1  UNL1       -0.2730
     30 N           7.3421   77.9269   27.6869 N.am    1  UNL1       -0.2825
     31 H           6.8729   77.4129   26.9097 H       1  UNL1        0.1549
     32 C           6.6416   77.9901   28.9402 C.ar    1  UNL1        0.0535
     33 C           5.2489   78.1487   28.9428 C.ar    1  UNL1        0.0353
     34 C           4.5582   78.1769   30.1564 C.ar    1  UNL1        0.1002
     35 N           5.2323   78.0336   31.3279 N.ar    1  UNL1       -0.2422
     36 C           6.5799   77.8576   31.3568 C.ar    1  UNL1        0.1002
     37 C           7.3091   77.8244   30.1656 C.ar    1  UNL1        0.0353
     38 C          10.2361   76.8520   26.5180 C.3     1  UNL1        0.0569
     39 C           9.5293   75.9145   27.4612 C.ar    1  UNL1       -0.0017
     40 C           9.8978   75.6204   28.7715 C.ar    1  UNL1        0.0681
     41 N           9.0007   74.7823   29.3391 N.ar    1  UNL1       -0.3523
     42 C           8.0733   74.5370   28.3975 C.ar    1  UNL1        0.0563
     43 C           6.9435   73.7277   28.5149 C.ar    1  UNL1        0.0170
     44 C           6.0983   73.6114   27.3960 C.ar    1  UNL1        0.0015
     45 C           6.4032   74.2904   26.1960 C.ar    1  UNL1        0.0001
     46 C           7.5539   75.0933   26.1051 C.ar    1  UNL1        0.0012
     47 C           8.3635   75.2053   27.2358 C.ar    1  UNL1        0.0131
     48 H           9.0251   74.4077   30.3134 H       1  UNL1        0.1660
@<TRIPOS>BOND
     1     1     2    2
     2     2     3   am
     3     3    27    1
     4    27    38    1
     5    38    39    1
     6    39    40   ar
     7    40    41   ar
     8    41    42   ar
     9    42    43   ar
    10    43    44   ar
    11    44    45   ar
    12    45    46   ar
    13    46    47   ar
    14    27    28    1
    15    28    29    2
    16    28    30   am
    17    30    32    1
    18    32    33   ar
    19    33    34   ar
    20    34    35   ar
    21    35    36   ar
    22    36    37   ar
    23     2     5    1
    24     5     6   ar
    25     6     7   ar
    26     7     8    1
    27     7     9   ar
    28     9    13    1
    29    13    14    1
    30    14    15    1
    31    15    16    1
    32    16    19    1
    33    19    20   ar
    34    20    21   ar
    35    21    22   ar
    36    22    23    1
    37    22    24   ar
    38    24    25   ar
    39    25    26    1
    40    16    17    1
    41    17    18    1
    42     9    10   ar
    43    10    11   ar
    44    11    12    1
    45    47    39   ar
    46    37    32   ar
    47    11     5   ar
    48    47    42   ar
    49    18    13    1
    50    25    19   ar
    51     3     4    1
    52    41    48    1
    53    30    31    1
@<TRIPOS>MOLECULE
*****
 48 53 0 0 0
SMALL
GASTEIGER

@<TRIPOS>ATOM
      1 O           1.9210   76.9389   24.0168 O.2     1  UNL1       -0.2701
      2 C           3.1383   76.6734   24.2118 C.2     1  UNL1        0.2484
      3 N           4.0285   76.4861   23.0994 N.am    1  UNL1       -0.2945
      4 H           4.9917   76.1512   23.3186 H       1  UNL1        0.1501
      5 C           3.6294   76.4576   25.5871 C.ar    1  UNL1        0.0813
      6 C           4.3687   75.3044   25.8904 C.ar    1  UNL1        0.0147
      7 C           5.0340   75.1881   27.1163 C.ar    1  UNL1        0.0481
      8 BR          6.0474   73.5964   27.4528 Br      1  UNL1       -0.0477
      9 C           4.9538   76.2294   28.0631 C.ar    1  UNL1        0.0565
     10 C           4.1106   77.3224   27.8008 C.ar    1  UNL1        0.0448
     11 C           3.4618   77.4430   26.5730 C.ar    1  UNL1        0.1457
     12 F           2.6892   78.5354   26.3431 F       1  UNL1       -0.2040
     13 N           5.8078   76.2412   29.2264 N.pl3   1  UNL1       -0.3036
     14 C           6.3713   77.5018   29.7273 C.3     1  UNL1        0.1122
     15 C           7.8280   77.6633   29.2424 C.3     1  UNL1        0.1123
     16 N           8.3524   76.3833   28.7389 N.pl3   1  UNL1       -0.3034
     17 C           8.0322   75.1766   29.5107 C.3     1  UNL1        0.1123
     18 C           6.5039   75.0024   29.6157 C.3     1  UNL1        0.1122
     19 C           8.8104   76.2804   27.3751 C.ar    1  UNL1        0.0587
     20 C           8.0246   76.7956   26.3284 C.ar    1  UNL1        0.0162
     21 C           8.4936   76.7807   25.0135 C.ar    1  UNL1        0.0127
     22 C           9.7410   76.2261   24.7221 C.ar    1  UNL1        0.0586
     23 CL         10.3259   76.2105   23.0683 Cl      1  UNL1       -0.0822
     24 C          10.5205   75.6840   25.7488 C.ar    1  UNL1        0.0240
     25 C          10.0639   75.7096   27.0729 C.ar    1  UNL1        0.0718
     26 CL         11.0630   74.9815   28.3240 Cl      1  UNL1       -0.0809
     27 C           3.5568   76.3799   21.7146 C.3     1  UNL1        0.1535
     28 C           4.4184   77.2015   20.7800 C.2     1  UNL1        0.2443
     29 O           4.1086   77.2496   19.5584 O.2     1  UNL1       -0.2730
     30 N           5.5641   77.9310   21.2576 N.am    1  UNL1       -0.2825
     31 H           5.6392   78.1493   22.2749 H       1  UNL1        0.1549
     32 C           6.6083   78.4322   20.4067 C.ar    1  UNL1        0.0535
     33 C           7.9428   78.1155   20.6956 C.ar    1  UNL1        0.0353
     34 C           8.9597   78.5711   19.8536 C.ar    1  UNL1        0.1002
     35 N           8.6542   79.3033   18.7501 N.ar    1  UNL1       -0.2422
     36 C           7.3684   79.6091   18.4322 C.ar    1  UNL1        0.1002
     37 C           6.3212   79.1738   19.2482 C.ar    1  UNL1        0.0353
     38 C           3.4564   74.9046   21.2677 C.3     1  UNL1        0.0569
     39 C           4.7817   74.2834   20.9128 C.ar    1  UNL1       -0.0017
     40 C           5.2278   73.9505   19.6364 C.ar    1  UNL1        0.0681
     41 N           6.4895   73.4658   19.6870 N.ar    1  UNL1       -0.3523
     42 C           6.8421   73.4812   20.9840 C.ar    1  UNL1        0.0563
     43 C           8.0580   73.0759   21.5340 C.ar    1  UNL1        0.0170
     44 C           8.2166   73.1793   22.9282 C.ar    1  UNL1        0.0015
     45 C           7.1651   73.6699   23.7330 C.ar    1  UNL1        0.0001
     46 C           5.9474   74.0639   23.1507 C.ar    1  UNL1        0.0012
     47 C           5.8249   73.9682   21.7642 C.ar    1  UNL1        0.0131
     48 H           7.0700   73.1491   18.8790 H       1  UNL1        0.1660
@<TRIPOS>BOND
     1     1     2    2
     2     2     3   am
     3     3    27    1
     4    27    38    1
     5    38    39    1
     6    39    40   ar
     7    40    41   ar
     8    41    42   ar
     9    42    43   ar
    10    43    44   ar
    11    44    45   ar
    12    45    46   ar
    13    46    47   ar
    14    27    28    1
    15    28    29    2
    16    28    30   am
    17    30    32    1
    18    32    33   ar
    19    33    34   ar
    20    34    35   ar
    21    35    36   ar
    22    36    37   ar
    23     2     5    1
    24     5     6   ar
    25     6     7   ar
    26     7     8    1
    27     7     9   ar
    28     9    13    1
    29    13    14    1
    30    14    15    1
    31    15    16    1
    32    16    19    1
    33    19    20   ar
    34    20    21   ar
    35    21    22   ar
    36    22    23    1
    37    22    24   ar
    38    24    25   ar
    39    25    26    1
    40    16    17    1
    41    17    18    1
    42     9    10   ar
    43    10    11   ar
    44    11    12    1
    45    47    39   ar
    46    37    32   ar
    47    11     5   ar
    48    47    42   ar
    49    18    13    1
    50    25    19   ar
    51     3     4    1
    52    41    48    1
    53    30    31    1
