@<TRIPOS>MOLECULE
*****
 39 43 0 0 0
SMALL
GASTEIGER

@<TRIPOS>ATOM
      1 C          49.4924   10.8397  -21.3729 C.2     1  UNL1        0.2507
      2 O          50.5424   10.3013  -21.8177 O.2     1  UNL1       -0.2698
      3 N          48.3503   11.0109  -22.2359 N.am    1  UNL1       -0.2680
      4 C          46.9969   10.8049  -21.7092 C.3     1  UNL1        0.1412
      5 C          46.3134   12.1502  -21.4761 C.3     1  UNL1        0.2268
      6 O          46.7338   13.1248  -22.4290 O.3     1  UNL1       -0.4739
      7 C          46.6942   12.8961  -23.8060 C.ar    1  UNL1        0.1362
      8 C          45.8423   13.6873  -24.5814 C.ar    1  UNL1        0.0366
      9 C          45.7408   13.4848  -25.9573 C.ar    1  UNL1        0.0031
     10 C          46.5074   12.4931  -26.5881 C.ar    1  UNL1       -0.0000
     11 C          47.3848   11.7146  -25.8131 C.ar    1  UNL1        0.0004
     12 C          47.4884   11.8987  -24.4228 C.ar    1  UNL1        0.0317
     13 C          48.5594   11.1095  -23.6875 C.3     1  UNL1        0.1236
     14 C          46.4054   12.2832  -28.0544 C.ar    1  UNL1        0.0015
     15 C          46.6164   10.9909  -28.6122 C.ar    1  UNL1        0.0016
     16 C          46.5216   10.7799  -30.0005 C.ar    1  UNL1        0.0206
     17 C          46.2155   11.8739  -30.8028 C.ar    1  UNL1        0.0985
     18 N          46.0738   11.9007  -32.1401 N.ar    1  UNL1       -0.2241
     19 C          45.7777   13.2044  -32.3860 C.ar    1  UNL1        0.1750
     20 N          45.7322   13.9687  -31.2684 N.ar    1  UNL1       -0.3349
     21 C          46.0120   13.1126  -30.2787 C.ar    1  UNL1        0.0757
     22 C          46.0959   13.3667  -28.9127 C.ar    1  UNL1        0.0185
     23 H          45.5262   14.9900  -31.1989 H       1  UNL1        0.1675
     24 C          50.4509   12.1124  -19.4180 C.ar    1  UNL1        0.0505
     25 C          50.3215   12.5362  -18.0810 C.ar    1  UNL1        0.0359
     26 C          49.2429   12.1206  -17.2835 C.ar    1  UNL1        0.1404
     27 C          48.2734   11.2552  -17.8348 C.ar    1  UNL1        0.1508
     28 O          47.1798   10.7907  -17.1007 O.3     1  UNL1       -0.5042
     29 C          48.3916   10.8388  -19.1621 C.ar    1  UNL1        0.0437
     30 C          49.4548   11.2717  -19.9630 C.ar    1  UNL1        0.0697
     31 H          47.0096   11.0350  -16.1349 H       1  UNL1        0.2922
     32 S          49.1253   12.6778  -15.6048 S.O2    1  UNL1        0.0134
     33 C          50.7131   12.8078  -14.8045 C.3     1  UNL1        0.1817
     34 O          48.4805   14.0352  -15.5793 O.2     1  UNL1       -0.1685
     35 O          48.2868   11.7084  -14.8201 O.2     1  UNL1       -0.1685
     36 N          51.5990   12.4916  -20.2113 N.pl3   1  UNL1       -0.3325
     37 H          52.2526   11.7520  -20.5527 H       1  UNL1        0.1468
     38 C          51.6293   14.0805  -22.0819 C.3     1  UNL1        0.0229
     39 C          51.9235   13.8636  -20.6018 C.3     1  UNL1        0.0871
@<TRIPOS>BOND
     1    38    39    1
     2    39    36    1
     3    36    24    1
     4    24    25   ar
     5    25    26   ar
     6    26    32    1
     7    32    33    1
     8    32    34    2
     9    32    35    2
    10    26    27   ar
    11    27    28    1
    12    27    29   ar
    13    29    30   ar
    14    30     1    1
    15     1     2    2
    16     1     3   am
    17     3     4    1
    18     4     5    1
    19     5     6    1
    20     6     7    1
    21     7     8   ar
    22     8     9   ar
    23     9    10   ar
    24    10    14    1
    25    14    15   ar
    26    15    16   ar
    27    16    17   ar
    28    17    18   ar
    29    18    19   ar
    30    19    20   ar
    31    20    21   ar
    32    21    22   ar
    33    10    11   ar
    34    11    12   ar
    35    12    13    1
    36    30    24   ar
    37    13     3    1
    38    12     7   ar
    39    22    14   ar
    40    21    17   ar
    41    36    37    1
    42    28    31    1
    43    20    23    1
@<TRIPOS>MOLECULE
*****
 39 43 0 0 0
SMALL
GASTEIGER

@<TRIPOS>ATOM
      1 C          48.7667   10.0661  -21.1555 C.2     1  UNL1        0.2507
      2 O          48.2630    8.9101  -21.1657 O.2     1  UNL1       -0.2698
      3 N          49.2107   10.6688  -22.3875 N.am    1  UNL1       -0.2680
      4 C          48.9953   12.1006  -22.6219 C.3     1  UNL1        0.1412
      5 C          50.3029   12.8663  -22.4334 C.3     1  UNL1        0.2268
      6 O          51.4302   12.0840  -22.8229 O.3     1  UNL1       -0.4739
      7 C          51.5165   11.4571  -24.0677 C.ar    1  UNL1        0.1362
      8 C          52.5220   11.8708  -24.9458 C.ar    1  UNL1        0.0366
      9 C          52.6383   11.3000  -26.2127 C.ar    1  UNL1        0.0031
     10 C          51.7565   10.2870  -26.6193 C.ar    1  UNL1       -0.0000
     11 C          50.7616    9.8512  -25.7267 C.ar    1  UNL1        0.0004
     12 C          50.6241   10.4263  -24.4508 C.ar    1  UNL1        0.0317
     13 C          49.6130    9.8008  -23.5036 C.3     1  UNL1        0.1236
     14 C          51.8856    9.6734  -27.9652 C.ar    1  UNL1        0.0015
     15 C          53.0110    9.9683  -28.7850 C.ar    1  UNL1        0.0016
     16 C          53.1444    9.3920  -30.0621 C.ar    1  UNL1        0.0206
     17 C          52.1422    8.5285  -30.4911 C.ar    1  UNL1        0.0985
     18 N          52.0672    7.8705  -31.6619 N.ar    1  UNL1       -0.2241
     19 C          50.9012    7.1814  -31.5466 C.ar    1  UNL1        0.1750
     20 N          50.2659    7.3869  -30.3678 N.ar    1  UNL1       -0.3349
     21 C          51.0630    8.2406  -29.7147 C.ar    1  UNL1        0.0757
     22 C          50.8905    8.7875  -28.4463 C.ar    1  UNL1        0.0185
     23 H          49.3627    6.9732  -30.0464 H       1  UNL1        0.1675
     24 C          47.7325   11.1803  -19.1432 C.ar    1  UNL1        0.0505
     25 C          47.9092   11.8089  -17.8952 C.ar    1  UNL1        0.0359
     26 C          49.1904   12.0673  -17.3816 C.ar    1  UNL1        0.1404
     27 C          50.3225   11.6934  -18.1374 C.ar    1  UNL1        0.1508
     28 O          51.6274   11.9275  -17.6980 O.3     1  UNL1       -0.5042
     29 C          50.1537   11.0621  -19.3711 C.ar    1  UNL1        0.0437
     30 C          48.8764   10.7846  -19.8718 C.ar    1  UNL1        0.0697
     31 H          51.8503   12.3784  -16.8214 H       1  UNL1        0.2922
     32 S          49.3618   12.8645  -15.8075 S.O2    1  UNL1        0.0134
     33 C          48.8744   11.8223  -14.4458 C.3     1  UNL1        0.1817
     34 O          50.7999   13.2512  -15.6042 O.2     1  UNL1       -0.1685
     35 O          48.5017   14.0966  -15.7815 O.2     1  UNL1       -0.1685
     36 N          46.4109   10.9780  -19.6943 N.pl3   1  UNL1       -0.3325
     37 H          46.0861   10.0077  -19.9036 H       1  UNL1        0.1468
     38 C          44.2527   11.9498  -19.0443 C.3     1  UNL1        0.0229
     39 C          45.4548   12.0487  -19.9767 C.3     1  UNL1        0.0871
@<TRIPOS>BOND
     1    38    39    1
     2    39    36    1
     3    36    24    1
     4    24    25   ar
     5    25    26   ar
     6    26    32    1
     7    32    33    1
     8    32    34    2
     9    32    35    2
    10    26    27   ar
    11    27    28    1
    12    27    29   ar
    13    29    30   ar
    14    30     1    1
    15     1     2    2
    16     1     3   am
    17     3     4    1
    18     4     5    1
    19     5     6    1
    20     6     7    1
    21     7     8   ar
    22     8     9   ar
    23     9    10   ar
    24    10    14    1
    25    14    15   ar
    26    15    16   ar
    27    16    17   ar
    28    17    18   ar
    29    18    19   ar
    30    19    20   ar
    31    20    21   ar
    32    21    22   ar
    33    10    11   ar
    34    11    12   ar
    35    12    13    1
    36    30    24   ar
    37    13     3    1
    38    12     7   ar
    39    22    14   ar
    40    21    17   ar
    41    36    37    1
    42    28    31    1
    43    20    23    1
@<TRIPOS>MOLECULE
*****
 39 43 0 0 0
SMALL
GASTEIGER

@<TRIPOS>ATOM
      1 C          50.4012   12.7734  -22.2528 C.2     1  UNL1        0.2507
      2 O          51.3777   13.3713  -22.7812 O.2     1  UNL1       -0.2698
      3 N          49.4657   12.0526  -23.0796 N.am    1  UNL1       -0.2680
      4 C          48.9168   10.7726  -22.6197 C.3     1  UNL1        0.1412
      5 C          47.4803   10.9599  -22.1370 C.3     1  UNL1        0.2268
      6 O          46.8064   11.9766  -22.8764 O.3     1  UNL1       -0.4739
      7 C          46.7573   11.9842  -24.2720 C.ar    1  UNL1        0.1362
      8 C          45.5112   11.8427  -24.8885 C.ar    1  UNL1        0.0366
      9 C          45.4050   11.8149  -26.2785 C.ar    1  UNL1        0.0031
     10 C          46.5484   11.9466  -27.0813 C.ar    1  UNL1       -0.0000
     11 C          47.7994   12.1160  -26.4624 C.ar    1  UNL1        0.0004
     12 C          47.9234   12.1332  -25.0617 C.ar    1  UNL1        0.0317
     13 C          49.2903   12.4584  -24.4815 C.3     1  UNL1        0.1236
     14 C          46.4344   11.9254  -28.5615 C.ar    1  UNL1        0.0015
     15 C          46.6542   10.7181  -29.2824 C.ar    1  UNL1        0.0016
     16 C          46.5481   10.6859  -30.6855 C.ar    1  UNL1        0.0206
     17 C          46.2220   11.8700  -31.3380 C.ar    1  UNL1        0.0985
     18 N          46.0669   12.0666  -32.6596 N.ar    1  UNL1       -0.2241
     19 C          45.7539   13.3872  -32.7335 C.ar    1  UNL1        0.1750
     20 N          45.7110   14.0011  -31.5266 N.ar    1  UNL1       -0.3349
     21 C          46.0100   13.0286  -30.6575 C.ar    1  UNL1        0.0757
     22 C          46.1045   13.1062  -29.2709 C.ar    1  UNL1        0.0185
     23 H          45.4944   15.0025  -31.3247 H       1  UNL1        0.1675
     24 C          49.1120   13.3912  -20.1753 C.ar    1  UNL1        0.0505
     25 C          49.0011   13.3437  -18.7719 C.ar    1  UNL1        0.0359
     26 C          50.0030   12.7614  -17.9788 C.ar    1  UNL1        0.1404
     27 C          51.1465   12.2189  -18.6039 C.ar    1  UNL1        0.1508
     28 O          52.1890   11.6340  -17.8815 O.3     1  UNL1       -0.5042
     29 C          51.2580   12.2553  -19.9951 C.ar    1  UNL1        0.0437
     30 C          50.2483   12.8156  -20.7863 C.ar    1  UNL1        0.0697
     31 H          52.1998   11.5622  -16.8734 H       1  UNL1        0.2922
     32 S          49.8201   12.7288  -16.2158 S.O2    1  UNL1        0.0134
     33 C          48.5985   13.8845  -15.6240 C.3     1  UNL1        0.1817
     34 O          49.4001   11.3504  -15.7886 O.2     1  UNL1       -0.1685
     35 O          51.1356   13.0740  -15.5762 O.2     1  UNL1       -0.1685
     36 N          48.1075   14.0513  -20.9794 N.pl3   1  UNL1       -0.3325
     37 H          47.1551   13.6297  -21.0572 H       1  UNL1        0.1468
     38 C          47.4839   15.3283  -22.9807 C.3     1  UNL1        0.0229
     39 C          48.3135   15.3067  -21.7018 C.3     1  UNL1        0.0871
@<TRIPOS>BOND
     1    38    39    1
     2    39    36    1
     3    36    24    1
     4    24    25   ar
     5    25    26   ar
     6    26    32    1
     7    32    33    1
     8    32    34    2
     9    32    35    2
    10    26    27   ar
    11    27    28    1
    12    27    29   ar
    13    29    30   ar
    14    30     1    1
    15     1     2    2
    16     1     3   am
    17     3     4    1
    18     4     5    1
    19     5     6    1
    20     6     7    1
    21     7     8   ar
    22     8     9   ar
    23     9    10   ar
    24    10    14    1
    25    14    15   ar
    26    15    16   ar
    27    16    17   ar
    28    17    18   ar
    29    18    19   ar
    30    19    20   ar
    31    20    21   ar
    32    21    22   ar
    33    10    11   ar
    34    11    12   ar
    35    12    13    1
    36    30    24   ar
    37    13     3    1
    38    12     7   ar
    39    22    14   ar
    40    21    17   ar
    41    36    37    1
    42    28    31    1
    43    20    23    1
