@<TRIPOS>MOLECULE
*****
 41 45 0 0 0
SMALL
GASTEIGER

@<TRIPOS>ATOM
      1 C         -30.9576   50.1145   -8.8033 C.3     1  UNL1        0.1333
      2 N         -29.7580   50.1633   -9.6404 N.ar    1  UNL1       -0.2950
      3 C         -29.6393   49.8921  -10.9713 C.ar    1  UNL1        0.2019
      4 N         -28.3634   49.9571  -11.4291 N.ar    1  UNL1       -0.2134
      5 C         -27.6692   50.3164  -10.3350 C.ar    1  UNL1        0.1033
      6 C         -26.2998   50.5550  -10.2507 C.ar    1  UNL1        0.0284
      7 C         -25.7592   50.9333   -9.0011 C.ar    1  UNL1        0.0922
      8 C         -26.6266   51.0998   -7.8860 C.ar    1  UNL1        0.1782
      9 C         -28.0136   50.8748   -8.0180 C.ar    1  UNL1        0.1897
     10 C         -28.4989   50.4527   -9.2593 C.ar    1  UNL1        0.1173
     11 O         -28.8524   51.1040   -6.9231 O.3     1  UNL1       -0.4669
     12 C         -28.3892   51.8146   -5.7733 C.3     1  UNL1        0.2527
     13 C         -26.9392   51.4285   -5.4611 C.3     1  UNL1        0.2526
     14 O         -26.1399   51.5206   -6.6422 O.3     1  UNL1       -0.4682
     15 C         -24.3043   51.1671   -8.8879 C.2     1  UNL1        0.2526
     16 O         -23.7248   50.8860   -7.8040 O.2     1  UNL1       -0.2697
     17 N         -23.5589   51.7111   -9.9923 N.am    1  UNL1       -0.2803
     18 H         -24.0579   51.8961  -10.8909 H       1  UNL1        0.1552
     19 C         -22.1410   51.9450   -9.9685 C.ar    1  UNL1        0.0506
     20 C         -21.3377   51.6884  -11.0918 C.ar    1  UNL1        0.0170
     21 C         -19.9588   51.8974  -11.0331 C.ar    1  UNL1        0.0309
     22 C         -19.3640   52.3512   -9.8533 C.ar    1  UNL1        0.1441
     23 F         -18.0202   52.5411   -9.8218 F       1  UNL1       -0.2042
     24 C         -20.1480   52.5944   -8.7108 C.ar    1  UNL1        0.1000
     25 C         -21.5375   52.3756   -8.7772 C.ar    1  UNL1        0.0208
     26 C         -19.4883   53.0666   -7.4371 C.3     1  UNL1        0.4207
     27 F         -20.4198   53.4055   -6.4706 F       1  UNL1       -0.1658
     28 F         -18.6814   52.0608   -6.9371 F       1  UNL1       -0.1658
     29 F         -18.7104   54.1789   -7.7036 F       1  UNL1       -0.1658
     30 N         -30.7358   49.5800  -11.8428 N.pl3   1  UNL1       -0.2814
     31 H         -31.6313   50.0988  -11.6988 H       1  UNL1        0.1551
     32 C         -30.6965   48.5734  -12.8669 C.ar    1  UNL1        0.0889
     33 C         -30.9714   48.9443  -14.1933 C.ar    1  UNL1        0.1548
     34 F         -31.2539   50.2365  -14.4962 F       1  UNL1       -0.2028
     35 C         -30.9289   47.9945  -15.2172 C.ar    1  UNL1        0.0368
     36 C         -30.6284   46.6616  -14.9258 C.ar    1  UNL1        0.0246
     37 S         -30.5736   45.4478  -16.2400 S.3     1  UNL1       -0.1413
     38 C         -30.3835   46.2746  -13.6053 C.ar    1  UNL1        0.0187
     39 C         -30.4238   47.2178  -12.5712 C.ar    1  UNL1        0.0738
     40 CL        -30.1997   46.6461  -10.9216 Cl      1  UNL1       -0.0809
     41 H         -29.2022   45.6728  -16.4630 H       1  UNL1        0.1071
@<TRIPOS>BOND
     1     1     2    1
     2     2     3   ar
     3     3    30    1
     4    30    32    1
     5    32    33   ar
     6    33    34    1
     7    33    35   ar
     8    35    36   ar
     9    36    37    1
    10    36    38   ar
    11    38    39   ar
    12    39    40    1
    13     3     4   ar
    14     4     5   ar
    15     5     6   ar
    16     6     7   ar
    17     7    15    1
    18    15    16    2
    19    15    17   am
    20    17    19    1
    21    19    20   ar
    22    20    21   ar
    23    21    22   ar
    24    22    23    1
    25    22    24   ar
    26    24    26    1
    27    26    27    1
    28    26    28    1
    29    26    29    1
    30    24    25   ar
    31     7     8   ar
    32     8     9   ar
    33     9    10   ar
    34     9    11    1
    35    11    12    1
    36    12    13    1
    37    13    14    1
    38    10     2   ar
    39    39    32   ar
    40    10     5   ar
    41    25    19   ar
    42    14     8    1
    43    30    31    1
    44    37    41    1
    45    17    18    1
@<TRIPOS>MOLECULE
*****
 41 45 0 0 0
SMALL
GASTEIGER

@<TRIPOS>ATOM
      1 C         -29.8085   47.0530   -7.8852 C.3     1  UNL1        0.1333
      2 N         -28.4335   47.4580   -7.5892 N.ar    1  UNL1       -0.2950
      3 C         -27.5668   46.9228   -6.6829 C.ar    1  UNL1        0.2019
      4 N         -26.3854   47.5857   -6.6014 N.ar    1  UNL1       -0.2134
      5 C         -26.5199   48.5547   -7.5238 C.ar    1  UNL1        0.1033
      6 C         -25.5750   49.5150   -7.8762 C.ar    1  UNL1        0.0284
      7 C         -25.9090   50.4487   -8.8830 C.ar    1  UNL1        0.0922
      8 C         -27.1717   50.3555   -9.5314 C.ar    1  UNL1        0.1782
      9 C         -28.0924   49.3509   -9.1647 C.ar    1  UNL1        0.1897
     10 C         -27.7415   48.4797   -8.1291 C.ar    1  UNL1        0.1173
     11 O         -29.3015   49.2428   -9.8585 O.3     1  UNL1       -0.4669
     12 C         -29.5100   49.9332  -11.0919 C.3     1  UNL1        0.2527
     13 C         -28.8711   51.3253  -11.0338 C.3     1  UNL1        0.2526
     14 O         -27.5238   51.2296  -10.5674 O.3     1  UNL1       -0.4682
     15 C         -24.9272   51.4897   -9.2528 C.2     1  UNL1        0.2526
     16 O         -25.3151   52.6854   -9.3509 O.2     1  UNL1       -0.2697
     17 N         -23.5518   51.1477   -9.5025 N.am    1  UNL1       -0.2803
     18 H         -23.2508   50.1559   -9.3740 H       1  UNL1        0.1552
     19 C         -22.5340   52.1037   -9.8431 C.ar    1  UNL1        0.0506
     20 C         -22.4718   52.6826  -11.1214 C.ar    1  UNL1        0.0170
     21 C         -21.4560   53.5872  -11.4352 C.ar    1  UNL1        0.0309
     22 C         -20.4854   53.9149  -10.4854 C.ar    1  UNL1        0.1441
     23 F         -19.5055   54.7934  -10.8185 F       1  UNL1       -0.2042
     24 C         -20.5179   53.3304   -9.2062 C.ar    1  UNL1        0.1000
     25 C         -21.5429   52.4147   -8.8999 C.ar    1  UNL1        0.0208
     26 C         -19.4509   53.6801   -8.1963 C.3     1  UNL1        0.4207
     27 F         -19.2433   55.0467   -8.1200 F       1  UNL1       -0.1658
     28 F         -19.8317   53.2224   -6.9480 F       1  UNL1       -0.1658
     29 F         -18.2591   53.0763   -8.5543 F       1  UNL1       -0.1658
     30 N         -27.8337   45.7608   -5.8842 N.pl3   1  UNL1       -0.2814
     31 H         -27.7008   44.8257   -6.3308 H       1  UNL1        0.1551
     32 C         -28.3127   45.8000   -4.5305 C.ar    1  UNL1        0.0889
     33 C         -29.6919   45.6768   -4.2954 C.ar    1  UNL1        0.1548
     34 F         -30.5491   45.5089   -5.3337 F       1  UNL1       -0.2028
     35 C         -30.1920   45.6968   -2.9908 C.ar    1  UNL1        0.0368
     36 C         -29.3232   45.8570   -1.9086 C.ar    1  UNL1        0.0246
     37 S         -29.9672   45.8810   -0.2388 S.3     1  UNL1       -0.1413
     38 C         -27.9522   46.0117   -2.1321 C.ar    1  UNL1        0.0187
     39 C         -27.4399   45.9937   -3.4350 C.ar    1  UNL1        0.0738
     40 CL        -25.7182   46.2888   -3.6505 Cl      1  UNL1       -0.0809
     41 H         -29.8216   44.4874   -0.1057 H       1  UNL1        0.1071
@<TRIPOS>BOND
     1     1     2    1
     2     2     3   ar
     3     3    30    1
     4    30    32    1
     5    32    33   ar
     6    33    34    1
     7    33    35   ar
     8    35    36   ar
     9    36    37    1
    10    36    38   ar
    11    38    39   ar
    12    39    40    1
    13     3     4   ar
    14     4     5   ar
    15     5     6   ar
    16     6     7   ar
    17     7    15    1
    18    15    16    2
    19    15    17   am
    20    17    19    1
    21    19    20   ar
    22    20    21   ar
    23    21    22   ar
    24    22    23    1
    25    22    24   ar
    26    24    26    1
    27    26    27    1
    28    26    28    1
    29    26    29    1
    30    24    25   ar
    31     7     8   ar
    32     8     9   ar
    33     9    10   ar
    34     9    11    1
    35    11    12    1
    36    12    13    1
    37    13    14    1
    38    10     2   ar
    39    39    32   ar
    40    10     5   ar
    41    25    19   ar
    42    14     8    1
    43    30    31    1
    44    37    41    1
    45    17    18    1
@<TRIPOS>MOLECULE
*****
 41 45 0 0 0
SMALL
GASTEIGER

@<TRIPOS>ATOM
      1 C         -31.3149   50.5480   -6.9186 C.3     1  UNL1        0.1333
      2 N         -29.9193   50.7958   -6.5541 N.ar    1  UNL1       -0.2950
      3 C         -29.3530   50.7990   -5.3138 C.ar    1  UNL1        0.2019
      4 N         -28.0404   51.1439   -5.3150 N.ar    1  UNL1       -0.2134
      5 C         -27.7794   51.3304   -6.6207 C.ar    1  UNL1        0.1033
      6 C         -26.5564   51.6732   -7.1917 C.ar    1  UNL1        0.0284
      7 C         -26.4867   51.8158   -8.5959 C.ar    1  UNL1        0.0922
      8 C         -27.6455   51.5656   -9.3821 C.ar    1  UNL1        0.1782
      9 C         -28.8605   51.1935   -8.7682 C.ar    1  UNL1        0.1897
     10 C         -28.8981   51.1136   -7.3730 C.ar    1  UNL1        0.1173
     11 O         -29.9685   50.8942   -9.5668 O.3     1  UNL1       -0.4669
     12 C         -29.8310   50.6878  -10.9739 C.3     1  UNL1        0.2527
     13 C         -28.8079   51.6698  -11.5555 C.3     1  UNL1        0.2526
     14 O         -27.6081   51.6477  -10.7796 O.3     1  UNL1       -0.4682
     15 C         -25.2025   52.2025   -9.2166 C.2     1  UNL1        0.2526
     16 O         -25.1846   53.1668  -10.0288 O.2     1  UNL1       -0.2697
     17 N         -23.9913   51.4900   -8.9057 N.am    1  UNL1       -0.2803
     18 H         -24.0292   50.7222   -8.1988 H       1  UNL1        0.1552
     19 C         -22.7020   51.8195   -9.4487 C.ar    1  UNL1        0.0506
     20 C         -22.4134   51.6379  -10.8113 C.ar    1  UNL1        0.0170
     21 C         -21.1440   51.9391  -11.3077 C.ar    1  UNL1        0.0309
     22 C         -20.1460   52.4115  -10.4519 C.ar    1  UNL1        0.1441
     23 F         -18.9187   52.6916  -10.9597 F       1  UNL1       -0.2042
     24 C         -20.4085   52.5806   -9.0801 C.ar    1  UNL1        0.1000
     25 C         -21.6901   52.2690   -8.5869 C.ar    1  UNL1        0.0208
     26 C         -19.3141   53.0741   -8.1641 C.3     1  UNL1        0.4207
     27 F         -18.1313   52.3807   -8.3561 F       1  UNL1       -0.1658
     28 F         -19.0820   54.4158   -8.4063 F       1  UNL1       -0.1658
     29 F         -19.7056   52.9142   -6.8471 F       1  UNL1       -0.1658
     30 N         -30.0403   50.4601   -4.1006 N.pl3   1  UNL1       -0.2814
     31 H         -30.4103   51.2449   -3.5185 H       1  UNL1        0.1551
     32 C         -30.2129   49.1196   -3.6139 C.ar    1  UNL1        0.0889
     33 C         -29.7534   48.0490   -4.3983 C.ar    1  UNL1        0.1548
     34 F         -29.1444   48.2860   -5.5875 F       1  UNL1       -0.2028
     35 C         -29.8921   46.7328   -3.9504 C.ar    1  UNL1        0.0368
     36 C         -30.5060   46.4702   -2.7232 C.ar    1  UNL1        0.0246
     37 S         -30.6809   44.7830   -2.1520 S.3     1  UNL1       -0.1413
     38 C         -30.9951   47.5255   -1.9482 C.ar    1  UNL1        0.0187
     39 C         -30.8619   48.8484   -2.3873 C.ar    1  UNL1        0.0738
     40 CL        -31.5838   50.1208   -1.4087 Cl      1  UNL1       -0.0809
     41 H         -29.4422   44.8240   -1.4850 H       1  UNL1        0.1071
@<TRIPOS>BOND
     1     1     2    1
     2     2     3   ar
     3     3    30    1
     4    30    32    1
     5    32    33   ar
     6    33    34    1
     7    33    35   ar
     8    35    36   ar
     9    36    37    1
    10    36    38   ar
    11    38    39   ar
    12    39    40    1
    13     3     4   ar
    14     4     5   ar
    15     5     6   ar
    16     6     7   ar
    17     7    15    1
    18    15    16    2
    19    15    17   am
    20    17    19    1
    21    19    20   ar
    22    20    21   ar
    23    21    22   ar
    24    22    23    1
    25    22    24   ar
    26    24    26    1
    27    26    27    1
    28    26    28    1
    29    26    29    1
    30    24    25   ar
    31     7     8   ar
    32     8     9   ar
    33     9    10   ar
    34     9    11    1
    35    11    12    1
    36    12    13    1
    37    13    14    1
    38    10     2   ar
    39    39    32   ar
    40    10     5   ar
    41    25    19   ar
    42    14     8    1
    43    30    31    1
    44    37    41    1
    45    17    18    1
@<TRIPOS>MOLECULE
*****
 41 45 0 0 0
SMALL
GASTEIGER

@<TRIPOS>ATOM
      1 C         -31.5399   50.3536   -8.0372 C.3     1  UNL1        0.1333
      2 N         -30.2353   50.6828   -7.4614 N.ar    1  UNL1       -0.2950
      3 C         -29.8793   50.7488   -6.1469 C.ar    1  UNL1        0.2019
      4 N         -28.6015   51.1607   -5.9485 N.ar    1  UNL1       -0.2134
      5 C         -28.1404   51.3249   -7.2008 C.ar    1  UNL1        0.1033
      6 C         -26.8579   51.7147   -7.5787 C.ar    1  UNL1        0.0284
      7 C         -26.5672   51.8225   -8.9574 C.ar    1  UNL1        0.0922
      8 C         -27.5696   51.4917   -9.9109 C.ar    1  UNL1        0.1782
      9 C         -28.8498   51.0743   -9.4883 C.ar    1  UNL1        0.1897
     10 C         -29.1103   51.0305   -8.1155 C.ar    1  UNL1        0.1173
     11 O         -29.7979   50.6967  -10.4442 O.3     1  UNL1       -0.4669
     12 C         -29.4237   50.4596  -11.8026 C.3     1  UNL1        0.2527
     13 C         -28.3663   51.4769  -12.2456 C.3     1  UNL1        0.2526
     14 O         -27.3091   51.5377  -11.2861 O.3     1  UNL1       -0.4682
     15 C         -25.2184   52.2579   -9.3761 C.2     1  UNL1        0.2526
     16 O         -25.0822   53.3942   -9.9053 O.2     1  UNL1       -0.2697
     17 N         -24.0778   51.4005   -9.1891 N.am    1  UNL1       -0.2803
     18 H         -24.2145   50.4820   -8.7111 H       1  UNL1        0.1552
     19 C         -22.7333   51.7604   -9.5476 C.ar    1  UNL1        0.0506
     20 C         -22.2654   51.6237  -10.8649 C.ar    1  UNL1        0.0170
     21 C         -20.9464   51.9537  -11.1807 C.ar    1  UNL1        0.0309
     22 C         -20.0766   52.4105  -10.1875 C.ar    1  UNL1        0.1441
     23 F         -18.7974   52.7194  -10.5207 F       1  UNL1       -0.2042
     24 C         -20.5197   52.5347   -8.8580 C.ar    1  UNL1        0.1000
     25 C         -21.8503   52.1943   -8.5473 C.ar    1  UNL1        0.0208
     26 C         -19.5626   53.0118   -7.7917 C.3     1  UNL1        0.4207
     27 F         -18.9099   54.1729   -8.1689 F       1  UNL1       -0.1658
     28 F         -20.2613   53.2591   -6.6241 F       1  UNL1       -0.1658
     29 F         -18.6132   52.0350   -7.5514 F       1  UNL1       -0.1658
     30 N         -30.7385   50.4079   -5.0493 N.pl3   1  UNL1       -0.2814
     31 H         -31.6076   50.9735   -4.9212 H       1  UNL1        0.1551
     32 C         -30.4600   49.3730   -4.0927 C.ar    1  UNL1        0.0889
     33 C         -30.7583   49.6022   -2.7395 C.ar    1  UNL1        0.1548
     34 F         -31.3136   50.7783   -2.3526 F       1  UNL1       -0.2028
     35 C         -30.5135   48.6131   -1.7834 C.ar    1  UNL1        0.0368
     36 C         -29.9530   47.3917   -2.1650 C.ar    1  UNL1        0.0246
     37 S         -29.6420   46.1265   -0.9378 S.3     1  UNL1       -0.1413
     38 C         -29.6233   47.1638   -3.5040 C.ar    1  UNL1        0.0187
     39 C         -29.8637   48.1479   -4.4706 C.ar    1  UNL1        0.0738
     40 CL        -29.3377   47.8321   -6.1203 Cl      1  UNL1       -0.0809
     41 H         -30.9172   45.5599   -1.1213 H       1  UNL1        0.1071
@<TRIPOS>BOND
     1     1     2    1
     2     2     3   ar
     3     3    30    1
     4    30    32    1
     5    32    33   ar
     6    33    34    1
     7    33    35   ar
     8    35    36   ar
     9    36    37    1
    10    36    38   ar
    11    38    39   ar
    12    39    40    1
    13     3     4   ar
    14     4     5   ar
    15     5     6   ar
    16     6     7   ar
    17     7    15    1
    18    15    16    2
    19    15    17   am
    20    17    19    1
    21    19    20   ar
    22    20    21   ar
    23    21    22   ar
    24    22    23    1
    25    22    24   ar
    26    24    26    1
    27    26    27    1
    28    26    28    1
    29    26    29    1
    30    24    25   ar
    31     7     8   ar
    32     8     9   ar
    33     9    10   ar
    34     9    11    1
    35    11    12    1
    36    12    13    1
    37    13    14    1
    38    10     2   ar
    39    39    32   ar
    40    10     5   ar
    41    25    19   ar
    42    14     8    1
    43    30    31    1
    44    37    41    1
    45    17    18    1
@<TRIPOS>MOLECULE
*****
 41 45 0 0 0
SMALL
GASTEIGER

@<TRIPOS>ATOM
      1 C         -23.9509   52.7571  -11.5472 C.3     1  UNL1        0.1333
      2 N         -23.7114   52.1542  -10.2352 N.ar    1  UNL1       -0.2950
      3 C         -22.5841   52.2051   -9.4701 C.ar    1  UNL1        0.2019
      4 N         -22.6641   51.4696   -8.3323 N.ar    1  UNL1       -0.2134
      5 C         -23.9108   50.9688   -8.3848 C.ar    1  UNL1        0.1033
      6 C         -24.5297   50.1567   -7.4378 C.ar    1  UNL1        0.0284
      7 C         -25.8583   49.7387   -7.6763 C.ar    1  UNL1        0.0922
      8 C         -26.5339   50.1899   -8.8440 C.ar    1  UNL1        0.1782
      9 C         -25.8815   51.0347   -9.7672 C.ar    1  UNL1        0.1897
     10 C         -24.5506   51.3826   -9.5178 C.ar    1  UNL1        0.1173
     11 O         -26.5868   51.5133  -10.8756 O.3     1  UNL1       -0.4669
     12 C         -28.0089   51.3979  -10.9527 C.3     1  UNL1        0.2527
     13 C         -28.4628   50.0524  -10.3758 C.3     1  UNL1        0.2526
     14 O         -27.8664   49.8396   -9.0947 O.3     1  UNL1       -0.4682
     15 C         -26.5223   48.8571   -6.6935 C.2     1  UNL1        0.2526
     16 O         -27.0225   47.7700   -7.0908 O.2     1  UNL1       -0.2697
     17 N         -26.6030   49.2316   -5.3063 N.am    1  UNL1       -0.2803
     18 H         -26.1444   50.1181   -4.9992 H       1  UNL1        0.1552
     19 C         -27.2103   48.4196   -4.2877 C.ar    1  UNL1        0.0506
     20 C         -28.3982   48.8127   -3.6495 C.ar    1  UNL1        0.0170
     21 C         -28.9520   48.0193   -2.6433 C.ar    1  UNL1        0.0309
     22 C         -28.3231   46.8343   -2.2532 C.ar    1  UNL1        0.1441
     23 F         -28.8801   46.0843   -1.2684 F       1  UNL1       -0.2042
     24 C         -27.1216   46.4334   -2.8655 C.ar    1  UNL1        0.1000
     25 C         -26.5671   47.2425   -3.8758 C.ar    1  UNL1        0.0208
     26 C         -26.4435   45.1597   -2.4201 C.3     1  UNL1        0.4207
     27 F         -26.7762   44.8283   -1.1178 F       1  UNL1       -0.1658
     28 F         -26.8255   44.1211   -3.2497 F       1  UNL1       -0.1658
     29 F         -25.0711   45.3155   -2.4945 F       1  UNL1       -0.1658
     30 N         -21.4105   52.9649   -9.7934 N.pl3   1  UNL1       -0.2814
     31 H         -21.5267   53.7906  -10.4229 H       1  UNL1        0.1551
     32 C         -20.0849   52.6391   -9.3457 C.ar    1  UNL1        0.0889
     33 C         -19.7074   52.9830   -8.0374 C.ar    1  UNL1        0.1548
     34 F         -20.5905   53.5990   -7.2116 F       1  UNL1       -0.2028
     35 C         -18.4308   52.6696   -7.5635 C.ar    1  UNL1        0.0368
     36 C         -17.5122   52.0251   -8.3956 C.ar    1  UNL1        0.0246
     37 S         -15.8782   51.6239   -7.7850 S.3     1  UNL1       -0.1413
     38 C         -17.8660   51.7056   -9.7096 C.ar    1  UNL1        0.0187
     39 C         -19.1422   52.0154  -10.1952 C.ar    1  UNL1        0.0738
     40 CL        -19.4892   51.6714  -11.8861 Cl      1  UNL1       -0.0809
     41 H         -16.3004   50.3609   -7.3295 H       1  UNL1        0.1071
@<TRIPOS>BOND
     1     1     2    1
     2     2     3   ar
     3     3    30    1
     4    30    32    1
     5    32    33   ar
     6    33    34    1
     7    33    35   ar
     8    35    36   ar
     9    36    37    1
    10    36    38   ar
    11    38    39   ar
    12    39    40    1
    13     3     4   ar
    14     4     5   ar
    15     5     6   ar
    16     6     7   ar
    17     7    15    1
    18    15    16    2
    19    15    17   am
    20    17    19    1
    21    19    20   ar
    22    20    21   ar
    23    21    22   ar
    24    22    23    1
    25    22    24   ar
    26    24    26    1
    27    26    27    1
    28    26    28    1
    29    26    29    1
    30    24    25   ar
    31     7     8   ar
    32     8     9   ar
    33     9    10   ar
    34     9    11    1
    35    11    12    1
    36    12    13    1
    37    13    14    1
    38    10     2   ar
    39    39    32   ar
    40    10     5   ar
    41    25    19   ar
    42    14     8    1
    43    30    31    1
    44    37    41    1
    45    17    18    1
@<TRIPOS>MOLECULE
*****
 41 45 0 0 0
SMALL
GASTEIGER

@<TRIPOS>ATOM
      1 C         -30.7782   49.0384   -7.1246 C.3     1  UNL1        0.1333
      2 N         -29.3549   49.2640   -6.8688 N.ar    1  UNL1       -0.2950
      3 C         -28.6037   48.8389   -5.8134 C.ar    1  UNL1        0.2019
      4 N         -27.3233   49.2880   -5.8400 N.ar    1  UNL1       -0.2134
      5 C         -27.2764   49.9963   -6.9819 C.ar    1  UNL1        0.1033
      6 C         -26.1727   50.6574   -7.5148 C.ar    1  UNL1        0.0284
      7 C         -26.3279   51.3446   -8.7399 C.ar    1  UNL1        0.0922
      8 C         -27.5828   51.3059   -9.4087 C.ar    1  UNL1        0.1782
      9 C         -28.6707   50.6020   -8.8496 C.ar    1  UNL1        0.1897
     10 C         -28.4879   49.9789   -7.6115 C.ar    1  UNL1        0.1173
     11 O         -29.8752   50.5284   -9.5557 O.3     1  UNL1       -0.4669
     12 C         -29.9490   50.9044  -10.9322 C.3     1  UNL1        0.2527
     13 C         -29.0719   52.1341  -11.1927 C.3     1  UNL1        0.2526
     14 O         -27.7663   51.9319  -10.6479 O.3     1  UNL1       -0.4682
     15 C         -25.1735   52.0717   -9.3079 C.2     1  UNL1        0.2526
     16 O         -25.3514   53.2316   -9.7693 O.2     1  UNL1       -0.2697
     17 N         -23.8676   51.4677   -9.3403 N.am    1  UNL1       -0.2803
     18 H         -23.7421   50.5225   -8.9142 H       1  UNL1        0.1552
     19 C         -22.6930   52.1177   -9.8536 C.ar    1  UNL1        0.0506
     20 C         -22.6237   52.5597  -11.1851 C.ar    1  UNL1        0.0170
     21 C         -21.4604   53.1626  -11.6665 C.ar    1  UNL1        0.0309
     22 C         -20.3507   53.3200  -10.8325 C.ar    1  UNL1        0.1441
     23 F         -19.2301   53.9048  -11.3276 F       1  UNL1       -0.2042
     24 C         -20.3924   52.8654   -9.5018 C.ar    1  UNL1        0.1000
     25 C         -21.5681   52.2534   -9.0261 C.ar    1  UNL1        0.0208
     26 C         -19.1785   53.0255   -8.6179 C.3     1  UNL1        0.4207
     27 F         -19.2899   52.2864   -7.4526 F       1  UNL1       -0.1658
     28 F         -18.0531   52.6024   -9.3015 F       1  UNL1       -0.1658
     29 F         -19.0260   54.3575   -8.2778 F       1  UNL1       -0.1658
     30 N         -29.0791   47.9842   -4.7634 N.pl3   1  UNL1       -0.2814
     31 H         -30.0799   48.0785   -4.4784 H       1  UNL1        0.1551
     32 C         -28.2606   47.0428   -4.0511 C.ar    1  UNL1        0.0889
     33 C         -27.3336   47.5244   -3.1123 C.ar    1  UNL1        0.1548
     34 F         -27.2294   48.8568   -2.8773 F       1  UNL1       -0.2028
     35 C         -26.5306   46.6370   -2.3911 C.ar    1  UNL1        0.0368
     36 C         -26.6322   45.2612   -2.6113 C.ar    1  UNL1        0.0246
     37 S         -25.6029   44.1273   -1.6849 S.3     1  UNL1       -0.1413
     38 C         -27.5292   44.7721   -3.5652 C.ar    1  UNL1        0.0187
     39 C         -28.3385   45.6520   -4.2940 C.ar    1  UNL1        0.0738
     40 CL        -29.3762   44.9768   -5.5451 Cl      1  UNL1       -0.0809
     41 H         -26.5662   44.0012   -0.6665 H       1  UNL1        0.1071
@<TRIPOS>BOND
     1     1     2    1
     2     2     3   ar
     3     3    30    1
     4    30    32    1
     5    32    33   ar
     6    33    34    1
     7    33    35   ar
     8    35    36   ar
     9    36    37    1
    10    36    38   ar
    11    38    39   ar
    12    39    40    1
    13     3     4   ar
    14     4     5   ar
    15     5     6   ar
    16     6     7   ar
    17     7    15    1
    18    15    16    2
    19    15    17   am
    20    17    19    1
    21    19    20   ar
    22    20    21   ar
    23    21    22   ar
    24    22    23    1
    25    22    24   ar
    26    24    26    1
    27    26    27    1
    28    26    28    1
    29    26    29    1
    30    24    25   ar
    31     7     8   ar
    32     8     9   ar
    33     9    10   ar
    34     9    11    1
    35    11    12    1
    36    12    13    1
    37    13    14    1
    38    10     2   ar
    39    39    32   ar
    40    10     5   ar
    41    25    19   ar
    42    14     8    1
    43    30    31    1
    44    37    41    1
    45    17    18    1
@<TRIPOS>MOLECULE
*****
 41 45 0 0 0
SMALL
GASTEIGER

@<TRIPOS>ATOM
      1 C         -30.7775   51.0431  -10.2290 C.3     1  UNL1        0.1333
      2 N         -29.7182   50.9744   -9.2214 N.ar    1  UNL1       -0.2950
      3 C         -29.8387   50.8379   -7.8702 C.ar    1  UNL1        0.2019
      4 N         -28.6541   50.8866   -7.2098 N.ar    1  UNL1       -0.2134
      5 C         -27.7606   51.0277   -8.2046 C.ar    1  UNL1        0.1033
      6 C         -26.3751   51.1012   -8.0843 C.ar    1  UNL1        0.0284
      7 C         -25.6049   51.2425   -9.2606 C.ar    1  UNL1        0.0922
      8 C         -26.2571   51.2623  -10.5247 C.ar    1  UNL1        0.1782
      9 C         -27.6620   51.1580  -10.6072 C.ar    1  UNL1        0.1897
     10 C         -28.3888   51.0708   -9.4161 C.ar    1  UNL1        0.1173
     11 O         -28.2739   51.1188  -11.8638 O.3     1  UNL1       -0.4669
     12 C         -27.5092   50.9049  -13.0517 C.3     1  UNL1        0.2527
     13 C         -26.1707   51.6460  -12.9601 C.3     1  UNL1        0.2526
     14 O         -25.5290   51.3517  -11.7176 O.3     1  UNL1       -0.4682
     15 C         -24.1349   51.3461   -9.1497 C.2     1  UNL1        0.2526
     16 O         -23.5673   50.8824   -8.1237 O.2     1  UNL1       -0.2697
     17 N         -23.3610   51.9694  -10.1907 N.am    1  UNL1       -0.2803
     18 H         -23.8538   52.3078  -11.0471 H       1  UNL1        0.1552
     19 C         -21.9288   52.0876  -10.1676 C.ar    1  UNL1        0.0506
     20 C         -21.1504   51.7777  -11.2950 C.ar    1  UNL1        0.0170
     21 C         -19.7590   51.8738  -11.2371 C.ar    1  UNL1        0.0309
     22 C         -19.1278   52.2665  -10.0543 C.ar    1  UNL1        0.1441
     23 F         -17.7731   52.3466  -10.0236 F       1  UNL1       -0.2042
     24 C         -19.8882   52.5613   -8.9079 C.ar    1  UNL1        0.1000
     25 C         -21.2909   52.4563   -8.9735 C.ar    1  UNL1        0.0208
     26 C         -19.1908   52.9662   -7.6311 C.3     1  UNL1        0.4207
     27 F         -18.3355   54.0365   -7.8295 F       1  UNL1       -0.1658
     28 F         -20.1343   53.3261   -6.6861 F       1  UNL1       -0.1658
     29 F         -18.4527   51.9004   -7.1488 F       1  UNL1       -0.1658
     30 N         -31.0792   50.6427   -7.1759 N.pl3   1  UNL1       -0.2814
     31 H         -31.9609   50.7076   -7.7327 H       1  UNL1        0.1551
     32 C         -31.1894   50.4094   -5.7627 C.ar    1  UNL1        0.0889
     33 C         -31.3390   51.5102   -4.9033 C.ar    1  UNL1        0.1548
     34 F         -31.3926   52.7684   -5.4086 F       1  UNL1       -0.2028
     35 C         -31.4629   51.3200   -3.5246 C.ar    1  UNL1        0.0368
     36 C         -31.4216   50.0310   -2.9876 C.ar    1  UNL1        0.0246
     37 S         -31.5819   49.7910   -1.2211 S.3     1  UNL1       -0.1413
     38 C         -31.2421   48.9301   -3.8298 C.ar    1  UNL1        0.0187
     39 C         -31.1164   49.1088   -5.2128 C.ar    1  UNL1        0.0738
     40 CL        -30.7978   47.6897   -6.2041 Cl      1  UNL1       -0.0809
     41 H         -32.9815   49.6725   -1.3104 H       1  UNL1        0.1071
@<TRIPOS>BOND
     1     1     2    1
     2     2     3   ar
     3     3    30    1
     4    30    32    1
     5    32    33   ar
     6    33    34    1
     7    33    35   ar
     8    35    36   ar
     9    36    37    1
    10    36    38   ar
    11    38    39   ar
    12    39    40    1
    13     3     4   ar
    14     4     5   ar
    15     5     6   ar
    16     6     7   ar
    17     7    15    1
    18    15    16    2
    19    15    17   am
    20    17    19    1
    21    19    20   ar
    22    20    21   ar
    23    21    22   ar
    24    22    23    1
    25    22    24   ar
    26    24    26    1
    27    26    27    1
    28    26    28    1
    29    26    29    1
    30    24    25   ar
    31     7     8   ar
    32     8     9   ar
    33     9    10   ar
    34     9    11    1
    35    11    12    1
    36    12    13    1
    37    13    14    1
    38    10     2   ar
    39    39    32   ar
    40    10     5   ar
    41    25    19   ar
    42    14     8    1
    43    30    31    1
    44    37    41    1
    45    17    18    1
@<TRIPOS>MOLECULE
*****
 41 45 0 0 0
SMALL
GASTEIGER

@<TRIPOS>ATOM
      1 C         -23.7685   52.4584  -11.8414 C.3     1  UNL1        0.1333
      2 N         -23.5822   52.0398  -10.4514 N.ar    1  UNL1       -0.2950
      3 C         -22.4748   52.1686   -9.6666 C.ar    1  UNL1        0.2019
      4 N         -22.6071   51.6025   -8.4403 N.ar    1  UNL1       -0.2134
      5 C         -23.8662   51.1314   -8.4606 C.ar    1  UNL1        0.1033
      6 C         -24.5341   50.4765   -7.4289 C.ar    1  UNL1        0.0284
      7 C         -25.8678   50.0634   -7.6474 C.ar    1  UNL1        0.0922
      8 C         -26.4981   50.3633   -8.8869 C.ar    1  UNL1        0.1782
      9 C         -25.7964   51.0532   -9.8985 C.ar    1  UNL1        0.1897
     10 C         -24.4629   51.3983   -9.6593 C.ar    1  UNL1        0.1173
     11 O         -26.4572   51.3893  -11.0840 O.3     1  UNL1       -0.4669
     12 C         -27.8795   51.3008  -11.1878 C.3     1  UNL1        0.2527
     13 C         -28.3885   50.0617  -10.4429 C.3     1  UNL1        0.2526
     14 O         -27.8332   50.0156   -9.1270 O.3     1  UNL1       -0.4682
     15 C         -26.5838   49.3458   -6.5720 C.2     1  UNL1        0.2526
     16 O         -26.9991   48.1758   -6.7923 O.2     1  UNL1       -0.2697
     17 N         -26.8095   49.9701   -5.2951 N.am    1  UNL1       -0.2803
     18 H         -26.4187   50.9240   -5.1277 H       1  UNL1        0.1552
     19 C         -27.4753   49.3309   -4.1934 C.ar    1  UNL1        0.0506
     20 C         -26.7523   48.7009   -3.1670 C.ar    1  UNL1        0.0170
     21 C         -27.4241   48.0627   -2.1229 C.ar    1  UNL1        0.0309
     22 C         -28.8205   48.0337   -2.0962 C.ar    1  UNL1        0.1441
     23 F         -29.4486   47.4016   -1.0722 F       1  UNL1       -0.2042
     24 C         -29.5631   48.6407   -3.1255 C.ar    1  UNL1        0.1000
     25 C         -28.8773   49.2775   -4.1778 C.ar    1  UNL1        0.0208
     26 C         -31.0718   48.5848   -3.0929 C.3     1  UNL1        0.4207
     27 F         -31.5835   49.1716   -1.9482 F       1  UNL1       -0.1658
     28 F         -31.5804   49.2502   -4.1936 F       1  UNL1       -0.1658
     29 F         -31.4870   47.2659   -3.1310 F       1  UNL1       -0.1658
     30 N         -21.2709   52.8451  -10.0566 N.pl3   1  UNL1       -0.2814
     31 H         -21.3454   53.5760  -10.7994 H       1  UNL1        0.1551
     32 C         -19.9683   52.5527   -9.5261 C.ar    1  UNL1        0.0889
     33 C         -19.6848   52.8995   -8.1949 C.ar    1  UNL1        0.1548
     34 F         -20.6354   53.4869   -7.4252 F       1  UNL1       -0.2028
     35 C         -18.4332   52.6179   -7.6413 C.ar    1  UNL1        0.0368
     36 C         -17.4459   52.0030   -8.4152 C.ar    1  UNL1        0.0246
     37 S         -15.8441   51.6426   -7.7025 S.3     1  UNL1       -0.1413
     38 C         -17.7061   51.6813   -9.7503 C.ar    1  UNL1        0.0187
     39 C         -18.9566   51.9592  -10.3156 C.ar    1  UNL1        0.0738
     40 CL        -19.1851   51.6153  -12.0266 Cl      1  UNL1       -0.0809
     41 H         -16.2600   50.3662   -7.2798 H       1  UNL1        0.1071
@<TRIPOS>BOND
     1     1     2    1
     2     2     3   ar
     3     3    30    1
     4    30    32    1
     5    32    33   ar
     6    33    34    1
     7    33    35   ar
     8    35    36   ar
     9    36    37    1
    10    36    38   ar
    11    38    39   ar
    12    39    40    1
    13     3     4   ar
    14     4     5   ar
    15     5     6   ar
    16     6     7   ar
    17     7    15    1
    18    15    16    2
    19    15    17   am
    20    17    19    1
    21    19    20   ar
    22    20    21   ar
    23    21    22   ar
    24    22    23    1
    25    22    24   ar
    26    24    26    1
    27    26    27    1
    28    26    28    1
    29    26    29    1
    30    24    25   ar
    31     7     8   ar
    32     8     9   ar
    33     9    10   ar
    34     9    11    1
    35    11    12    1
    36    12    13    1
    37    13    14    1
    38    10     2   ar
    39    39    32   ar
    40    10     5   ar
    41    25    19   ar
    42    14     8    1
    43    30    31    1
    44    37    41    1
    45    17    18    1
@<TRIPOS>MOLECULE
*****
 41 45 0 0 0
SMALL
GASTEIGER

@<TRIPOS>ATOM
      1 C         -23.7306   52.7599  -11.7695 C.3     1  UNL1        0.1333
      2 N         -23.5514   52.2124  -10.4241 N.ar    1  UNL1       -0.2950
      3 C         -22.4540   52.2816   -9.6180 C.ar    1  UNL1        0.2019
      4 N         -22.5894   51.5983   -8.4533 N.ar    1  UNL1       -0.2134
      5 C         -23.8406   51.1126   -8.5331 C.ar    1  UNL1        0.1033
      6 C         -24.5081   50.3516   -7.5768 C.ar    1  UNL1        0.0284
      7 C         -25.8328   49.9415   -7.8491 C.ar    1  UNL1        0.0922
      8 C         -26.4555   50.3498   -9.0611 C.ar    1  UNL1        0.1782
      9 C         -25.7549   51.1441   -9.9938 C.ar    1  UNL1        0.1897
     10 C         -24.4296   51.4846   -9.7074 C.ar    1  UNL1        0.1173
     11 O         -26.4092   51.5828  -11.1490 O.3     1  UNL1       -0.4669
     12 C         -27.8288   51.4834  -11.2770 C.3     1  UNL1        0.2527
     13 C         -28.3253   50.1709  -10.6604 C.3     1  UNL1        0.2526
     14 O         -27.7824   50.0069   -9.3487 O.3     1  UNL1       -0.4682
     15 C         -26.5478   49.1132   -6.8558 C.2     1  UNL1        0.2526
     16 O         -27.1225   49.6824   -5.8886 O.2     1  UNL1       -0.2697
     17 N         -26.5857   47.6802   -6.9840 N.am    1  UNL1       -0.2803
     18 H         -26.1356   47.2397   -7.8171 H       1  UNL1        0.1552
     19 C         -27.2782   46.8091   -6.0745 C.ar    1  UNL1        0.0506
     20 C         -28.5158   46.2353   -6.4094 C.ar    1  UNL1        0.0170
     21 C         -29.1810   45.4152   -5.4964 C.ar    1  UNL1        0.0309
     22 C         -28.6284   45.1682   -4.2374 C.ar    1  UNL1        0.1441
     23 F         -29.2988   44.3713   -3.3666 F       1  UNL1       -0.2042
     24 C         -27.3999   45.7500   -3.8747 C.ar    1  UNL1        0.1000
     25 C         -26.7383   46.5805   -4.7997 C.ar    1  UNL1        0.0208
     26 C         -26.8242   45.4891   -2.5032 C.3     1  UNL1        0.4207
     27 F         -25.5964   46.1061   -2.3349 F       1  UNL1       -0.1658
     28 F         -27.6936   45.9693   -1.5407 F       1  UNL1       -0.1658
     29 F         -26.6578   44.1279   -2.3224 F       1  UNL1       -0.1658
     30 N         -21.2573   53.0105   -9.9275 N.pl3   1  UNL1       -0.2814
     31 H         -21.3332   53.7985  -10.6092 H       1  UNL1        0.1551
     32 C         -19.9588   52.6999   -9.3973 C.ar    1  UNL1        0.0889
     33 C         -19.2605   51.5972   -9.9161 C.ar    1  UNL1        0.1548
     34 F         -19.8037   50.8520  -10.9115 F       1  UNL1       -0.2028
     35 C         -17.9896   51.2737   -9.4340 C.ar    1  UNL1        0.0368
     36 C         -17.4095   52.0366   -8.4175 C.ar    1  UNL1        0.0246
     37 S         -15.7808   51.6201   -7.8032 S.3     1  UNL1       -0.1413
     38 C         -18.1078   53.1175   -7.8719 C.ar    1  UNL1        0.0187
     39 C         -19.3821   53.4506   -8.3470 C.ar    1  UNL1        0.0738
     40 CL        -20.2439   54.7631   -7.5515 Cl      1  UNL1       -0.0809
     41 H         -15.1533   52.4581   -8.7439 H       1  UNL1        0.1071
@<TRIPOS>BOND
     1     1     2    1
     2     2     3   ar
     3     3    30    1
     4    30    32    1
     5    32    33   ar
     6    33    34    1
     7    33    35   ar
     8    35    36   ar
     9    36    37    1
    10    36    38   ar
    11    38    39   ar
    12    39    40    1
    13     3     4   ar
    14     4     5   ar
    15     5     6   ar
    16     6     7   ar
    17     7    15    1
    18    15    16    2
    19    15    17   am
    20    17    19    1
    21    19    20   ar
    22    20    21   ar
    23    21    22   ar
    24    22    23    1
    25    22    24   ar
    26    24    26    1
    27    26    27    1
    28    26    28    1
    29    26    29    1
    30    24    25   ar
    31     7     8   ar
    32     8     9   ar
    33     9    10   ar
    34     9    11    1
    35    11    12    1
    36    12    13    1
    37    13    14    1
    38    10     2   ar
    39    39    32   ar
    40    10     5   ar
    41    25    19   ar
    42    14     8    1
    43    30    31    1
    44    37    41    1
    45    17    18    1
