@<TRIPOS>MOLECULE
*****
 37 38 0 0 0
SMALL
GASTEIGER

@<TRIPOS>ATOM
      1 C          49.5717   10.2091  -23.4717 C.3     1  UNL1        0.1755
      2 C          49.4678    9.2581  -22.2464 C.3     1  UNL1        0.0774
      3 C          48.4692    9.7198  -21.1607 C.3     1  UNL1        0.1321
      4 O          47.1543    9.3896  -21.5299 O.3     1  UNL1       -0.3803
      5 C          48.5576   11.2245  -20.9396 C.2     1  UNL1       -0.0220
      6 C          48.5662   12.0275  -22.0435 C.2     1  UNL1       -0.0250
      7 C          48.6155   13.5127  -21.9827 C.2     1  UNL1       -0.0093
      8 C          49.0625   14.2284  -23.0149 C.2     1  UNL1       -0.0268
      9 C          49.5976   13.5408  -24.2378 C.3     1  UNL1        0.0224
     10 C          49.8537   14.5344  -25.3810 C.3     1  UNL1        0.0047
     11 C          48.6735   12.3511  -24.6268 C.3     1  UNL1        0.0116
     12 C          48.5329   11.3553  -23.4179 C.3     1  UNL1        0.0623
     13 H          47.0552    8.4089  -21.4098 H       1  UNL1        0.2108
     14 C          48.6684   11.7146  -19.4919 C.3     1  UNL1        0.0203
     15 C          49.7020   10.9221  -18.6810 C.3     1  UNL1        0.0044
     16 C          47.3146   11.8436  -18.7761 C.3     1  UNL1        0.0044
     17 O          50.8874   10.7588  -23.5437 O.3     1  UNL1       -0.4518
     18 C          51.8550   10.3362  -24.4599 C.2     1  UNL1        0.3163
     19 O          52.7401    9.5021  -24.1218 O.2     1  UNL1       -0.2501
     20 C          51.7908   10.8452  -25.8741 C.3     1  UNL1        0.0991
     21 C          52.9710   11.7804  -26.1614 C.3     1  UNL1        0.0116
     22 C          50.3709    9.4770  -27.4913 C.3     1  UNL1        0.0006
     23 C          51.7590    9.6787  -26.8812 C.3     1  UNL1        0.0111
     24 C          47.2690   12.8170  -25.1049 C.3     1  UNL1        0.0033
     25 C          46.7480   11.9772  -26.2937 C.3     1  UNL1        0.0293
     26 C          46.1715   12.8471  -27.4267 C.3     1  UNL1        0.1130
     27 O          46.7888   14.1090  -27.3728 O.3     1  UNL1       -0.3844
     28 H          46.0932   14.7876  -27.5759 H       1  UNL1        0.2103
     29 C          46.4354   12.2021  -28.8061 C.3     1  UNL1        0.0590
     30 C          45.6854   12.9203  -29.9533 C.3     1  UNL1        0.1241
     31 O          45.9052   14.3099  -29.9322 O.3     1  UNL1       -0.3838
     32 H          46.8854   14.4646  -29.9456 H       1  UNL1        0.2104
     33 C          46.0285   12.3345  -31.3389 C.3     1  UNL1        0.1385
     34 C          45.6601   13.2483  -32.4697 C.2     1  UNL1        0.3163
     35 O          44.8703   12.8550  -33.3694 O.2     1  UNL1       -0.2502
     36 O          46.1718   14.5416  -32.5107 O.3     1  UNL1       -0.4801
     37 H          45.9225   15.1756  -33.2603 H       1  UNL1        0.2951
@<TRIPOS>BOND
     1    22    23    1
     2    23    20    1
     3    20    21    1
     4    20    18    1
     5    18    19    2
     6    18    17    1
     7    17     1    1
     8     1     2    1
     9     2     3    1
    10     3     4    1
    11     3     5    1
    12     5    14    1
    13    14    15    1
    14    14    16    1
    15     5     6    2
    16     6     7    1
    17     7     8    2
    18     8     9    1
    19     9    10    1
    20     9    11    1
    21    11    24    1
    22    24    25    1
    23    25    26    1
    24    26    27    1
    25    26    29    1
    26    29    30    1
    27    30    31    1
    28    30    33    1
    29    33    34    1
    30    34    35    2
    31    34    36    1
    32    11    12    1
    33    12     1    1
    34    12     6    1
    35     4    13    1
    36    27    28    1
    37    31    32    1
    38    36    37    1
@<TRIPOS>MOLECULE
*****
 37 38 0 0 0
SMALL
GASTEIGER

@<TRIPOS>ATOM
      1 C          50.1584   14.4511  -25.3354 C.3     1  UNL1        0.1755
      2 C          51.3114   13.5589  -24.7962 C.3     1  UNL1        0.0774
      3 C          51.0386   12.9276  -23.4119 C.3     1  UNL1        0.1321
      4 O          50.2199   11.7931  -23.5417 O.3     1  UNL1       -0.3803
      5 C          50.3595   13.9235  -22.4802 C.2     1  UNL1       -0.0220
      6 C          49.2994   14.6293  -22.9716 C.2     1  UNL1       -0.0250
      7 C          48.5190   15.6099  -22.1708 C.2     1  UNL1       -0.0093
      8 C          47.8156   16.5757  -22.7623 C.2     1  UNL1       -0.0268
      9 C          47.8581   16.7377  -24.2545 C.3     1  UNL1        0.0224
     10 C          46.8190   17.7576  -24.7442 C.3     1  UNL1        0.0047
     11 C          47.7555   15.3469  -24.9441 C.3     1  UNL1        0.0116
     12 C          48.9026   14.4011  -24.4318 C.3     1  UNL1        0.0623
     13 H          50.7829   11.0692  -23.9222 H       1  UNL1        0.2108
     14 C          50.9475   14.0805  -21.0738 C.3     1  UNL1        0.0203
     15 C          52.4807   14.0224  -21.0684 C.3     1  UNL1        0.0044
     16 C          50.3079   13.1539  -20.0278 C.3     1  UNL1        0.0044
     17 O          50.6093   15.8006  -25.4535 O.3     1  UNL1       -0.4518
     18 C          50.4005   16.5913  -26.5873 C.2     1  UNL1        0.3163
     19 O          49.9027   16.0941  -27.6354 O.2     1  UNL1       -0.2501
     20 C          50.7228   18.0592  -26.5211 C.3     1  UNL1        0.0991
     21 C          49.6028   18.8837  -27.1659 C.3     1  UNL1        0.0116
     22 C          52.4400   18.4258  -24.6717 C.3     1  UNL1        0.0006
     23 C          50.9645   18.5076  -25.0662 C.3     1  UNL1        0.0111
     24 C          46.3695   14.6747  -24.7301 C.3     1  UNL1        0.0033
     25 C          46.4666   13.1322  -24.6993 C.3     1  UNL1        0.0293
     26 C          46.2172   12.5503  -23.2950 C.3     1  UNL1        0.1130
     27 O          44.8603   12.1957  -23.1982 O.3     1  UNL1       -0.3844
     28 H          44.5567   12.4341  -22.2835 H       1  UNL1        0.2103
     29 C          47.0954   11.3022  -23.0511 C.3     1  UNL1        0.0590
     30 C          47.1946   10.9265  -21.5533 C.3     1  UNL1        0.1241
     31 O          45.9487   11.0221  -20.9067 O.3     1  UNL1       -0.3838
     32 H          45.2996   10.4649  -21.4098 H       1  UNL1        0.2104
     33 C          47.8167    9.5314  -21.3359 C.3     1  UNL1        0.1385
     34 C          49.1981    9.5891  -20.7547 C.2     1  UNL1        0.3163
     35 O          49.3972    9.2405  -19.5603 O.2     1  UNL1       -0.2502
     36 O          50.2657   10.0042  -21.5449 O.3     1  UNL1       -0.4801
     37 H          51.2068   10.0364  -21.1717 H       1  UNL1        0.2951
@<TRIPOS>BOND
     1    22    23    1
     2    23    20    1
     3    20    21    1
     4    20    18    1
     5    18    19    2
     6    18    17    1
     7    17     1    1
     8     1     2    1
     9     2     3    1
    10     3     4    1
    11     3     5    1
    12     5    14    1
    13    14    15    1
    14    14    16    1
    15     5     6    2
    16     6     7    1
    17     7     8    2
    18     8     9    1
    19     9    10    1
    20     9    11    1
    21    11    24    1
    22    24    25    1
    23    25    26    1
    24    26    27    1
    25    26    29    1
    26    29    30    1
    27    30    31    1
    28    30    33    1
    29    33    34    1
    30    34    35    2
    31    34    36    1
    32    11    12    1
    33    12     1    1
    34    12     6    1
    35     4    13    1
    36    27    28    1
    37    31    32    1
    38    36    37    1
@<TRIPOS>MOLECULE
*****
 37 38 0 0 0
SMALL
GASTEIGER

@<TRIPOS>ATOM
      1 C          48.9496   11.9955  -25.4732 C.3     1  UNL1        0.1755
      2 C          50.3804   12.5300  -25.7620 C.3     1  UNL1        0.0774
      3 C          50.7782   13.7739  -24.9351 C.3     1  UNL1        0.1321
      4 O          51.1787   13.3972  -23.6421 O.3     1  UNL1       -0.3803
      5 C          49.6167   14.7540  -24.8271 C.2     1  UNL1       -0.0220
      6 C          48.3925   14.2509  -24.4931 C.2     1  UNL1       -0.0250
      7 C          47.1761   15.0887  -24.3189 C.2     1  UNL1       -0.0093
      8 C          45.9566   14.5629  -24.4370 C.2     1  UNL1       -0.0268
      9 C          45.7877   13.1219  -24.8239 C.3     1  UNL1        0.0224
     10 C          44.3265   12.6665  -24.6917 C.3     1  UNL1        0.0047
     11 C          46.8006   12.2382  -24.0406 C.3     1  UNL1        0.0116
     12 C          48.2692   12.7381  -24.2977 C.3     1  UNL1        0.0623
     13 H          52.0780   12.9845  -23.7240 H       1  UNL1        0.2108
     14 C          49.9099   16.2251  -25.1405 C.3     1  UNL1        0.0203
     15 C          50.0072   16.4965  -26.6474 C.3     1  UNL1        0.0044
     16 C          51.0933   16.8033  -24.3486 C.3     1  UNL1        0.0044
     17 O          48.1447   12.1174  -26.6460 O.3     1  UNL1       -0.4518
     18 C          47.9111   11.0671  -27.5385 C.2     1  UNL1        0.3163
     19 O          48.7338   10.1153  -27.6412 O.2     1  UNL1       -0.2501
     20 C          46.6338   11.0569  -28.3333 C.3     1  UNL1        0.0991
     21 C          46.1376   12.4881  -28.5689 C.3     1  UNL1        0.0116
     22 C          46.4819   11.1961  -30.8751 C.3     1  UNL1        0.0006
     23 C          46.8207   10.3151  -29.6716 C.3     1  UNL1        0.0111
     24 C          46.5055   12.2010  -22.5142 C.3     1  UNL1        0.0033
     25 C          47.7592   11.8394  -21.6852 C.3     1  UNL1        0.0293
     26 C          47.6665   10.4392  -21.0500 C.3     1  UNL1        0.1130
     27 O          46.6085    9.7451  -21.6626 O.3     1  UNL1       -0.3844
     28 H          46.1467    9.2246  -20.9545 H       1  UNL1        0.2103
     29 C          48.9828    9.6545  -21.2500 C.3     1  UNL1        0.0590
     30 C          49.6521    9.9506  -22.6134 C.3     1  UNL1        0.1241
     31 O          50.7492   10.8212  -22.4790 O.3     1  UNL1       -0.3838
     32 H          51.3711   10.4288  -21.8126 H       1  UNL1        0.2104
     33 C          50.0644    8.6642  -23.3590 C.3     1  UNL1        0.1385
     34 C          50.9635    8.9275  -24.5302 C.2     1  UNL1        0.3163
     35 O          52.1667    9.2520  -24.3438 O.2     1  UNL1       -0.2502
     36 O          50.4737    8.7879  -25.8251 O.3     1  UNL1       -0.4801
     37 H          51.0712    8.9492  -26.6270 H       1  UNL1        0.2951
@<TRIPOS>BOND
     1    22    23    1
     2    23    20    1
     3    20    21    1
     4    20    18    1
     5    18    19    2
     6    18    17    1
     7    17     1    1
     8     1     2    1
     9     2     3    1
    10     3     4    1
    11     3     5    1
    12     5    14    1
    13    14    15    1
    14    14    16    1
    15     5     6    2
    16     6     7    1
    17     7     8    2
    18     8     9    1
    19     9    10    1
    20     9    11    1
    21    11    24    1
    22    24    25    1
    23    25    26    1
    24    26    27    1
    25    26    29    1
    26    29    30    1
    27    30    31    1
    28    30    33    1
    29    33    34    1
    30    34    35    2
    31    34    36    1
    32    11    12    1
    33    12     1    1
    34    12     6    1
    35     4    13    1
    36    27    28    1
    37    31    32    1
    38    36    37    1
@<TRIPOS>MOLECULE
*****
 37 38 0 0 0
SMALL
GASTEIGER

@<TRIPOS>ATOM
      1 C          46.3305   13.2491  -23.6002 C.3     1  UNL1        0.1755
      2 C          45.1614   13.5105  -24.5908 C.3     1  UNL1        0.0774
      3 C          45.1430   12.5743  -25.8206 C.3     1  UNL1        0.1321
      4 O          44.5812   11.3312  -25.4839 O.3     1  UNL1       -0.3803
      5 C          46.5502   12.3510  -26.3601 C.2     1  UNL1       -0.0220
      6 C          47.5317   12.0454  -25.4619 C.2     1  UNL1       -0.0250
      7 C          48.9422   11.7690  -25.8438 C.2     1  UNL1       -0.0093
      8 C          49.9338   11.9155  -24.9646 C.2     1  UNL1       -0.0268
      9 C          49.6514   12.4370  -23.5851 C.3     1  UNL1        0.0224
     10 C          50.8820   12.3233  -22.6727 C.3     1  UNL1        0.0047
     11 C          48.3725   11.7613  -23.0120 C.3     1  UNL1        0.0116
     12 C          47.1551   11.9952  -23.9795 C.3     1  UNL1        0.0623
     13 H          43.6021   11.4688  -25.3923 H       1  UNL1        0.2108
     14 C          46.7584   12.5257  -27.8682 C.3     1  UNL1        0.0203
     15 C          46.0722   13.7848  -28.4139 C.3     1  UNL1        0.0044
     16 C          46.4397   11.2653  -28.6877 C.3     1  UNL1        0.0044
     17 O          47.1876   14.3900  -23.5559 O.3     1  UNL1       -0.4518
     18 C          46.8505   15.6343  -24.0965 C.2     1  UNL1        0.3163
     19 O          46.1323   16.4443  -23.4473 O.2     1  UNL1       -0.2501
     20 C          47.4058   16.0193  -25.4406 C.3     1  UNL1        0.0991
     21 C          46.6656   17.2411  -25.9967 C.3     1  UNL1        0.0116
     22 C          49.6988   15.5801  -26.4667 C.3     1  UNL1        0.0006
     23 C          48.9213   16.2889  -25.3566 C.3     1  UNL1        0.0111
     24 C          48.5663   10.2406  -22.7506 C.3     1  UNL1        0.0033
     25 C          47.7571    9.7500  -21.5282 C.3     1  UNL1        0.0293
     26 C          48.5420    9.8743  -20.2087 C.3     1  UNL1        0.1130
     27 O          49.9152    9.8180  -20.5044 O.3     1  UNL1       -0.3844
     28 H          50.3507    9.2867  -19.7876 H       1  UNL1        0.2103
     29 C          48.2211   11.2095  -19.4997 C.3     1  UNL1        0.0590
     30 C          49.0997   11.4461  -18.2481 C.3     1  UNL1        0.1241
     31 O          49.8871   10.3210  -17.9418 O.3     1  UNL1       -0.3838
     32 H          50.4108   10.0849  -18.7510 H       1  UNL1        0.2104
     33 C          49.9776   12.7086  -18.3747 C.3     1  UNL1        0.1385
     34 C          51.4324   12.3951  -18.5609 C.2     1  UNL1        0.3163
     35 O          51.7844   11.4492  -19.3154 O.2     1  UNL1       -0.2502
     36 O          52.3955   13.1674  -17.9188 O.3     1  UNL1       -0.4801
     37 H          53.3825   12.9773  -18.0443 H       1  UNL1        0.2951
@<TRIPOS>BOND
     1    22    23    1
     2    23    20    1
     3    20    21    1
     4    20    18    1
     5    18    19    2
     6    18    17    1
     7    17     1    1
     8     1     2    1
     9     2     3    1
    10     3     4    1
    11     3     5    1
    12     5    14    1
    13    14    15    1
    14    14    16    1
    15     5     6    2
    16     6     7    1
    17     7     8    2
    18     8     9    1
    19     9    10    1
    20     9    11    1
    21    11    24    1
    22    24    25    1
    23    25    26    1
    24    26    27    1
    25    26    29    1
    26    29    30    1
    27    30    31    1
    28    30    33    1
    29    33    34    1
    30    34    35    2
    31    34    36    1
    32    11    12    1
    33    12     1    1
    34    12     6    1
    35     4    13    1
    36    27    28    1
    37    31    32    1
    38    36    37    1
@<TRIPOS>MOLECULE
*****
 37 38 0 0 0
SMALL
GASTEIGER

@<TRIPOS>ATOM
      1 C          48.9044   10.6124  -23.6354 C.3     1  UNL1        0.1755
      2 C          48.8509    9.8252  -22.2960 C.3     1  UNL1        0.0774
      3 C          47.7541   10.3019  -21.3167 C.3     1  UNL1        0.1321
      4 O          46.5055    9.7701  -21.6804 O.3     1  UNL1       -0.3803
      5 C          47.6581   11.8223  -21.2999 C.2     1  UNL1       -0.0220
      6 C          47.6282   12.4683  -22.5021 C.2     1  UNL1       -0.0250
      7 C          47.5034   13.9436  -22.6427 C.2     1  UNL1       -0.0093
      8 C          47.9149   14.5661  -23.7475 C.2     1  UNL1       -0.0268
      9 C          48.5843   13.7931  -24.8472 C.3     1  UNL1        0.0224
     10 C          48.7799   14.6514  -26.1061 C.3     1  UNL1        0.0047
     11 C          47.8232   12.4600  -25.1005 C.3     1  UNL1        0.0116
     12 C          47.7393   11.6222  -23.7724 C.3     1  UNL1        0.0623
     13 H          46.5140    8.8090  -21.4311 H       1  UNL1        0.2108
     14 C          47.6412   12.5081  -19.9296 C.3     1  UNL1        0.0203
     15 C          49.0521   12.7835  -19.3932 C.3     1  UNL1        0.0044
     16 C          46.7325   11.8160  -18.9015 C.3     1  UNL1        0.0044
     17 O          50.1500   11.3023  -23.7385 O.3     1  UNL1       -0.4518
     18 C          51.2479   10.8171  -24.4551 C.2     1  UNL1        0.3163
     19 O          52.2016   10.2430  -23.8600 O.2     1  UNL1       -0.2501
     20 C          51.2492   10.9362  -25.9548 C.3     1  UNL1        0.0991
     21 C          52.4791   11.7184  -26.4296 C.3     1  UNL1        0.0116
     22 C          50.1303    9.4710  -27.7169 C.3     1  UNL1        0.0006
     23 C          51.1938    9.5468  -26.6202 C.3     1  UNL1        0.0111
     24 C          46.3994   12.6865  -25.6834 C.3     1  UNL1        0.0033
     25 C          45.9776   11.5570  -26.6510 C.3     1  UNL1        0.0293
     26 C          46.7232   11.6204  -27.9974 C.3     1  UNL1        0.1130
     27 O          46.7534   10.3269  -28.5472 O.3     1  UNL1       -0.3844
     28 H          47.6449   10.2043  -28.9665 H       1  UNL1        0.2103
     29 C          46.0119   12.5810  -28.9771 C.3     1  UNL1        0.0590
     30 C          46.2631   12.2144  -30.4593 C.3     1  UNL1        0.1241
     31 O          45.6874   10.9755  -30.7963 O.3     1  UNL1       -0.3838
     32 H          44.7248   11.0107  -30.5574 H       1  UNL1        0.2104
     33 C          45.7887   13.3180  -31.4276 C.3     1  UNL1        0.1385
     34 C          45.0976   12.7749  -32.6429 C.2     1  UNL1        0.3163
     35 O          45.6405   12.8718  -33.7759 O.2     1  UNL1       -0.2502
     36 O          43.8661   12.1400  -32.5142 O.3     1  UNL1       -0.4801
     37 H          43.3922   11.7561  -33.3229 H       1  UNL1        0.2951
@<TRIPOS>BOND
     1    22    23    1
     2    23    20    1
     3    20    21    1
     4    20    18    1
     5    18    19    2
     6    18    17    1
     7    17     1    1
     8     1     2    1
     9     2     3    1
    10     3     4    1
    11     3     5    1
    12     5    14    1
    13    14    15    1
    14    14    16    1
    15     5     6    2
    16     6     7    1
    17     7     8    2
    18     8     9    1
    19     9    10    1
    20     9    11    1
    21    11    24    1
    22    24    25    1
    23    25    26    1
    24    26    27    1
    25    26    29    1
    26    29    30    1
    27    30    31    1
    28    30    33    1
    29    33    34    1
    30    34    35    2
    31    34    36    1
    32    11    12    1
    33    12     1    1
    34    12     6    1
    35     4    13    1
    36    27    28    1
    37    31    32    1
    38    36    37    1
@<TRIPOS>MOLECULE
*****
 37 38 0 0 0
SMALL
GASTEIGER

@<TRIPOS>ATOM
      1 C          50.2040   10.7075  -23.0186 C.3     1  UNL1        0.1755
      2 C          50.6257    9.4015  -23.7485 C.3     1  UNL1        0.0774
      3 C          51.7198    9.5935  -24.8233 C.3     1  UNL1        0.1321
      4 O          52.9887    9.6701  -24.2250 O.3     1  UNL1       -0.3803
      5 C          51.4768   10.8619  -25.6316 C.2     1  UNL1       -0.0220
      6 C          51.1869   12.0051  -24.9442 C.2     1  UNL1       -0.0250
      7 C          50.9588   13.3230  -25.5944 C.2     1  UNL1       -0.0093
      8 C          50.2627   14.2807  -24.9813 C.2     1  UNL1       -0.0268
      9 C          49.6289   14.0188  -23.6455 C.3     1  UNL1        0.0224
     10 C          49.0661   15.3052  -23.0225 C.3     1  UNL1        0.0047
     11 C          50.6221   13.2510  -22.7264 C.3     1  UNL1        0.0116
     12 C          51.0827   11.9170  -23.4199 C.3     1  UNL1        0.0623
     13 H          53.2305    8.7517  -23.9351 H       1  UNL1        0.2108
     14 C          51.5403   10.7430  -27.1580 C.3     1  UNL1        0.0203
     15 C          50.8931    9.4510  -27.6739 C.3     1  UNL1        0.0044
     16 C          52.9413   10.9868  -27.7407 C.3     1  UNL1        0.0044
     17 O          48.8347   10.9962  -23.3017 O.3     1  UNL1       -0.4518
     18 C          47.7904   10.7569  -22.4038 C.2     1  UNL1        0.3163
     19 O          47.8833    9.8432  -21.5378 O.2     1  UNL1       -0.2501
     20 C          46.5762   11.6443  -22.4454 C.3     1  UNL1        0.0991
     21 C          46.5965   12.6358  -21.2765 C.3     1  UNL1        0.0116
     22 C          45.0322   12.5878  -24.2424 C.3     1  UNL1        0.0006
     23 C          46.4803   12.3879  -23.7923 C.3     1  UNL1        0.0111
     24 C          51.8593   14.1083  -22.3359 C.3     1  UNL1        0.0033
     25 C          51.9779   14.3006  -20.8066 C.3     1  UNL1        0.0293
     26 C          52.5734   13.0690  -20.0985 C.3     1  UNL1        0.1130
     27 O          53.8988   13.3657  -19.7357 O.3     1  UNL1       -0.3844
     28 H          54.4381   12.5464  -19.8892 H       1  UNL1        0.2103
     29 C          51.7596   12.7128  -18.8338 C.3     1  UNL1        0.0590
     30 C          50.4572   11.9435  -19.1601 C.3     1  UNL1        0.1241
     31 O          50.6316   10.5515  -19.0532 O.3     1  UNL1       -0.3838
     32 H          50.9872   10.3565  -18.1475 H       1  UNL1        0.2104
     33 C          49.2652   12.4119  -18.2996 C.3     1  UNL1        0.1385
     34 C          48.3131   11.3030  -17.9631 C.2     1  UNL1        0.3163
     35 O          47.7835   11.2484  -16.8210 O.2     1  UNL1       -0.2502
     36 O          47.9948   10.3476  -18.9234 O.3     1  UNL1       -0.4801
     37 H          47.3435    9.5998  -18.7166 H       1  UNL1        0.2951
@<TRIPOS>BOND
     1    22    23    1
     2    23    20    1
     3    20    21    1
     4    20    18    1
     5    18    19    2
     6    18    17    1
     7    17     1    1
     8     1     2    1
     9     2     3    1
    10     3     4    1
    11     3     5    1
    12     5    14    1
    13    14    15    1
    14    14    16    1
    15     5     6    2
    16     6     7    1
    17     7     8    2
    18     8     9    1
    19     9    10    1
    20     9    11    1
    21    11    24    1
    22    24    25    1
    23    25    26    1
    24    26    27    1
    25    26    29    1
    26    29    30    1
    27    30    31    1
    28    30    33    1
    29    33    34    1
    30    34    35    2
    31    34    36    1
    32    11    12    1
    33    12     1    1
    34    12     6    1
    35     4    13    1
    36    27    28    1
    37    31    32    1
    38    36    37    1
@<TRIPOS>MOLECULE
*****
 37 38 0 0 0
SMALL
GASTEIGER

@<TRIPOS>ATOM
      1 C          48.1116   12.1725  -25.3081 C.3     1  UNL1        0.1755
      2 C          47.1763   12.4084  -24.0892 C.3     1  UNL1        0.0774
      3 C          47.7876   12.0096  -22.7266 C.3     1  UNL1        0.1321
      4 O          48.6501   13.0164  -22.2612 O.3     1  UNL1       -0.3803
      5 C          48.5653   10.7041  -22.8364 C.2     1  UNL1       -0.0220
      6 C          49.4355   10.5711  -23.8797 C.2     1  UNL1       -0.0250
      7 C          50.2852    9.3700  -24.0970 C.2     1  UNL1       -0.0093
      8 C          50.7655    9.0773  -25.3058 C.2     1  UNL1       -0.0268
      9 C          50.3940    9.9193  -26.4923 C.3     1  UNL1        0.0224
     10 C          51.2184    9.5458  -27.7335 C.3     1  UNL1        0.0047
     11 C          50.4612   11.4276  -26.1167 C.3     1  UNL1        0.0116
     12 C          49.5305   11.7220  -24.8839 C.3     1  UNL1        0.0623
     13 H          48.0803   13.7675  -21.9496 H       1  UNL1        0.2108
     14 C          48.2786    9.6272  -21.7846 C.3     1  UNL1        0.0203
     15 C          46.8721    9.7521  -21.1844 C.3     1  UNL1        0.0044
     16 C          49.3769    9.4950  -20.7179 C.3     1  UNL1        0.0044
     17 O          47.5370   11.1923  -26.1727 O.3     1  UNL1       -0.4518
     18 C          46.5957   11.4884  -27.1629 C.2     1  UNL1        0.3163
     19 O          45.4185   11.8219  -26.8522 O.2     1  UNL1       -0.2501
     20 C          47.0226   11.4617  -28.6052 C.3     1  UNL1        0.0991
     21 C          46.9865   10.0287  -29.1486 C.3     1  UNL1        0.0116
     22 C          46.0863   11.9566  -30.9251 C.3     1  UNL1        0.0006
     23 C          46.1416   12.3938  -29.4604 C.3     1  UNL1        0.0111
     24 C          51.9112   11.9055  -25.8210 C.3     1  UNL1        0.0033
     25 C          51.9391   13.2029  -24.9808 C.3     1  UNL1        0.0293
     26 C          52.2225   12.9381  -23.4901 C.3     1  UNL1        0.1130
     27 O          53.5842   12.6183  -23.3491 O.3     1  UNL1       -0.3844
     28 H          53.6500   11.8967  -22.6705 H       1  UNL1        0.2103
     29 C          51.8937   14.1836  -22.6363 C.3     1  UNL1        0.0590
     30 C          51.4729   13.8221  -21.1918 C.3     1  UNL1        0.1241
     31 O          51.1226   12.4645  -21.0736 O.3     1  UNL1       -0.3838
     32 H          51.8830   11.9223  -21.4091 H       1  UNL1        0.2104
     33 C          52.5489   14.2005  -20.1527 C.3     1  UNL1        0.1385
     34 C          53.4832   13.0704  -19.8375 C.2     1  UNL1        0.3163
     35 O          54.4259   12.7903  -20.6253 O.2     1  UNL1       -0.2502
     36 O          53.3233   12.3469  -18.6597 O.3     1  UNL1       -0.4801
     37 H          53.9535   11.5893  -18.4255 H       1  UNL1        0.2951
@<TRIPOS>BOND
     1    22    23    1
     2    23    20    1
     3    20    21    1
     4    20    18    1
     5    18    19    2
     6    18    17    1
     7    17     1    1
     8     1     2    1
     9     2     3    1
    10     3     4    1
    11     3     5    1
    12     5    14    1
    13    14    15    1
    14    14    16    1
    15     5     6    2
    16     6     7    1
    17     7     8    2
    18     8     9    1
    19     9    10    1
    20     9    11    1
    21    11    24    1
    22    24    25    1
    23    25    26    1
    24    26    27    1
    25    26    29    1
    26    29    30    1
    27    30    31    1
    28    30    33    1
    29    33    34    1
    30    34    35    2
    31    34    36    1
    32    11    12    1
    33    12     1    1
    34    12     6    1
    35     4    13    1
    36    27    28    1
    37    31    32    1
    38    36    37    1
@<TRIPOS>MOLECULE
*****
 37 38 0 0 0
SMALL
GASTEIGER

@<TRIPOS>ATOM
      1 C          49.6454   13.8082  -24.6427 C.3     1  UNL1        0.1755
      2 C          50.6092   14.9406  -24.1900 C.3     1  UNL1        0.0774
      3 C          49.9970   16.3592  -24.2369 C.3     1  UNL1        0.1321
      4 O          49.1962   16.5867  -23.1051 O.3     1  UNL1       -0.3803
      5 C          49.1492   16.5486  -25.4886 C.2     1  UNL1       -0.0220
      6 C          48.2584   15.5639  -25.8051 C.2     1  UNL1       -0.0250
      7 C          47.3428   15.6251  -26.9755 C.2     1  UNL1       -0.0093
      8 C          46.8304   14.5146  -27.5063 C.2     1  UNL1       -0.0268
      9 C          47.2294   13.1679  -26.9753 C.3     1  UNL1        0.0224
     10 C          46.3687   12.0447  -27.5730 C.3     1  UNL1        0.0047
     11 C          47.2481   13.1931  -25.4198 C.3     1  UNL1        0.0116
     12 C          48.2107   14.3258  -24.9069 C.3     1  UNL1        0.0623
     13 H          49.8096   16.7195  -22.3357 H       1  UNL1        0.2108
     14 C          49.3930   17.8160  -26.3147 C.3     1  UNL1        0.0203
     15 C          50.8850   18.0867  -26.5486 C.3     1  UNL1        0.0044
     16 C          48.6331   19.0479  -25.7983 C.3     1  UNL1        0.0044
     17 O          50.1545   13.1864  -25.8227 O.3     1  UNL1       -0.4518
     18 C          51.0078   12.0791  -25.8090 C.2     1  UNL1        0.3163
     19 O          52.2538   12.2255  -25.9484 O.2     1  UNL1       -0.2501
     20 C          50.4253   10.7135  -25.5660 C.3     1  UNL1        0.0991
     21 C          50.3799    9.9100  -26.8707 C.3     1  UNL1        0.0116
     22 C          50.5375    8.6544  -24.0657 C.3     1  UNL1        0.0006
     23 C          51.2215    9.9568  -24.4845 C.3     1  UNL1        0.0111
     24 C          45.8300   13.3758  -24.8082 C.3     1  UNL1        0.0033
     25 C          45.4824   12.2610  -23.7952 C.3     1  UNL1        0.0293
     26 C          46.4583   12.2166  -22.6042 C.3     1  UNL1        0.1130
     27 O          45.7124   12.0221  -21.4286 O.3     1  UNL1       -0.3844
     28 H          46.1250   12.5821  -20.7202 H       1  UNL1        0.2103
     29 C          47.4751   11.0642  -22.7669 C.3     1  UNL1        0.0590
     30 C          48.5475   11.0535  -21.6513 C.3     1  UNL1        0.1241
     31 O          48.3459   12.0908  -20.7224 O.3     1  UNL1       -0.3838
     32 H          47.4185   12.0161  -20.3771 H       1  UNL1        0.2104
     33 C          48.6390    9.6898  -20.9353 C.3     1  UNL1        0.1385
     34 C          49.1978    9.7923  -19.5473 C.2     1  UNL1        0.3163
     35 O          48.6164   10.4999  -18.6818 O.2     1  UNL1       -0.2502
     36 O          50.3465    9.0838  -19.2085 O.3     1  UNL1       -0.4801
     37 H          50.7294    9.1317  -18.2720 H       1  UNL1        0.2951
@<TRIPOS>BOND
     1    22    23    1
     2    23    20    1
     3    20    21    1
     4    20    18    1
     5    18    19    2
     6    18    17    1
     7    17     1    1
     8     1     2    1
     9     2     3    1
    10     3     4    1
    11     3     5    1
    12     5    14    1
    13    14    15    1
    14    14    16    1
    15     5     6    2
    16     6     7    1
    17     7     8    2
    18     8     9    1
    19     9    10    1
    20     9    11    1
    21    11    24    1
    22    24    25    1
    23    25    26    1
    24    26    27    1
    25    26    29    1
    26    29    30    1
    27    30    31    1
    28    30    33    1
    29    33    34    1
    30    34    35    2
    31    34    36    1
    32    11    12    1
    33    12     1    1
    34    12     6    1
    35     4    13    1
    36    27    28    1
    37    31    32    1
    38    36    37    1
@<TRIPOS>MOLECULE
*****
 37 38 0 0 0
SMALL
GASTEIGER

@<TRIPOS>ATOM
      1 C          48.4668   13.7268  -22.9712 C.3     1  UNL1        0.1755
      2 C          49.9573   13.3094  -22.8280 C.3     1  UNL1        0.0774
      3 C          50.6180   12.8342  -24.1421 C.3     1  UNL1        0.1321
      4 O          51.0006   13.9355  -24.9263 O.3     1  UNL1       -0.3803
      5 C          49.6661   11.9598  -24.9486 C.2     1  UNL1       -0.0220
      6 C          48.3863   12.4040  -25.1162 C.2     1  UNL1       -0.0250
      7 C          47.3570   11.6756  -25.9048 C.2     1  UNL1       -0.0093
      8 C          46.0567   11.8775  -25.6905 C.2     1  UNL1       -0.0268
      9 C          45.6041   12.7948  -24.5912 C.3     1  UNL1        0.0224
     10 C          44.0914   13.0541  -24.6555 C.3     1  UNL1        0.0047
     11 C          46.4695   14.0878  -24.5866 C.3     1  UNL1        0.0116
     12 C          47.9920   13.7213  -24.4445 C.3     1  UNL1        0.0623
     13 H          51.8023   14.3345  -24.4975 H       1  UNL1        0.2108
     14 C          50.2139   10.6294  -25.4762 C.3     1  UNL1        0.0203
     15 C          50.4520    9.6071  -24.3571 C.3     1  UNL1        0.0044
     16 C          51.4212   10.7847  -26.4142 C.3     1  UNL1        0.0044
     17 O          47.6454   12.8494  -22.2006 O.3     1  UNL1       -0.4518
     18 C          47.9452   12.4556  -20.8932 C.2     1  UNL1        0.3163
     19 O          48.3997   13.2871  -20.0592 O.2     1  UNL1       -0.2501
     20 C          47.6621   11.0381  -20.4763 C.3     1  UNL1        0.0991
     21 C          47.3248   10.1769  -21.6988 C.3     1  UNL1        0.0116
     22 C          49.7144    9.5273  -20.5693 C.3     1  UNL1        0.0006
     23 C          48.8519   10.4421  -19.6983 C.3     1  UNL1        0.0111
     24 C          46.2435   14.9623  -25.8525 C.3     1  UNL1        0.0033
     25 C          47.2984   16.0848  -25.9832 C.3     1  UNL1        0.0293
     26 C          48.1712   15.9345  -27.2436 C.3     1  UNL1        0.1130
     27 O          47.7231   16.8581  -28.2041 O.3     1  UNL1       -0.3844
     28 H          47.7679   16.4100  -29.0889 H       1  UNL1        0.2103
     29 C          49.6579   16.2061  -26.9206 C.3     1  UNL1        0.0590
     30 C          49.8433   17.0867  -25.6618 C.3     1  UNL1        0.1241
     31 O          50.7567   16.5176  -24.7555 O.3     1  UNL1       -0.3838
     32 H          51.6037   16.3450  -25.2430 H       1  UNL1        0.2104
     33 C          50.2497   18.5339  -26.0099 C.3     1  UNL1        0.1385
     34 C          49.1295   19.3292  -26.6115 C.2     1  UNL1        0.3163
     35 O          48.2205   19.7986  -25.8758 O.2     1  UNL1       -0.2502
     36 O          49.1088   19.5705  -27.9818 O.3     1  UNL1       -0.4801
     37 H          48.3665   20.1168  -28.4021 H       1  UNL1        0.2951
@<TRIPOS>BOND
     1    22    23    1
     2    23    20    1
     3    20    21    1
     4    20    18    1
     5    18    19    2
     6    18    17    1
     7    17     1    1
     8     1     2    1
     9     2     3    1
    10     3     4    1
    11     3     5    1
    12     5    14    1
    13    14    15    1
    14    14    16    1
    15     5     6    2
    16     6     7    1
    17     7     8    2
    18     8     9    1
    19     9    10    1
    20     9    11    1
    21    11    24    1
    22    24    25    1
    23    25    26    1
    24    26    27    1
    25    26    29    1
    26    29    30    1
    27    30    31    1
    28    30    33    1
    29    33    34    1
    30    34    35    2
    31    34    36    1
    32    11    12    1
    33    12     1    1
    34    12     6    1
    35     4    13    1
    36    27    28    1
    37    31    32    1
    38    36    37    1
