@<TRIPOS>MOLECULE
*****
 46 51 0 0 0
SMALL
GASTEIGER

@<TRIPOS>ATOM
      1 C          61.9006   87.7269    9.8536 C.ar    1  UNL1        0.0702
      2 C          60.8165   88.0606    9.0345 C.ar    1  UNL1        0.0191
      3 C          59.9891   87.0624    8.5182 C.ar    1  UNL1        0.0356
      4 C          60.2591   85.7126    8.8101 C.ar    1  UNL1        0.1319
      5 N          61.3376   85.4148    9.5888 N.ar    1  UNL1       -0.2279
      6 C          62.1544   86.3701   10.1054 C.ar    1  UNL1        0.1149
      7 N          59.4197   84.6470    8.3032 N.pl3   1  UNL1       -0.2908
      8 C          58.0177   84.5217    8.7389 C.3     1  UNL1        0.0925
      9 C          57.4066   83.1770    8.3194 C.3     1  UNL1        0.0277
     10 C          58.3823   82.0240    8.6268 C.3     1  UNL1        0.0740
     11 C          59.7732   82.2255    7.9404 C.3     1  UNL1        0.1338
     12 O          60.8009   81.9787    8.8664 O.3     1  UNL1       -0.3826
     13 C          59.9576   83.6433    7.3715 C.3     1  UNL1        0.1214
     14 H          60.8808   80.9935    8.9539 H       1  UNL1        0.2104
     15 C          57.7445   80.6768    8.2306 C.3     1  UNL1        0.2078
     16 O          57.4922   79.8655    9.3788 O.3     1  UNL1       -0.4754
     17 C          58.0076   80.0883   10.6664 C.ar    1  UNL1        0.1388
     18 C          58.3648   79.0407   11.5363 C.ar    1  UNL1        0.0369
     19 C          58.8688   79.3244   12.8072 C.ar    1  UNL1        0.0033
     20 C          59.0254   80.6480   13.2236 C.ar    1  UNL1        0.0066
     21 C          58.6797   81.7070   12.3682 C.ar    1  UNL1        0.0785
     22 C          58.1728   81.4135   11.0888 C.ar    1  UNL1        0.0433
     23 C          58.8471   83.1091   12.8106 C.2     1  UNL1        0.3381
     24 O          59.9598   83.5137   13.2444 O.2     1  UNL1       -0.2451
     25 O          57.7754   83.9963   12.7518 O.3     1  UNL1       -0.4771
     26 H          57.8791   84.9583   13.0520 H       1  UNL1        0.2954
     27 C          62.5186   89.4788   11.5839 C.2     1  UNL1        0.2839
     28 O          61.3977   89.4022   12.1551 O.2     1  UNL1       -0.2665
     29 N          62.7571   88.7652   10.3598 N.am    1  UNL1       -0.2766
     30 H          63.5536   89.0758    9.7584 H       1  UNL1        0.1553
     31 C          64.2489   88.9115   14.2217 C.3     1  UNL1        0.0345
     32 C          64.3356   90.0915   13.3010 C.ar    1  UNL1        0.0202
     33 C          63.5774   90.3358   12.1504 C.ar    1  UNL1        0.1946
     34 O          63.9433   91.4811   11.6026 O.2     1  UNL1       -0.4492
     35 C          64.8994   91.9925   12.3390 C.ar    1  UNL1        0.1452
     36 C          65.5771   93.1886   12.1302 C.ar    1  UNL1        0.0375
     37 C          66.5773   93.5496   13.0494 C.ar    1  UNL1        0.0031
     38 C          66.8839   92.7147   14.1578 C.ar    1  UNL1        0.0002
     39 C          66.1696   91.5053   14.3341 C.ar    1  UNL1        0.0028
     40 C          65.1830   91.1783   13.4025 C.ar    1  UNL1        0.0337
     41 C          67.9430   93.1065   15.1223 C.ar    1  UNL1        0.0000
     42 C          68.2109   94.4647   15.3785 C.ar    1  UNL1        0.0000
     43 C          69.2095   94.8306   16.2864 C.ar    1  UNL1        0.0000
     44 C          69.9497   93.8483   16.9480 C.ar    1  UNL1        0.0000
     45 C          69.6933   92.4975   16.7027 C.ar    1  UNL1        0.0000
     46 C          68.6966   92.1258   15.7952 C.ar    1  UNL1        0.0000
@<TRIPOS>BOND
     1    31    32    1
     2    32    33   ar
     3    33    27    1
     4    27    28    2
     5    27    29   am
     6    29     1    1
     7     1     2   ar
     8     2     3   ar
     9     3     4   ar
    10     4     7    1
    11     7     8    1
    12     8     9    1
    13     9    10    1
    14    10    15    1
    15    15    16    1
    16    16    17    1
    17    17    18   ar
    18    18    19   ar
    19    19    20   ar
    20    20    21   ar
    21    21    23    1
    22    23    24    2
    23    23    25    1
    24    21    22   ar
    25    10    11    1
    26    11    12    1
    27    11    13    1
    28     4     5   ar
    29     5     6   ar
    30    33    34   ar
    31    34    35   ar
    32    35    36   ar
    33    36    37   ar
    34    37    38   ar
    35    38    41    1
    36    41    42   ar
    37    42    43   ar
    38    43    44   ar
    39    44    45   ar
    40    45    46   ar
    41    38    39   ar
    42    39    40   ar
    43    40    32   ar
    44     6     1   ar
    45    40    35   ar
    46    13     7    1
    47    46    41   ar
    48    22    17   ar
    49    29    30    1
    50    25    26    1
    51    12    14    1
@<TRIPOS>MOLECULE
*****
 46 51 0 0 0
SMALL
GASTEIGER

@<TRIPOS>ATOM
      1 C          60.8185   89.6073    9.2328 C.ar    1  UNL1        0.0702
      2 C          61.3954   88.4087    9.6663 C.ar    1  UNL1        0.0191
      3 C          61.2870   88.0160   11.0011 C.ar    1  UNL1        0.0356
      4 C          60.6084   88.8404   11.9177 C.ar    1  UNL1        0.1319
      5 N          60.0793   90.0155   11.4733 N.ar    1  UNL1       -0.2279
      6 C          60.1693   90.4161   10.1779 C.ar    1  UNL1        0.1149
      7 N          60.4642   88.4653   13.3089 N.pl3   1  UNL1       -0.2908
      8 C          61.2805   89.1123   14.3511 C.3     1  UNL1        0.0925
      9 C          61.1851   88.3726   15.6933 C.3     1  UNL1        0.0277
     10 C          61.3268   86.8526   15.4805 C.3     1  UNL1        0.0740
     11 C          60.2662   86.2931   14.4762 C.3     1  UNL1        0.1338
     12 O          60.8926   85.4478   13.5448 O.3     1  UNL1       -0.3826
     13 C          59.5274   87.4037   13.7092 C.3     1  UNL1        0.1214
     14 H          61.0545   84.5825   14.0027 H       1  UNL1        0.2104
     15 C          61.2614   86.1241   16.8384 C.3     1  UNL1        0.2078
     16 O          62.3413   85.2003   16.9832 O.3     1  UNL1       -0.4754
     17 C          63.2099   84.7909   15.9580 C.ar    1  UNL1        0.1388
     18 C          64.3166   85.5569   15.5454 C.ar    1  UNL1        0.0369
     19 C          65.1430   85.0994   14.5171 C.ar    1  UNL1        0.0033
     20 C          64.8804   83.8784   13.8928 C.ar    1  UNL1        0.0066
     21 C          63.7841   83.0971   14.2939 C.ar    1  UNL1        0.0785
     22 C          62.9561   83.5644   15.3310 C.ar    1  UNL1        0.0433
     23 C          63.5077   81.8030   13.6319 C.2     1  UNL1        0.3381
     24 O          63.2095   80.7864   14.3156 O.2     1  UNL1       -0.2451
     25 O          63.5745   81.6956   12.2450 O.3     1  UNL1       -0.4771
     26 H          63.3871   80.8145   11.7817 H       1  UNL1        0.2954
     27 C          59.8626   90.1046    6.9341 C.2     1  UNL1        0.2839
     28 O          58.7462   89.5927    7.2174 O.2     1  UNL1       -0.2665
     29 N          60.9579   90.0090    7.8591 N.am    1  UNL1       -0.2766
     30 H          61.9248   90.1584    7.4911 H       1  UNL1        0.1553
     31 C          57.5896   91.3283    5.0342 C.3     1  UNL1        0.0345
     32 C          59.0701   91.3054    4.7997 C.ar    1  UNL1        0.0202
     33 C          60.0594   90.7691    5.6317 C.ar    1  UNL1        0.1946
     34 O          61.2505   90.9404    5.0863 O.2     1  UNL1       -0.4492
     35 C          61.0848   91.5595    3.9431 C.ar    1  UNL1        0.1452
     36 C          62.0704   91.9413    3.0395 C.ar    1  UNL1        0.0375
     37 C          61.6694   92.6017    1.8654 C.ar    1  UNL1        0.0031
     38 C          60.2968   92.8695    1.6125 C.ar    1  UNL1        0.0002
     39 C          59.3249   92.4634    2.5584 C.ar    1  UNL1        0.0028
     40 C          59.7586   91.8098    3.7129 C.ar    1  UNL1        0.0337
     41 C          59.8852   93.5682    0.3685 C.ar    1  UNL1        0.0000
     42 C          60.8398   94.2180   -0.4369 C.ar    1  UNL1        0.0000
     43 C          60.4491   94.8760   -1.6072 C.ar    1  UNL1        0.0000
     44 C          59.1052   94.8926   -1.9869 C.ar    1  UNL1        0.0000
     45 C          58.1487   94.2514   -1.1967 C.ar    1  UNL1        0.0000
     46 C          58.5334   93.5927   -0.0249 C.ar    1  UNL1        0.0000
@<TRIPOS>BOND
     1    31    32    1
     2    32    33   ar
     3    33    27    1
     4    27    28    2
     5    27    29   am
     6    29     1    1
     7     1     2   ar
     8     2     3   ar
     9     3     4   ar
    10     4     7    1
    11     7     8    1
    12     8     9    1
    13     9    10    1
    14    10    15    1
    15    15    16    1
    16    16    17    1
    17    17    18   ar
    18    18    19   ar
    19    19    20   ar
    20    20    21   ar
    21    21    23    1
    22    23    24    2
    23    23    25    1
    24    21    22   ar
    25    10    11    1
    26    11    12    1
    27    11    13    1
    28     4     5   ar
    29     5     6   ar
    30    33    34   ar
    31    34    35   ar
    32    35    36   ar
    33    36    37   ar
    34    37    38   ar
    35    38    41    1
    36    41    42   ar
    37    42    43   ar
    38    43    44   ar
    39    44    45   ar
    40    45    46   ar
    41    38    39   ar
    42    39    40   ar
    43    40    32   ar
    44     6     1   ar
    45    40    35   ar
    46    13     7    1
    47    46    41   ar
    48    22    17   ar
    49    29    30    1
    50    25    26    1
    51    12    14    1
@<TRIPOS>MOLECULE
*****
 46 51 0 0 0
SMALL
GASTEIGER

@<TRIPOS>ATOM
      1 C          61.9283   87.8567   10.0936 C.ar    1  UNL1        0.0702
      2 C          60.9560   88.1755    9.1394 C.ar    1  UNL1        0.0191
      3 C          60.0961   87.1902    8.6521 C.ar    1  UNL1        0.0356
      4 C          60.2212   85.8661    9.1116 C.ar    1  UNL1        0.1319
      5 N          61.1947   85.5786   10.0216 N.ar    1  UNL1       -0.2279
      6 C          62.0404   86.5223   10.5125 C.ar    1  UNL1        0.1149
      7 N          59.3428   84.8160    8.6397 N.pl3   1  UNL1       -0.2908
      8 C          57.9909   84.6559    9.2037 C.3     1  UNL1        0.0925
      9 C          57.3500   83.3254    8.7834 C.3     1  UNL1        0.0277
     10 C          58.3581   82.1700    8.9399 C.3     1  UNL1        0.0740
     11 C          59.6739   82.4176    8.1313 C.3     1  UNL1        0.1338
     12 O          60.7888   82.1396    8.9402 O.3     1  UNL1       -0.3826
     13 C          59.7930   83.8619    7.6141 C.3     1  UNL1        0.1214
     14 H          60.8829   81.1523    8.9733 H       1  UNL1        0.2104
     15 C          57.6929   80.8357    8.5452 C.3     1  UNL1        0.2078
     16 O          57.7374   79.8965    9.6206 O.3     1  UNL1       -0.4754
     17 C          58.5539   79.9959   10.7593 C.ar    1  UNL1        0.1388
     18 C          58.0392   80.2346   12.0477 C.ar    1  UNL1        0.0369
     19 C          58.9015   80.3272   13.1421 C.ar    1  UNL1        0.0033
     20 C          60.2791   80.1807   12.9679 C.ar    1  UNL1        0.0066
     21 C          60.8114   79.9366   11.6911 C.ar    1  UNL1        0.0785
     22 C          59.9363   79.8442   10.5931 C.ar    1  UNL1        0.0433
     23 C          62.2714   79.7806   11.5083 C.2     1  UNL1        0.3381
     24 O          62.7288   78.8678   10.7685 O.2     1  UNL1       -0.2451
     25 O          63.1555   80.6422   12.1529 O.3     1  UNL1       -0.4771
     26 H          64.1568   80.5443   12.0346 H       1  UNL1        0.2954
     27 C          62.5590   89.7065   11.7139 C.2     1  UNL1        0.2839
     28 O          61.4033   89.7489   12.2151 O.2     1  UNL1       -0.2665
     29 N          62.8214   88.8784   10.5694 N.am    1  UNL1       -0.2766
     30 H          63.6717   89.0865    9.9983 H       1  UNL1        0.1553
     31 C          64.3257   89.0712   14.3118 C.3     1  UNL1        0.0345
     32 C          64.4119   90.2663   13.4108 C.ar    1  UNL1        0.0202
     33 C          63.6377   90.5403   12.2776 C.ar    1  UNL1        0.1946
     34 O          64.0087   91.6906   11.7440 O.2     1  UNL1       -0.4492
     35 C          64.9832   92.1772   12.4730 C.ar    1  UNL1        0.1452
     36 C          65.6722   93.3684   12.2740 C.ar    1  UNL1        0.0375
     37 C          66.6920   93.7008   13.1824 C.ar    1  UNL1        0.0031
     38 C          67.0066   92.8426   14.2706 C.ar    1  UNL1        0.0002
     39 C          66.2802   91.6390   14.4375 C.ar    1  UNL1        0.0028
     40 C          65.2743   91.3407   13.5171 C.ar    1  UNL1        0.0337
     41 C          68.0863   93.2042   15.2238 C.ar    1  UNL1        0.0000
     42 C          68.8065   92.2032   15.9030 C.ar    1  UNL1        0.0000
     43 C          69.8221   92.5468   16.8008 C.ar    1  UNL1        0.0000
     44 C          70.1304   93.8895   17.0299 C.ar    1  UNL1        0.0000
     45 C          69.4235   94.8919   16.3621 C.ar    1  UNL1        0.0000
     46 C          68.4064   94.5542   15.4640 C.ar    1  UNL1        0.0000
@<TRIPOS>BOND
     1    31    32    1
     2    32    33   ar
     3    33    27    1
     4    27    28    2
     5    27    29   am
     6    29     1    1
     7     1     2   ar
     8     2     3   ar
     9     3     4   ar
    10     4     7    1
    11     7     8    1
    12     8     9    1
    13     9    10    1
    14    10    15    1
    15    15    16    1
    16    16    17    1
    17    17    18   ar
    18    18    19   ar
    19    19    20   ar
    20    20    21   ar
    21    21    23    1
    22    23    24    2
    23    23    25    1
    24    21    22   ar
    25    10    11    1
    26    11    12    1
    27    11    13    1
    28     4     5   ar
    29     5     6   ar
    30    33    34   ar
    31    34    35   ar
    32    35    36   ar
    33    36    37   ar
    34    37    38   ar
    35    38    41    1
    36    41    42   ar
    37    42    43   ar
    38    43    44   ar
    39    44    45   ar
    40    45    46   ar
    41    38    39   ar
    42    39    40   ar
    43    40    32   ar
    44     6     1   ar
    45    40    35   ar
    46    13     7    1
    47    46    41   ar
    48    22    17   ar
    49    29    30    1
    50    25    26    1
    51    12    14    1
@<TRIPOS>MOLECULE
*****
 46 51 0 0 0
SMALL
GASTEIGER

@<TRIPOS>ATOM
      1 C          59.5015   88.3586    7.0692 C.ar    1  UNL1        0.0702
      2 C          60.1939   88.6212    8.2563 C.ar    1  UNL1        0.0191
      3 C          59.9594   87.8494    9.3951 C.ar    1  UNL1        0.0356
      4 C          59.0081   86.8134    9.3517 C.ar    1  UNL1        0.1319
      5 N          58.3291   86.5971    8.1897 N.ar    1  UNL1       -0.2279
      6 C          58.5437   87.3333    7.0678 C.ar    1  UNL1        0.1149
      7 N          58.7421   85.9825   10.5075 N.pl3   1  UNL1       -0.2908
      8 C          59.6747   85.9592   11.6481 C.3     1  UNL1        0.0925
      9 C          59.3630   84.8104   12.6180 C.3     1  UNL1        0.0277
     10 C          59.1132   83.5033   11.8404 C.3     1  UNL1        0.0740
     11 C          57.9662   83.6500   10.7870 C.3     1  UNL1        0.1338
     12 O          58.3739   83.0995    9.5601 O.3     1  UNL1       -0.3826
     13 C          57.5550   85.1143   10.5535 C.3     1  UNL1        0.1214
     14 H          58.2975   82.1139    9.6458 H       1  UNL1        0.2104
     15 C          58.8329   82.3510   12.8266 C.3     1  UNL1        0.2078
     16 O          59.9876   81.5291   13.0046 O.3     1  UNL1       -0.4754
     17 C          60.9287   81.2150   12.0101 C.ar    1  UNL1        0.1388
     18 C          60.8176   80.0781   11.1874 C.ar    1  UNL1        0.0369
     19 C          61.7873   79.8159   10.2176 C.ar    1  UNL1        0.0033
     20 C          62.8719   80.6800   10.0541 C.ar    1  UNL1        0.0066
     21 C          62.9975   81.8224   10.8617 C.ar    1  UNL1        0.0785
     22 C          62.0163   82.0804   11.8365 C.ar    1  UNL1        0.0433
     23 C          64.1470   82.7376   10.6866 C.2     1  UNL1        0.3381
     24 O          64.0852   83.6906    9.8633 O.2     1  UNL1       -0.2451
     25 O          65.3096   82.5545   11.4309 O.3     1  UNL1       -0.4771
     26 H          66.1023   83.1753   11.3189 H       1  UNL1        0.2954
     27 C          59.4181   90.5756    5.8352 C.2     1  UNL1        0.2839
     28 O          58.6739   91.1043    6.7043 O.2     1  UNL1       -0.2665
     29 N          59.7380   89.1769    5.9106 N.am    1  UNL1       -0.2766
     30 H          60.0852   88.7059    5.0445 H       1  UNL1        0.1553
     31 C          62.2604   90.2745    4.3845 C.3     1  UNL1        0.0345
     32 C          61.1700   91.2561    4.0763 C.ar    1  UNL1        0.0202
     33 C          59.9304   91.3848    4.7130 C.ar    1  UNL1        0.1946
     34 O          59.2374   92.3641    4.1595 O.2     1  UNL1       -0.4492
     35 C          59.9639   92.8776    3.1970 C.ar    1  UNL1        0.1452
     36 C          59.6241   93.9284    2.3521 C.ar    1  UNL1        0.0375
     37 C          60.5589   94.3216    1.3789 C.ar    1  UNL1        0.0031
     38 C          61.8130   93.6627    1.2649 C.ar    1  UNL1        0.0002
     39 C          62.1197   92.5976    2.1456 C.ar    1  UNL1        0.0028
     40 C          61.1683   92.2339    3.0999 C.ar    1  UNL1        0.0337
     41 C          62.7925   94.0868    0.2326 C.ar    1  UNL1        0.0000
     42 C          62.3882   94.2778   -1.1024 C.ar    1  UNL1        0.0000
     43 C          63.3131   94.6762   -2.0725 C.ar    1  UNL1        0.0000
     44 C          64.6482   94.8890   -1.7226 C.ar    1  UNL1        0.0000
     45 C          65.0618   94.7033   -0.4016 C.ar    1  UNL1        0.0000
     46 C          64.1416   94.3041    0.5724 C.ar    1  UNL1        0.0000
@<TRIPOS>BOND
     1    31    32    1
     2    32    33   ar
     3    33    27    1
     4    27    28    2
     5    27    29   am
     6    29     1    1
     7     1     2   ar
     8     2     3   ar
     9     3     4   ar
    10     4     7    1
    11     7     8    1
    12     8     9    1
    13     9    10    1
    14    10    15    1
    15    15    16    1
    16    16    17    1
    17    17    18   ar
    18    18    19   ar
    19    19    20   ar
    20    20    21   ar
    21    21    23    1
    22    23    24    2
    23    23    25    1
    24    21    22   ar
    25    10    11    1
    26    11    12    1
    27    11    13    1
    28     4     5   ar
    29     5     6   ar
    30    33    34   ar
    31    34    35   ar
    32    35    36   ar
    33    36    37   ar
    34    37    38   ar
    35    38    41    1
    36    41    42   ar
    37    42    43   ar
    38    43    44   ar
    39    44    45   ar
    40    45    46   ar
    41    38    39   ar
    42    39    40   ar
    43    40    32   ar
    44     6     1   ar
    45    40    35   ar
    46    13     7    1
    47    46    41   ar
    48    22    17   ar
    49    29    30    1
    50    25    26    1
    51    12    14    1
@<TRIPOS>MOLECULE
*****
 46 51 0 0 0
SMALL
GASTEIGER

@<TRIPOS>ATOM
      1 C          60.4561   88.0100    8.4184 C.ar    1  UNL1        0.0702
      2 C          61.2823   86.8830    8.4887 C.ar    1  UNL1        0.0191
      3 C          61.4773   86.2262    9.7046 C.ar    1  UNL1        0.0356
      4 C          60.8524   86.7123   10.8679 C.ar    1  UNL1        0.1319
      5 N          60.0743   87.8277   10.7750 N.ar    1  UNL1       -0.2279
      6 C          59.8673   88.4811    9.6016 C.ar    1  UNL1        0.1149
      7 N          61.0199   86.0546   12.1470 N.pl3   1  UNL1       -0.2908
      8 C          62.3215   86.0723   12.8374 C.3     1  UNL1        0.0925
      9 C          62.3595   85.0832   14.0112 C.3     1  UNL1        0.0277
     10 C          61.7647   83.7253   13.5893 C.3     1  UNL1        0.0740
     11 C          60.3059   83.8614   13.0418 C.3     1  UNL1        0.1338
     12 O          60.1758   83.1319   11.8479 O.3     1  UNL1       -0.3826
     13 C          59.9055   85.3218   12.7685 C.3     1  UNL1        0.1214
     14 H          60.0927   82.1759   12.1009 H       1  UNL1        0.2104
     15 C          61.8378   82.7315   14.7666 C.3     1  UNL1        0.2078
     16 O          61.9840   81.3884   14.3025 O.3     1  UNL1       -0.4754
     17 C          61.1673   80.7600   13.3479 C.ar    1  UNL1        0.1388
     18 C          59.8543   80.3367   13.6282 C.ar    1  UNL1        0.0369
     19 C          59.0912   79.7136   12.6387 C.ar    1  UNL1        0.0033
     20 C          59.6227   79.5086   11.3638 C.ar    1  UNL1        0.0066
     21 C          60.9288   79.9287   11.0631 C.ar    1  UNL1        0.0785
     22 C          61.6917   80.5562   12.0651 C.ar    1  UNL1        0.0433
     23 C          61.4902   79.7115    9.7114 C.2     1  UNL1        0.3381
     24 O          60.9076   80.1778    8.6951 O.2     1  UNL1       -0.2451
     25 O          62.6695   78.9889    9.5489 O.3     1  UNL1       -0.4771
     26 H          63.0625   78.8344    8.6281 H       1  UNL1        0.2954
     27 C          59.8927   90.0664    7.0404 C.2     1  UNL1        0.2839
     28 O          59.4331   90.6866    8.0368 O.2     1  UNL1       -0.2665
     29 N          60.2829   88.6890    7.1626 N.am    1  UNL1       -0.2766
     30 H          60.3640   88.1229    6.2877 H       1  UNL1        0.1553
     31 C          57.4683   91.1052    5.2193 C.3     1  UNL1        0.0345
     32 C          58.9373   91.1988    4.9355 C.ar    1  UNL1        0.0202
     33 C          59.9930   90.7430    5.7333 C.ar    1  UNL1        0.1946
     34 O          61.1481   91.0070    5.1487 O.2     1  UNL1       -0.4492
     35 C          60.8960   91.6100    4.0126 C.ar    1  UNL1        0.1452
     36 C          61.8178   92.0673    3.0773 C.ar    1  UNL1        0.0375
     37 C          61.3271   92.6929    1.9183 C.ar    1  UNL1        0.0031
     38 C          59.9299   92.8515    1.7118 C.ar    1  UNL1        0.0002
     39 C          59.0252   92.3710    2.6889 C.ar    1  UNL1        0.0028
     40 C          59.5473   91.7548    3.8272 C.ar    1  UNL1        0.0337
     41 C          59.4233   93.5144    0.4833 C.ar    1  UNL1        0.0000
     42 C          58.0684   93.4039    0.1171 C.ar    1  UNL1        0.0000
     43 C          57.5945   94.0284   -1.0408 C.ar    1  UNL1        0.0000
     44 C          58.4644   94.7690   -1.8440 C.ar    1  UNL1        0.0000
     45 C          59.8107   94.8864   -1.4914 C.ar    1  UNL1        0.0000
     46 C          60.2903   94.2633   -0.3352 C.ar    1  UNL1        0.0000
@<TRIPOS>BOND
     1    31    32    1
     2    32    33   ar
     3    33    27    1
     4    27    28    2
     5    27    29   am
     6    29     1    1
     7     1     2   ar
     8     2     3   ar
     9     3     4   ar
    10     4     7    1
    11     7     8    1
    12     8     9    1
    13     9    10    1
    14    10    15    1
    15    15    16    1
    16    16    17    1
    17    17    18   ar
    18    18    19   ar
    19    19    20   ar
    20    20    21   ar
    21    21    23    1
    22    23    24    2
    23    23    25    1
    24    21    22   ar
    25    10    11    1
    26    11    12    1
    27    11    13    1
    28     4     5   ar
    29     5     6   ar
    30    33    34   ar
    31    34    35   ar
    32    35    36   ar
    33    36    37   ar
    34    37    38   ar
    35    38    41    1
    36    41    42   ar
    37    42    43   ar
    38    43    44   ar
    39    44    45   ar
    40    45    46   ar
    41    38    39   ar
    42    39    40   ar
    43    40    32   ar
    44     6     1   ar
    45    40    35   ar
    46    13     7    1
    47    46    41   ar
    48    22    17   ar
    49    29    30    1
    50    25    26    1
    51    12    14    1
