@<TRIPOS>MOLECULE
*****
 51 56 0 0 0
SMALL
GASTEIGER

@<TRIPOS>ATOM
      1 C           9.0209   76.5619   27.2565 C.2     1  UNL1        0.2483
      2 O          10.0249   75.8160   27.4199 O.2     1  UNL1       -0.2701
      3 N           8.6819   77.5366   28.2576 N.am    1  UNL1       -0.2945
      4 H           7.8985   78.2015   28.0711 H       1  UNL1        0.1501
      5 C           6.3574   75.8814   23.9507 C.ar    1  UNL1        0.0518
      6 C           6.9392   74.8080   24.6443 C.ar    1  UNL1        0.0149
      7 C           7.8328   75.0413   25.6911 C.ar    1  UNL1        0.0080
      8 C           8.1524   76.3521   26.0786 C.ar    1  UNL1        0.0808
      9 C           7.5996   77.4301   25.3632 C.ar    1  UNL1        0.1457
     10 F           7.9418   78.7109   25.6520 F       1  UNL1       -0.2040
     11 C           6.7076   77.1929   24.3128 C.ar    1  UNL1        0.0443
     12 C           5.5488   74.4651   22.0178 C.3     1  UNL1        0.2125
     13 C           4.1529   73.9285   21.6486 C.3     1  UNL1        0.1432
     14 N           3.2699   74.9913   21.1377 N.pl3   1  UNL1       -0.2875
     15 C           3.6515   76.4014   21.3003 C.3     1  UNL1        0.1137
     16 C           4.3388   76.6239   22.6508 C.3     1  UNL1        0.1144
     17 N           5.4048   75.6386   22.8937 N.pl3   1  UNL1       -0.2829
     18 C           2.0946   74.6572   20.3657 C.ar    1  UNL1        0.1318
     19 C           1.5176   75.5783   19.4742 C.ar    1  UNL1        0.0343
     20 C           0.3824   75.2176   18.7467 C.ar    1  UNL1        0.0083
     21 C          -0.1694   73.9358   18.8857 C.ar    1  UNL1        0.0906
     22 C           0.4221   73.0520   19.8007 C.ar    1  UNL1        0.1041
     23 N           1.5255   73.4262   20.5002 N.ar    1  UNL1       -0.2292
     24 C          -1.4239   73.5516   18.1433 C.3     1  UNL1        0.4200
     25 F          -1.4889   74.2037   16.9241 F       1  UNL1       -0.1658
     26 F          -1.4235   72.1866   17.9248 F       1  UNL1       -0.1658
     27 F          -2.5480   73.8909   18.8763 F       1  UNL1       -0.1658
     28 C           6.1622   73.8508   19.8536 C.3     1  UNL1        0.1761
     29 O           6.2486   74.8518   20.8453 O.3     1  UNL1       -0.3335
     30 C           9.1132   77.4000   29.6519 C.3     1  UNL1        0.1535
     31 C           9.6473   78.7204   30.1401 C.2     1  UNL1        0.2443
     32 O          10.8181   79.0722   29.8284 O.2     1  UNL1       -0.2730
     33 N           8.8572   79.5316   31.0245 N.am    1  UNL1       -0.2825
     34 H           8.0561   79.0773   31.5189 H       1  UNL1        0.1549
     35 C           9.1665   80.8962   31.3559 C.ar    1  UNL1        0.0535
     36 C           9.7226   81.7753   30.4107 C.ar    1  UNL1        0.0353
     37 C           9.9829   83.0998   30.7716 C.ar    1  UNL1        0.1002
     38 N           9.6867   83.5372   32.0239 N.ar    1  UNL1       -0.2422
     39 C           9.1316   82.7143   32.9524 C.ar    1  UNL1        0.1002
     40 C           8.8540   81.3831   32.6326 C.ar    1  UNL1        0.0353
     41 C           7.9389   76.9276   30.5306 C.3     1  UNL1        0.0569
     42 C           7.1044   75.8973   29.8228 C.ar    1  UNL1       -0.0017
     43 C           7.3191   74.5224   29.8215 C.ar    1  UNL1        0.0681
     44 N           6.4588   73.9103   28.9762 N.ar    1  UNL1       -0.3523
     45 C           5.7120   74.8871   28.4328 C.ar    1  UNL1        0.0563
     46 C           4.7200   74.7504   27.4625 C.ar    1  UNL1        0.0170
     47 C           4.0945   75.9191   26.9915 C.ar    1  UNL1        0.0015
     48 C           4.4735   77.1844   27.4911 C.ar    1  UNL1        0.0001
     49 C           5.4776   77.2924   28.4705 C.ar    1  UNL1        0.0012
     50 C           6.0771   76.1154   28.9224 C.ar    1  UNL1        0.0131
     51 H           6.4091   72.8885   28.7674 H       1  UNL1        0.1660
@<TRIPOS>BOND
     1    28    29    1
     2    29    12    1
     3    12    13    1
     4    13    14    1
     5    14    18    1
     6    18    19   ar
     7    19    20   ar
     8    20    21   ar
     9    21    24    1
    10    24    25    1
    11    24    26    1
    12    24    27    1
    13    21    22   ar
    14    22    23   ar
    15    14    15    1
    16    15    16    1
    17    16    17    1
    18    17     5    1
    19     5     6   ar
    20     6     7   ar
    21     7     8   ar
    22     8     1    1
    23     1     2    2
    24     1     3   am
    25     3    30    1
    26    30    41    1
    27    41    42    1
    28    42    43   ar
    29    43    44   ar
    30    44    45   ar
    31    45    46   ar
    32    46    47   ar
    33    47    48   ar
    34    48    49   ar
    35    49    50   ar
    36    30    31    1
    37    31    32    2
    38    31    33   am
    39    33    35    1
    40    35    36   ar
    41    36    37   ar
    42    37    38   ar
    43    38    39   ar
    44    39    40   ar
    45     8     9   ar
    46     9    10    1
    47     9    11   ar
    48    17    12    1
    49    11     5   ar
    50    23    18   ar
    51    50    42   ar
    52    40    35   ar
    53    50    45   ar
    54     3     4    1
    55    44    51    1
    56    33    34    1
@<TRIPOS>MOLECULE
*****
 51 56 0 0 0
SMALL
GASTEIGER

@<TRIPOS>ATOM
      1 C           8.9566   77.7178   26.7985 C.2     1  UNL1        0.2483
      2 O          10.1830   77.6921   26.5048 O.2     1  UNL1       -0.2701
      3 N           8.5504   77.9349   28.1605 N.am    1  UNL1       -0.2945
      4 H           7.5334   78.0358   28.3749 H       1  UNL1        0.1501
      5 C           6.1311   76.6914   23.7247 C.ar    1  UNL1        0.0518
      6 C           7.4915   76.8708   23.4267 C.ar    1  UNL1        0.0149
      7 C           8.3932   77.2420   24.4258 C.ar    1  UNL1        0.0080
      8 C           7.9584   77.4263   25.7476 C.ar    1  UNL1        0.0808
      9 C           6.5904   77.2826   26.0433 C.ar    1  UNL1        0.1457
     10 F           6.1141   77.5282   27.2898 F       1  UNL1       -0.2040
     11 C           5.6893   76.9143   25.0396 C.ar    1  UNL1        0.0443
     12 C           5.3848   74.9760   22.0228 C.3     1  UNL1        0.2125
     13 C           4.0042   74.3677   21.7123 C.3     1  UNL1        0.1432
     14 N           3.1224   75.3235   21.0202 N.pl3   1  UNL1       -0.2875
     15 C           3.4847   76.7469   20.9660 C.3     1  UNL1        0.1137
     16 C           4.1366   77.1899   22.2792 C.3     1  UNL1        0.1144
     17 N           5.2070   76.2709   22.6986 N.pl3   1  UNL1       -0.2829
     18 C           1.9698   74.8546   20.2849 C.ar    1  UNL1        0.1318
     19 C           1.2641   75.7007   19.4118 C.ar    1  UNL1        0.0343
     20 C           0.1557   75.2102   18.7197 C.ar    1  UNL1        0.0083
     21 C          -0.2413   73.8742   18.8755 C.ar    1  UNL1        0.0906
     22 C           0.4752   73.0668   19.7717 C.ar    1  UNL1        0.1041
     23 N           1.5496   73.5671   20.4368 N.ar    1  UNL1       -0.2292
     24 C          -1.4659   73.3466   18.1722 C.3     1  UNL1        0.4200
     25 F          -1.4318   71.9646   18.1029 F       1  UNL1       -0.1658
     26 F          -2.5942   73.7351   18.8700 F       1  UNL1       -0.1658
     27 F          -1.5399   73.8431   16.8824 F       1  UNL1       -0.1658
     28 C           6.2156   73.9830   20.0835 C.3     1  UNL1        0.1761
     29 O           6.1086   75.1827   20.8198 O.3     1  UNL1       -0.3335
     30 C           9.4370   77.6441   29.2911 C.3     1  UNL1        0.1535
     31 C           9.3122   78.7388   30.3171 C.2     1  UNL1        0.2443
     32 O           9.2861   78.4431   31.5434 O.2     1  UNL1       -0.2730
     33 N           9.1386   80.1013   29.8956 N.am    1  UNL1       -0.2825
     34 H           8.8370   80.2728   28.9096 H       1  UNL1        0.1549
     35 C           9.2455   81.2349   30.7738 C.ar    1  UNL1        0.0535
     36 C           8.6811   81.2246   32.0610 C.ar    1  UNL1        0.0353
     37 C           8.8324   82.3403   32.8884 C.ar    1  UNL1        0.1002
     38 N           9.5329   83.4216   32.4553 N.ar    1  UNL1       -0.2422
     39 C          10.1050   83.4520   31.2228 C.ar    1  UNL1        0.1002
     40 C           9.9789   82.3571   30.3644 C.ar    1  UNL1        0.0353
     41 C           9.0861   76.2760   29.9071 C.3     1  UNL1        0.0569
     42 C           7.5990   76.0652   29.9628 C.ar    1  UNL1       -0.0017
     43 C           6.7191   76.6395   30.8752 C.ar    1  UNL1        0.0681
     44 N           5.4764   76.1287   30.7193 N.ar    1  UNL1       -0.3523
     45 C           5.5661   75.2269   29.7265 C.ar    1  UNL1        0.0563
     46 C           4.5513   74.4037   29.2398 C.ar    1  UNL1        0.0170
     47 C           4.8776   73.4872   28.2237 C.ar    1  UNL1        0.0015
     48 C           6.1970   73.4109   27.7259 C.ar    1  UNL1        0.0001
     49 C           7.2010   74.2543   28.2355 C.ar    1  UNL1        0.0012
     50 C           6.8466   75.1570   29.2398 C.ar    1  UNL1        0.0131
     51 H           4.6284   76.3670   31.2800 H       1  UNL1        0.1660
@<TRIPOS>BOND
     1    28    29    1
     2    29    12    1
     3    12    13    1
     4    13    14    1
     5    14    18    1
     6    18    19   ar
     7    19    20   ar
     8    20    21   ar
     9    21    24    1
    10    24    25    1
    11    24    26    1
    12    24    27    1
    13    21    22   ar
    14    22    23   ar
    15    14    15    1
    16    15    16    1
    17    16    17    1
    18    17     5    1
    19     5     6   ar
    20     6     7   ar
    21     7     8   ar
    22     8     1    1
    23     1     2    2
    24     1     3   am
    25     3    30    1
    26    30    41    1
    27    41    42    1
    28    42    43   ar
    29    43    44   ar
    30    44    45   ar
    31    45    46   ar
    32    46    47   ar
    33    47    48   ar
    34    48    49   ar
    35    49    50   ar
    36    30    31    1
    37    31    32    2
    38    31    33   am
    39    33    35    1
    40    35    36   ar
    41    36    37   ar
    42    37    38   ar
    43    38    39   ar
    44    39    40   ar
    45     8     9   ar
    46     9    10    1
    47     9    11   ar
    48    17    12    1
    49    11     5   ar
    50    23    18   ar
    51    50    42   ar
    52    40    35   ar
    53    50    45   ar
    54     3     4    1
    55    44    51    1
    56    33    34    1
@<TRIPOS>MOLECULE
*****
 51 56 0 0 0
SMALL
GASTEIGER

@<TRIPOS>ATOM
      1 C           5.1477   74.3009   22.0394 C.2     1  UNL1        0.2483
      2 O           5.6761   73.2099   21.6907 O.2     1  UNL1       -0.2701
      3 N           4.1658   74.9240   21.1939 N.am    1  UNL1       -0.2945
      4 H           3.6777   75.7824   21.5336 H       1  UNL1        0.1501
      5 C           6.6904   76.2909   25.5244 C.ar    1  UNL1        0.0518
      6 C           7.2471   75.0827   25.0749 C.ar    1  UNL1        0.0149
      7 C           6.7130   74.4256   23.9650 C.ar    1  UNL1        0.0080
      8 C           5.6214   74.9694   23.2701 C.ar    1  UNL1        0.0808
      9 C           5.0382   76.1610   23.7384 C.ar    1  UNL1        0.1457
     10 F           3.9337   76.6801   23.1454 F       1  UNL1       -0.2040
     11 C           5.5733   76.8148   24.8526 C.ar    1  UNL1        0.0443
     12 C           8.5719   77.6566   26.5199 C.3     1  UNL1        0.2125
     13 C           8.5730   78.9431   27.3669 C.3     1  UNL1        0.1432
     14 N           8.1262   78.6953   28.7486 N.pl3   1  UNL1       -0.2875
     15 C           7.4770   77.4218   29.0908 C.3     1  UNL1        0.1137
     16 C           6.5747   76.9496   27.9469 C.3     1  UNL1        0.1144
     17 N           7.2674   76.9882   26.6489 N.pl3   1  UNL1       -0.2829
     18 C           8.4349   79.6405   29.7976 C.ar    1  UNL1        0.1318
     19 C           9.1046   79.2430   30.9679 C.ar    1  UNL1        0.0343
     20 C           9.3844   80.1860   31.9581 C.ar    1  UNL1        0.0083
     21 C           9.0203   81.5286   31.7798 C.ar    1  UNL1        0.0906
     22 C           8.3348   81.8825   30.6080 C.ar    1  UNL1        0.1041
     23 N           8.0708   80.9464   29.6587 N.ar    1  UNL1       -0.2292
     24 C           9.2721   82.5463   32.8629 C.3     1  UNL1        0.4200
     25 F          10.1782   83.5010   32.4347 F       1  UNL1       -0.1658
     26 F           8.0816   83.1689   33.1882 F       1  UNL1       -0.1658
     27 F           9.7868   81.9376   33.9944 F       1  UNL1       -0.1658
     28 C          10.8607   77.3693   26.8605 C.3     1  UNL1        0.1761
     29 O           9.5860   76.7733   26.9730 O.3     1  UNL1       -0.3335
     30 C           4.0924   74.6489   19.7559 C.3     1  UNL1        0.1535
     31 C           2.6785   74.8536   19.2808 C.2     1  UNL1        0.2443
     32 O           2.4257   75.7744   18.4561 O.2     1  UNL1       -0.2730
     33 N           1.6146   74.0591   19.8296 N.am    1  UNL1       -0.2825
     34 H           1.7962   73.5512   20.7249 H       1  UNL1        0.1549
     35 C           0.2849   74.0086   19.2847 C.ar    1  UNL1        0.0535
     36 C          -0.2361   72.8304   18.7228 C.ar    1  UNL1        0.0353
     37 C          -1.5429   72.8223   18.2283 C.ar    1  UNL1        0.1002
     38 N          -2.3085   73.9428   18.3038 N.ar    1  UNL1       -0.2422
     39 C          -1.8372   75.0907   18.8584 C.ar    1  UNL1        0.1002
     40 C          -0.5367   75.1415   19.3659 C.ar    1  UNL1        0.0353
     41 C           5.0647   75.5638   18.9866 C.3     1  UNL1        0.0569
     42 C           5.3683   76.8156   19.7611 C.ar    1  UNL1       -0.0017
     43 C           4.6101   77.9824   19.7712 C.ar    1  UNL1        0.0681
     44 N           5.2440   78.9520   20.4695 N.ar    1  UNL1       -0.3523
     45 C           6.4020   78.4129   20.8886 C.ar    1  UNL1        0.0563
     46 C           7.4167   79.0456   21.6057 C.ar    1  UNL1        0.0170
     47 C           8.5764   78.3049   21.8979 C.ar    1  UNL1        0.0015
     48 C           8.6972   76.9654   21.4672 C.ar    1  UNL1        0.0001
     49 C           7.6570   76.3523   20.7453 C.ar    1  UNL1        0.0012
     50 C           6.5163   77.1103   20.4744 C.ar    1  UNL1        0.0131
     51 H           4.9117   79.9299   20.6230 H       1  UNL1        0.1660
@<TRIPOS>BOND
     1    28    29    1
     2    29    12    1
     3    12    13    1
     4    13    14    1
     5    14    18    1
     6    18    19   ar
     7    19    20   ar
     8    20    21   ar
     9    21    24    1
    10    24    25    1
    11    24    26    1
    12    24    27    1
    13    21    22   ar
    14    22    23   ar
    15    14    15    1
    16    15    16    1
    17    16    17    1
    18    17     5    1
    19     5     6   ar
    20     6     7   ar
    21     7     8   ar
    22     8     1    1
    23     1     2    2
    24     1     3   am
    25     3    30    1
    26    30    41    1
    27    41    42    1
    28    42    43   ar
    29    43    44   ar
    30    44    45   ar
    31    45    46   ar
    32    46    47   ar
    33    47    48   ar
    34    48    49   ar
    35    49    50   ar
    36    30    31    1
    37    31    32    2
    38    31    33   am
    39    33    35    1
    40    35    36   ar
    41    36    37   ar
    42    37    38   ar
    43    38    39   ar
    44    39    40   ar
    45     8     9   ar
    46     9    10    1
    47     9    11   ar
    48    17    12    1
    49    11     5   ar
    50    23    18   ar
    51    50    42   ar
    52    40    35   ar
    53    50    45   ar
    54     3     4    1
    55    44    51    1
    56    33    34    1
@<TRIPOS>MOLECULE
*****
 51 56 0 0 0
SMALL
GASTEIGER

@<TRIPOS>ATOM
      1 C           5.5082   74.3152   21.9061 C.2     1  UNL1        0.2483
      2 O           6.0846   73.3342   21.3617 O.2     1  UNL1       -0.2701
      3 N           4.2666   74.8042   21.3708 N.am    1  UNL1       -0.2945
      4 H           3.7603   75.5624   21.8799 H       1  UNL1        0.1501
      5 C           7.2761   76.4268   25.2078 C.ar    1  UNL1        0.0518
      6 C           6.9734   77.0863   24.0056 C.ar    1  UNL1        0.0149
      7 C           6.4355   76.3822   22.9268 C.ar    1  UNL1        0.0080
      8 C           6.1731   75.0072   23.0308 C.ar    1  UNL1        0.0808
      9 C           6.5082   74.3357   24.2210 C.ar    1  UNL1        0.1457
     10 F           6.3453   72.9937   24.3373 F       1  UNL1       -0.2040
     11 C           7.0502   75.0432   25.2984 C.ar    1  UNL1        0.0443
     12 C           8.8880   78.1330   26.1495 C.3     1  UNL1        0.2125
     13 C           8.6846   79.3208   27.1089 C.3     1  UNL1        0.1432
     14 N           8.4639   78.8785   28.4966 N.pl3   1  UNL1       -0.2875
     15 C           8.1700   77.4659   28.7769 C.3     1  UNL1        0.1137
     16 C           7.2805   76.8704   27.6815 C.3     1  UNL1        0.1144
     17 N           7.7969   77.1634   26.3348 N.pl3   1  UNL1       -0.2829
     18 C           8.6594   79.7958   29.5963 C.ar    1  UNL1        0.1318
     19 C           8.0006   79.6171   30.8253 C.ar    1  UNL1        0.0343
     20 C           8.2158   80.5252   31.8631 C.ar    1  UNL1        0.0083
     21 C           9.1011   81.5992   31.6914 C.ar    1  UNL1        0.0906
     22 C           9.7233   81.7562   30.4438 C.ar    1  UNL1        0.1041
     23 N           9.4965   80.8609   29.4469 N.ar    1  UNL1       -0.2292
     24 C           9.3035   82.6145   32.7872 C.3     1  UNL1        0.4200
     25 F           9.8561   82.0195   33.9081 F       1  UNL1       -0.1658
     26 F          10.1551   83.6061   32.3372 F       1  UNL1       -0.1658
     27 F           8.0970   83.1868   33.1512 F       1  UNL1       -0.1658
     28 C          11.1914   78.1592   25.7875 C.3     1  UNL1        0.1761
     29 O          10.1232   77.4904   26.4237 O.3     1  UNL1       -0.3335
     30 C           3.8763   74.5708   19.9773 C.3     1  UNL1        0.1535
     31 C           2.4410   74.1188   19.9306 C.2     1  UNL1        0.2443
     32 O           1.9939   73.3699   20.8423 O.2     1  UNL1       -0.2730
     33 N           1.6137   74.4703   18.8097 N.am    1  UNL1       -0.2825
     34 H           2.0870   74.7969   17.9368 H       1  UNL1        0.1549
     35 C           0.1869   74.2955   18.7769 C.ar    1  UNL1        0.0535
     36 C          -0.6879   75.2931   19.2406 C.ar    1  UNL1        0.0353
     37 C          -2.0680   75.0885   19.1654 C.ar    1  UNL1        0.1002
     38 N          -2.5597   73.9381   18.6341 N.ar    1  UNL1       -0.2422
     39 C          -1.7379   72.9643   18.1612 C.ar    1  UNL1        0.1002
     40 C          -0.3518   73.1291   18.2162 C.ar    1  UNL1        0.0353
     41 C           4.0722   75.8532   19.1457 C.3     1  UNL1        0.0569
     42 C           4.0761   77.0770   20.0181 C.ar    1  UNL1       -0.0017
     43 C           5.1714   77.8910   20.2907 C.ar    1  UNL1        0.0681
     44 N           4.8491   78.8229   21.2164 N.ar    1  UNL1       -0.3523
     45 C           3.5645   78.5965   21.5414 C.ar    1  UNL1        0.0563
     46 C           2.8033   79.2723   22.4944 C.ar    1  UNL1        0.0170
     47 C           1.4845   78.8347   22.7144 C.ar    1  UNL1        0.0015
     48 C           0.9634   77.7407   21.9893 C.ar    1  UNL1        0.0001
     49 C           1.7543   77.0776   21.0333 C.ar    1  UNL1        0.0012
     50 C           3.0573   77.5371   20.8330 C.ar    1  UNL1        0.0131
     51 H           5.4822   79.5498   21.6176 H       1  UNL1        0.1660
@<TRIPOS>BOND
     1    28    29    1
     2    29    12    1
     3    12    13    1
     4    13    14    1
     5    14    18    1
     6    18    19   ar
     7    19    20   ar
     8    20    21   ar
     9    21    24    1
    10    24    25    1
    11    24    26    1
    12    24    27    1
    13    21    22   ar
    14    22    23   ar
    15    14    15    1
    16    15    16    1
    17    16    17    1
    18    17     5    1
    19     5     6   ar
    20     6     7   ar
    21     7     8   ar
    22     8     1    1
    23     1     2    2
    24     1     3   am
    25     3    30    1
    26    30    41    1
    27    41    42    1
    28    42    43   ar
    29    43    44   ar
    30    44    45   ar
    31    45    46   ar
    32    46    47   ar
    33    47    48   ar
    34    48    49   ar
    35    49    50   ar
    36    30    31    1
    37    31    32    2
    38    31    33   am
    39    33    35    1
    40    35    36   ar
    41    36    37   ar
    42    37    38   ar
    43    38    39   ar
    44    39    40   ar
    45     8     9   ar
    46     9    10    1
    47     9    11   ar
    48    17    12    1
    49    11     5   ar
    50    23    18   ar
    51    50    42   ar
    52    40    35   ar
    53    50    45   ar
    54     3     4    1
    55    44    51    1
    56    33    34    1
@<TRIPOS>MOLECULE
*****
 51 56 0 0 0
SMALL
GASTEIGER

@<TRIPOS>ATOM
      1 C          13.6662   81.9821   24.3899 C.2     1  UNL1        0.2483
      2 O          14.8720   81.6851   24.6112 O.2     1  UNL1       -0.2701
      3 N          13.3391   83.2404   23.7760 N.am    1  UNL1       -0.2945
      4 H          12.3449   83.4368   23.5242 H       1  UNL1        0.1501
      5 C          10.4746   79.3594   25.5820 C.ar    1  UNL1        0.0518
      6 C          10.2860   80.7497   25.5251 C.ar    1  UNL1        0.0149
      7 C          11.3405   81.5944   25.1742 C.ar    1  UNL1        0.0080
      8 C          12.6023   81.0677   24.8567 C.ar    1  UNL1        0.0808
      9 C          12.8053   79.6784   24.9473 C.ar    1  UNL1        0.1457
     10 F          14.0282   79.1337   24.7264 F       1  UNL1       -0.2040
     11 C          11.7478   78.8353   25.3025 C.ar    1  UNL1        0.0443
     12 C           9.0608   77.3310   25.0502 C.3     1  UNL1        0.2125
     13 C           8.5672   76.1629   25.9245 C.3     1  UNL1        0.1432
     14 N           7.4910   76.5757   26.8418 N.pl3   1  UNL1       -0.2875
     15 C           7.2158   78.0042   27.0518 C.3     1  UNL1        0.1137
     16 C           8.5177   78.8108   27.0603 C.3     1  UNL1        0.1144
     17 N           9.3735   78.4848   25.9081 N.pl3   1  UNL1       -0.2829
     18 C           6.6203   75.5886   27.4389 C.ar    1  UNL1        0.1318
     19 C           6.6152   74.2538   26.9978 C.ar    1  UNL1        0.0343
     20 C           5.7593   73.3303   27.6001 C.ar    1  UNL1        0.0083
     21 C           4.9233   73.7237   28.6551 C.ar    1  UNL1        0.0906
     22 C           4.9416   75.0690   29.0529 C.ar    1  UNL1        0.1041
     23 N           5.7815   75.9510   28.4500 N.ar    1  UNL1       -0.2292
     24 C           3.9590   72.7479   29.2800 C.3     1  UNL1        0.4200
     25 F           4.2445   71.4544   28.8785 F       1  UNL1       -0.1658
     26 F           4.0610   72.8254   30.6564 F       1  UNL1       -0.1658
     27 F           2.6586   73.0401   28.9067 F       1  UNL1       -0.1658
     28 C           8.5464   77.6809   22.8029 C.3     1  UNL1        0.1761
     29 O           8.0527   77.7079   24.1252 O.3     1  UNL1       -0.3335
     30 C          14.2444   84.3918   23.8352 C.3     1  UNL1        0.1535
     31 C          14.6589   84.7723   22.4387 C.2     1  UNL1        0.2443
     32 O          15.7890   84.4157   22.0055 O.2     1  UNL1       -0.2730
     33 N          13.8062   85.6077   21.6392 N.am    1  UNL1       -0.2825
     34 H          13.0556   86.1478   22.1266 H       1  UNL1        0.1549
     35 C          13.9912   85.8324   20.2311 C.ar    1  UNL1        0.0535
     36 C          14.2794   84.7769   19.3489 C.ar    1  UNL1        0.0353
     37 C          14.4261   85.0401   17.9845 C.ar    1  UNL1        0.1002
     38 N          14.2766   86.3063   17.5134 N.ar    1  UNL1       -0.2422
     39 C          13.9797   87.3430   18.3406 C.ar    1  UNL1        0.1002
     40 C          13.8234   87.1234   19.7113 C.ar    1  UNL1        0.0353
     41 C          13.5573   85.5759   24.5424 C.3     1  UNL1        0.0569
     42 C          14.5509   86.6355   24.9281 C.ar    1  UNL1       -0.0017
     43 C          15.5898   87.1176   24.1377 C.ar    1  UNL1        0.0681
     44 N          16.3672   87.9682   24.8460 N.ar    1  UNL1       -0.3523
     45 C          15.8373   88.0170   26.0805 C.ar    1  UNL1        0.0563
     46 C          16.3230   88.7236   27.1801 C.ar    1  UNL1        0.0170
     47 C          15.6384   88.5917   28.4019 C.ar    1  UNL1        0.0015
     48 C          14.4996   87.7620   28.4979 C.ar    1  UNL1        0.0001
     49 C          14.0315   87.0610   27.3716 C.ar    1  UNL1        0.0012
     50 C          14.7282   87.2151   26.1716 C.ar    1  UNL1        0.0131
     51 H          17.2232   88.4609   24.5074 H       1  UNL1        0.1660
@<TRIPOS>BOND
     1    28    29    1
     2    29    12    1
     3    12    13    1
     4    13    14    1
     5    14    18    1
     6    18    19   ar
     7    19    20   ar
     8    20    21   ar
     9    21    24    1
    10    24    25    1
    11    24    26    1
    12    24    27    1
    13    21    22   ar
    14    22    23   ar
    15    14    15    1
    16    15    16    1
    17    16    17    1
    18    17     5    1
    19     5     6   ar
    20     6     7   ar
    21     7     8   ar
    22     8     1    1
    23     1     2    2
    24     1     3   am
    25     3    30    1
    26    30    41    1
    27    41    42    1
    28    42    43   ar
    29    43    44   ar
    30    44    45   ar
    31    45    46   ar
    32    46    47   ar
    33    47    48   ar
    34    48    49   ar
    35    49    50   ar
    36    30    31    1
    37    31    32    2
    38    31    33   am
    39    33    35    1
    40    35    36   ar
    41    36    37   ar
    42    37    38   ar
    43    38    39   ar
    44    39    40   ar
    45     8     9   ar
    46     9    10    1
    47     9    11   ar
    48    17    12    1
    49    11     5   ar
    50    23    18   ar
    51    50    42   ar
    52    40    35   ar
    53    50    45   ar
    54     3     4    1
    55    44    51    1
    56    33    34    1
@<TRIPOS>MOLECULE
*****
 51 56 0 0 0
SMALL
GASTEIGER

@<TRIPOS>ATOM
      1 C           6.7735   74.3290   22.2385 C.2     1  UNL1        0.2483
      2 O           7.4719   74.2677   21.1900 O.2     1  UNL1       -0.2701
      3 N           5.4333   73.8083   22.2383 N.am    1  UNL1       -0.2945
      4 H           4.8973   73.7912   23.1343 H       1  UNL1        0.1501
      5 C           8.2120   76.4920   25.6646 C.ar    1  UNL1        0.0518
      6 C           8.3726   77.0026   24.3664 C.ar    1  UNL1        0.0149
      7 C           7.9363   76.2735   23.2588 C.ar    1  UNL1        0.0080
      8 C           7.3153   75.0256   23.4247 C.ar    1  UNL1        0.0808
      9 C           7.1849   74.4943   24.7209 C.ar    1  UNL1        0.1457
     10 F           6.6630   73.2579   24.9215 F       1  UNL1       -0.2040
     11 C           7.6262   75.2256   25.8280 C.ar    1  UNL1        0.0443
     12 C           9.6335   78.3294   26.6642 C.3     1  UNL1        0.2125
     13 C           9.2943   79.4866   27.6227 C.3     1  UNL1        0.1432
     14 N           9.0723   79.0155   29.0007 N.pl3   1  UNL1       -0.2875
     15 C           8.8990   77.5800   29.2647 C.3     1  UNL1        0.1137
     16 C           8.1008   76.9151   28.1394 C.3     1  UNL1        0.1144
     17 N           8.6293   77.2639   26.8107 N.pl3   1  UNL1       -0.2829
     18 C           9.1504   79.9383   30.1104 C.ar    1  UNL1        0.1318
     19 C           9.0520   79.4943   31.4405 C.ar    1  UNL1        0.0343
     20 C           9.1321   80.4170   32.4847 C.ar    1  UNL1        0.0083
     21 C           9.3317   81.7781   32.2125 C.ar    1  UNL1        0.0906
     22 C           9.4038   82.1853   30.8718 C.ar    1  UNL1        0.1041
     23 N           9.3205   81.2692   29.8715 N.ar    1  UNL1       -0.2292
     24 C           9.3698   82.7904   33.3289 C.3     1  UNL1        0.4200
     25 F          10.2490   83.8162   33.0280 F       1  UNL1       -0.1658
     26 F           8.1050   83.3187   33.5075 F       1  UNL1       -0.1658
     27 F           9.7827   82.1988   34.5102 F       1  UNL1       -0.1658
     28 C          11.7784   77.8900   25.8620 C.3     1  UNL1        0.1761
     29 O          10.9128   77.7988   26.9735 O.3     1  UNL1       -0.3335
     30 C           4.6580   73.6604   21.0031 C.3     1  UNL1        0.1535
     31 C           3.4458   74.5512   21.0656 C.2     1  UNL1        0.2443
     32 O           2.3206   74.0970   20.7200 O.2     1  UNL1       -0.2730
     33 N           3.5882   75.9322   21.4355 N.am    1  UNL1       -0.2825
     34 H           4.5440   76.3531   21.3928 H       1  UNL1        0.1549
     35 C           2.4847   76.7979   21.7523 C.ar    1  UNL1        0.0535
     36 C           1.4200   76.9917   20.8553 C.ar    1  UNL1        0.0353
     37 C           0.3570   77.8230   21.2174 C.ar    1  UNL1        0.1002
     38 N           0.3470   78.4279   22.4345 N.ar    1  UNL1       -0.2422
     39 C           1.3538   78.2441   23.3289 C.ar    1  UNL1        0.1002
     40 C           2.4350   77.4200   23.0074 C.ar    1  UNL1        0.0353
     41 C           5.5289   74.0087   19.7806 C.3     1  UNL1        0.0569
     42 C           5.0284   75.2433   19.0849 C.ar    1  UNL1       -0.0017
     43 C           4.1161   75.2848   18.0349 C.ar    1  UNL1        0.0681
     44 N           3.9937   76.5470   17.5645 N.ar    1  UNL1       -0.3523
     45 C           4.8307   77.3008   18.2982 C.ar    1  UNL1        0.0563
     46 C           5.0893   78.6630   18.1500 C.ar    1  UNL1        0.0170
     47 C           6.0486   79.2468   18.9973 C.ar    1  UNL1        0.0015
     48 C           6.7243   78.4642   19.9593 C.ar    1  UNL1        0.0001
     49 C           6.4429   77.0918   20.0868 C.ar    1  UNL1        0.0012
     50 C           5.4828   76.5412   19.2359 C.ar    1  UNL1        0.0131
     51 H           3.3927   76.8623   16.7710 H       1  UNL1        0.1660
@<TRIPOS>BOND
     1    28    29    1
     2    29    12    1
     3    12    13    1
     4    13    14    1
     5    14    18    1
     6    18    19   ar
     7    19    20   ar
     8    20    21   ar
     9    21    24    1
    10    24    25    1
    11    24    26    1
    12    24    27    1
    13    21    22   ar
    14    22    23   ar
    15    14    15    1
    16    15    16    1
    17    16    17    1
    18    17     5    1
    19     5     6   ar
    20     6     7   ar
    21     7     8   ar
    22     8     1    1
    23     1     2    2
    24     1     3   am
    25     3    30    1
    26    30    41    1
    27    41    42    1
    28    42    43   ar
    29    43    44   ar
    30    44    45   ar
    31    45    46   ar
    32    46    47   ar
    33    47    48   ar
    34    48    49   ar
    35    49    50   ar
    36    30    31    1
    37    31    32    2
    38    31    33   am
    39    33    35    1
    40    35    36   ar
    41    36    37   ar
    42    37    38   ar
    43    38    39   ar
    44    39    40   ar
    45     8     9   ar
    46     9    10    1
    47     9    11   ar
    48    17    12    1
    49    11     5   ar
    50    23    18   ar
    51    50    42   ar
    52    40    35   ar
    53    50    45   ar
    54     3     4    1
    55    44    51    1
    56    33    34    1
@<TRIPOS>MOLECULE
*****
 51 56 0 0 0
SMALL
GASTEIGER

@<TRIPOS>ATOM
      1 C          11.5904   77.1314   23.0297 C.2     1  UNL1        0.2483
      2 O          12.5521   76.5047   22.5069 O.2     1  UNL1       -0.2701
      3 N          11.8428   78.0998   24.0620 N.am    1  UNL1       -0.2945
      4 H          11.0469   78.6690   24.4268 H       1  UNL1        0.1501
      5 C           7.5748   75.9789   22.0136 C.ar    1  UNL1        0.0518
      6 C           8.6710   75.1803   21.6498 C.ar    1  UNL1        0.0149
      7 C           9.9730   75.5839   21.9510 C.ar    1  UNL1        0.0080
      8 C          10.2076   76.7861   22.6366 C.ar    1  UNL1        0.0808
      9 C           9.1145   77.6064   22.9712 C.ar    1  UNL1        0.1457
     10 F           9.3002   78.8130   23.5632 F       1  UNL1       -0.2040
     11 C           7.8119   77.2009   22.6648 C.ar    1  UNL1        0.0443
     12 C           5.0824   76.2066   22.3769 C.3     1  UNL1        0.2125
     13 C           3.8987   76.2498   21.3921 C.3     1  UNL1        0.1432
     14 N           3.6144   74.9261   20.8116 N.pl3   1  UNL1       -0.2875
     15 C           4.5881   73.8356   20.9635 C.3     1  UNL1        0.1137
     16 C           6.0198   74.3710   20.8679 C.3     1  UNL1        0.1144
     17 N           6.2275   75.5420   21.7350 N.pl3   1  UNL1       -0.2829
     18 C           2.3312   74.6541   20.2046 C.ar    1  UNL1        0.1318
     19 C           1.6730   75.6174   19.4203 C.ar    1  UNL1        0.0343
     20 C           0.4346   75.3163   18.8512 C.ar    1  UNL1        0.0083
     21 C          -0.1426   74.0523   19.0406 C.ar    1  UNL1        0.0906
     22 C           0.5347   73.1252   19.8468 C.ar    1  UNL1        0.1041
     23 N           1.7383   73.4416   20.3929 N.ar    1  UNL1       -0.2292
     24 C          -1.5020   73.7324   18.4730 C.3     1  UNL1        0.4200
     25 F          -1.6088   72.3810   18.1937 F       1  UNL1       -0.1658
     26 F          -2.4729   74.0805   19.3933 F       1  UNL1       -0.1658
     27 F          -1.7190   74.4354   17.3005 F       1  UNL1       -0.1658
     28 C           4.6411   76.3290   24.6633 C.3     1  UNL1        0.1761
     29 O           4.7228   75.4776   23.5402 O.3     1  UNL1       -0.3335
     30 C          13.0569   78.0617   24.8824 C.3     1  UNL1        0.1535
     31 C          13.6322   79.4492   24.9862 C.2     1  UNL1        0.2443
     32 O          14.8492   79.6409   24.7137 O.2     1  UNL1       -0.2730
     33 N          12.8194   80.5288   25.4741 N.am    1  UNL1       -0.2825
     34 H          11.9449   80.2859   25.9927 H       1  UNL1        0.1549
     35 C          13.1895   81.9157   25.3907 C.ar    1  UNL1        0.0535
     36 C          12.9509   82.6728   24.2308 C.ar    1  UNL1        0.0353
     37 C          13.3051   84.0242   24.2053 C.ar    1  UNL1        0.1002
     38 N          13.8635   84.6045   25.3003 N.ar    1  UNL1       -0.2422
     39 C          14.0889   83.9014   26.4414 C.ar    1  UNL1        0.1002
     40 C          13.7484   82.5483   26.5098 C.ar    1  UNL1        0.0353
     41 C          12.7397   77.4964   26.2803 C.3     1  UNL1        0.0569
     42 C          11.3399   76.9532   26.3472 C.ar    1  UNL1       -0.0017
     43 C          10.9382   75.6665   26.0018 C.ar    1  UNL1        0.0681
     44 N           9.5908   75.5610   26.0573 N.ar    1  UNL1       -0.3523
     45 C           9.1369   76.7729   26.4209 C.ar    1  UNL1        0.0563
     46 C           7.8074   77.1688   26.5619 C.ar    1  UNL1        0.0170
     47 C           7.5524   78.5097   26.9023 C.ar    1  UNL1        0.0015
     48 C           8.6194   79.4162   27.0870 C.ar    1  UNL1        0.0001
     49 C           9.9515   78.9889   26.9385 C.ar    1  UNL1        0.0012
     50 C          10.1740   77.6515   26.6053 C.ar    1  UNL1        0.0131
     51 H           9.0208   74.7157   25.8321 H       1  UNL1        0.1660
@<TRIPOS>BOND
     1    28    29    1
     2    29    12    1
     3    12    13    1
     4    13    14    1
     5    14    18    1
     6    18    19   ar
     7    19    20   ar
     8    20    21   ar
     9    21    24    1
    10    24    25    1
    11    24    26    1
    12    24    27    1
    13    21    22   ar
    14    22    23   ar
    15    14    15    1
    16    15    16    1
    17    16    17    1
    18    17     5    1
    19     5     6   ar
    20     6     7   ar
    21     7     8   ar
    22     8     1    1
    23     1     2    2
    24     1     3   am
    25     3    30    1
    26    30    41    1
    27    41    42    1
    28    42    43   ar
    29    43    44   ar
    30    44    45   ar
    31    45    46   ar
    32    46    47   ar
    33    47    48   ar
    34    48    49   ar
    35    49    50   ar
    36    30    31    1
    37    31    32    2
    38    31    33   am
    39    33    35    1
    40    35    36   ar
    41    36    37   ar
    42    37    38   ar
    43    38    39   ar
    44    39    40   ar
    45     8     9   ar
    46     9    10    1
    47     9    11   ar
    48    17    12    1
    49    11     5   ar
    50    23    18   ar
    51    50    42   ar
    52    40    35   ar
    53    50    45   ar
    54     3     4    1
    55    44    51    1
    56    33    34    1
@<TRIPOS>MOLECULE
*****
 51 56 0 0 0
SMALL
GASTEIGER

@<TRIPOS>ATOM
      1 C           8.9971   76.8273   22.3525 C.2     1  UNL1        0.2483
      2 O           8.7358   76.9177   21.1218 O.2     1  UNL1       -0.2701
      3 N           8.3843   75.7930   23.1411 N.am    1  UNL1       -0.2945
      4 H           8.6728   75.6795   24.1382 H       1  UNL1        0.1501
      5 C          11.3528   79.8463   24.3076 C.ar    1  UNL1        0.0518
      6 C          10.2517   80.1925   23.5078 C.ar    1  UNL1        0.0149
      7 C           9.5177   79.2061   22.8466 C.ar    1  UNL1        0.0080
      8 C           9.8576   77.8511   22.9828 C.ar    1  UNL1        0.0808
      9 C          10.9816   77.5027   23.7541 C.ar    1  UNL1        0.1457
     10 F          11.3932   76.2133   23.8490 F       1  UNL1       -0.2040
     11 C          11.7168   78.4934   24.4122 C.ar    1  UNL1        0.0443
     12 C          13.4828   81.1626   24.6626 C.3     1  UNL1        0.2125
     13 C          13.7435   82.6708   24.8363 C.3     1  UNL1        0.1432
     14 N          13.3150   83.1566   26.1593 N.pl3   1  UNL1       -0.2875
     15 C          12.4660   82.3107   27.0102 C.3     1  UNL1        0.1137
     16 C          11.4503   81.5379   26.1636 C.3     1  UNL1        0.1144
     17 N          12.0873   80.8639   25.0207 N.pl3   1  UNL1       -0.2829
     18 C          13.8262   84.4038   26.6811 C.ar    1  UNL1        0.1318
     19 C          14.1382   84.5549   28.0434 C.ar    1  UNL1        0.0343
     20 C          14.6296   85.7757   28.5085 C.ar    1  UNL1        0.0083
     21 C          14.8331   86.8413   27.6199 C.ar    1  UNL1        0.0906
     22 C          14.4900   86.6588   26.2718 C.ar    1  UNL1        0.1041
     23 N          14.0106   85.4620   25.8422 N.ar    1  UNL1       -0.2292
     24 C          15.3158   88.1797   28.1183 C.3     1  UNL1        0.4200
     25 F          14.5768   89.2058   27.5554 F       1  UNL1       -0.1658
     26 F          15.1809   88.2289   29.4932 F       1  UNL1       -0.1658
     27 F          16.6460   88.3725   27.7882 F       1  UNL1       -0.1658
     28 C          15.1577   79.5432   24.7601 C.3     1  UNL1        0.1761
     29 O          14.3429   80.4179   25.5109 O.3     1  UNL1       -0.3335
     30 C           7.1273   75.1535   22.7413 C.3     1  UNL1        0.1535
     31 C           5.9826   76.0945   23.0073 C.2     1  UNL1        0.2443
     32 O           6.1185   77.3251   22.7642 O.2     1  UNL1       -0.2730
     33 N           4.7758   75.6038   23.6132 N.am    1  UNL1       -0.2825
     34 H           4.8136   74.6777   24.0964 H       1  UNL1        0.1549
     35 C           3.5524   76.3551   23.6924 C.ar    1  UNL1        0.0535
     36 C           3.0385   76.7973   24.9236 C.ar    1  UNL1        0.0353
     37 C           1.8592   77.5461   24.9488 C.ar    1  UNL1        0.1002
     38 N           1.2222   77.8561   23.7888 N.ar    1  UNL1       -0.2422
     39 C           1.7060   77.4577   22.5828 C.ar    1  UNL1        0.1002
     40 C           2.8829   76.7083   22.5126 C.ar    1  UNL1        0.0353
     41 C           7.1772   74.7619   21.2518 C.3     1  UNL1        0.0569
     42 C           5.7964   74.6283   20.6735 C.ar    1  UNL1       -0.0017
     43 C           4.9916   73.4939   20.7160 C.ar    1  UNL1        0.0681
     44 N           3.8699   73.6824   19.9840 N.ar    1  UNL1       -0.3523
     45 C           3.9653   74.9201   19.4681 C.ar    1  UNL1        0.0563
     46 C           3.0687   75.5448   18.6020 C.ar    1  UNL1        0.0170
     47 C           3.3910   76.8331   18.1379 C.ar    1  UNL1        0.0015
     48 C           4.5911   77.4591   18.5407 C.ar    1  UNL1        0.0001
     49 C           5.4773   76.8050   19.4159 C.ar    1  UNL1        0.0012
     50 C           5.1286   75.5295   19.8639 C.ar    1  UNL1        0.0131
     51 H           3.1024   72.9918   19.8283 H       1  UNL1        0.1660
@<TRIPOS>BOND
     1    28    29    1
     2    29    12    1
     3    12    13    1
     4    13    14    1
     5    14    18    1
     6    18    19   ar
     7    19    20   ar
     8    20    21   ar
     9    21    24    1
    10    24    25    1
    11    24    26    1
    12    24    27    1
    13    21    22   ar
    14    22    23   ar
    15    14    15    1
    16    15    16    1
    17    16    17    1
    18    17     5    1
    19     5     6   ar
    20     6     7   ar
    21     7     8   ar
    22     8     1    1
    23     1     2    2
    24     1     3   am
    25     3    30    1
    26    30    41    1
    27    41    42    1
    28    42    43   ar
    29    43    44   ar
    30    44    45   ar
    31    45    46   ar
    32    46    47   ar
    33    47    48   ar
    34    48    49   ar
    35    49    50   ar
    36    30    31    1
    37    31    32    2
    38    31    33   am
    39    33    35    1
    40    35    36   ar
    41    36    37   ar
    42    37    38   ar
    43    38    39   ar
    44    39    40   ar
    45     8     9   ar
    46     9    10    1
    47     9    11   ar
    48    17    12    1
    49    11     5   ar
    50    23    18   ar
    51    50    42   ar
    52    40    35   ar
    53    50    45   ar
    54     3     4    1
    55    44    51    1
    56    33    34    1
@<TRIPOS>MOLECULE
*****
 51 56 0 0 0
SMALL
GASTEIGER

@<TRIPOS>ATOM
      1 C           9.7952   78.8406   24.4894 C.2     1  UNL1        0.2483
      2 O          10.7673   79.4502   23.9654 O.2     1  UNL1       -0.2701
      3 N           9.7259   78.6969   25.9183 N.am    1  UNL1       -0.2945
      4 H           8.8758   78.2630   26.3421 H       1  UNL1        0.1501
      5 C           6.7356   77.0469   22.0589 C.ar    1  UNL1        0.0518
      6 C           7.0017   76.5735   23.3539 C.ar    1  UNL1        0.0149
      7 C           8.0235   77.1383   24.1192 C.ar    1  UNL1        0.0080
      8 C           8.7914   78.1991   23.6139 C.ar    1  UNL1        0.0808
      9 C           8.5519   78.6525   22.3036 C.ar    1  UNL1        0.1457
     10 F           9.3213   79.6213   21.7465 F       1  UNL1       -0.2040
     11 C           7.5299   78.0823   21.5384 C.ar    1  UNL1        0.0443
     12 C           5.4941   75.0287   21.1750 C.3     1  UNL1        0.2125
     13 C           3.9941   74.6810   21.1318 C.3     1  UNL1        0.1432
     14 N           3.2729   75.4710   20.1189 N.pl3   1  UNL1       -0.2875
     15 C           3.9191   76.6401   19.5057 C.3     1  UNL1        0.1137
     16 C           4.7666   77.3925   20.5359 C.3     1  UNL1        0.1144
     17 N           5.6542   76.4873   21.2836 N.pl3   1  UNL1       -0.2829
     18 C           1.9854   75.0324   19.6300 C.ar    1  UNL1        0.1318
     19 C           1.0990   75.9230   18.9999 C.ar    1  UNL1        0.0343
     20 C          -0.1357   75.4607   18.5416 C.ar    1  UNL1        0.0083
     21 C          -0.4840   74.1101   18.6877 C.ar    1  UNL1        0.0906
     22 C           0.4181   73.2567   19.3406 C.ar    1  UNL1        0.1041
     23 N           1.6135   73.7300   19.7810 N.ar    1  UNL1       -0.2292
     24 C          -1.8343   73.6094   18.2421 C.3     1  UNL1        0.4200
     25 F          -1.8624   72.2256   18.2303 F       1  UNL1       -0.1658
     26 F          -2.8018   74.0724   19.1141 F       1  UNL1       -0.1658
     27 F          -2.1247   74.0592   16.9657 F       1  UNL1       -0.1658
     28 C           6.0963   73.1770   19.8922 C.3     1  UNL1        0.1761
     29 O           6.1322   74.5850   19.9877 O.3     1  UNL1       -0.3335
     30 C          10.9200   78.7719   26.7651 C.3     1  UNL1        0.1535
     31 C          10.5060   79.0349   28.1886 C.2     1  UNL1        0.2443
     32 O          10.6830   78.1433   29.0636 O.2     1  UNL1       -0.2730
     33 N           9.8369   80.2605   28.5268 N.am    1  UNL1       -0.2825
     34 H           9.4162   80.8179   27.7491 H       1  UNL1        0.1549
     35 C           9.6141   80.7099   29.8744 C.ar    1  UNL1        0.0535
     36 C           9.7314   82.0654   30.2272 C.ar    1  UNL1        0.0353
     37 C           9.4808   82.4585   31.5443 C.ar    1  UNL1        0.1002
     38 N           9.1123   81.5375   32.4735 N.ar    1  UNL1       -0.2422
     39 C           8.9731   80.2231   32.1565 C.ar    1  UNL1        0.1002
     40 C           9.2129   79.7878   30.8509 C.ar    1  UNL1        0.0353
     41 C          11.7292   77.4644   26.6647 C.3     1  UNL1        0.0569
     42 C          12.4351   77.3568   25.3421 C.ar    1  UNL1       -0.0017
     43 C          12.0938   76.5091   24.2927 C.ar    1  UNL1        0.0681
     44 N          13.0197   76.5778   23.3092 N.ar    1  UNL1       -0.3523
     45 C          13.9500   77.4505   23.7336 C.ar    1  UNL1        0.0563
     46 C          15.1282   77.8119   23.0813 C.ar    1  UNL1        0.0170
     47 C          15.9927   78.7099   23.7333 C.ar    1  UNL1        0.0015
     48 C          15.6669   79.2168   25.0105 C.ar    1  UNL1        0.0001
     49 C          14.4709   78.8350   25.6451 C.ar    1  UNL1        0.0012
     50 C          13.6304   77.9465   24.9719 C.ar    1  UNL1        0.0131
     51 H          13.0234   76.0371   22.4160 H       1  UNL1        0.1660
@<TRIPOS>BOND
     1    28    29    1
     2    29    12    1
     3    12    13    1
     4    13    14    1
     5    14    18    1
     6    18    19   ar
     7    19    20   ar
     8    20    21   ar
     9    21    24    1
    10    24    25    1
    11    24    26    1
    12    24    27    1
    13    21    22   ar
    14    22    23   ar
    15    14    15    1
    16    15    16    1
    17    16    17    1
    18    17     5    1
    19     5     6   ar
    20     6     7   ar
    21     7     8   ar
    22     8     1    1
    23     1     2    2
    24     1     3   am
    25     3    30    1
    26    30    41    1
    27    41    42    1
    28    42    43   ar
    29    43    44   ar
    30    44    45   ar
    31    45    46   ar
    32    46    47   ar
    33    47    48   ar
    34    48    49   ar
    35    49    50   ar
    36    30    31    1
    37    31    32    2
    38    31    33   am
    39    33    35    1
    40    35    36   ar
    41    36    37   ar
    42    37    38   ar
    43    38    39   ar
    44    39    40   ar
    45     8     9   ar
    46     9    10    1
    47     9    11   ar
    48    17    12    1
    49    11     5   ar
    50    23    18   ar
    51    50    42   ar
    52    40    35   ar
    53    50    45   ar
    54     3     4    1
    55    44    51    1
    56    33    34    1
