@<TRIPOS>MOLECULE
*****
 47 52 0 0 0
SMALL
GASTEIGER

@<TRIPOS>ATOM
      1 C          -7.5144  -13.3595   28.4714 C.ar    1  UNL1        0.0702
      2 C          -7.1108  -12.2976   29.2954 C.ar    1  UNL1        0.0191
      3 C          -7.9755  -11.8021   30.2727 C.ar    1  UNL1        0.0356
      4 C          -9.2587  -12.3552   30.4078 C.ar    1  UNL1        0.1318
      5 N          -9.6303  -13.3795   29.5906 N.ar    1  UNL1       -0.2279
      6 C          -8.8051  -13.8777   28.6325 C.ar    1  UNL1        0.1149
      7 N         -10.1684  -11.8885   31.4214 N.pl3   1  UNL1       -0.2932
      8 C         -11.4791  -12.5176   31.6324 C.3     1  UNL1        0.0923
      9 C         -12.5984  -11.4643   31.5795 C.3     1  UNL1        0.0252
     10 C         -12.1775  -10.0782   32.1470 C.3     1  UNL1        0.0472
     11 C         -10.9387  -10.1930   33.0659 C.3     1  UNL1        0.0252
     12 C          -9.7412  -10.8117   32.3256 C.3     1  UNL1        0.0923
     13 C         -11.9568   -9.0606   31.0102 C.3     1  UNL1        0.2054
     14 O         -11.7370   -7.7587   31.5495 O.3     1  UNL1       -0.4755
     15 C         -10.9234   -6.7816   30.9577 C.ar    1  UNL1        0.1388
     16 C         -11.4316   -5.5502   30.5044 C.ar    1  UNL1        0.0369
     17 C         -10.5788   -4.6116   29.9201 C.ar    1  UNL1        0.0033
     18 C          -9.2167   -4.8878   29.7818 C.ar    1  UNL1        0.0066
     19 C          -8.6910   -6.1116   30.2290 C.ar    1  UNL1        0.0785
     20 C          -9.5566   -7.0525   30.8169 C.ar    1  UNL1        0.0433
     21 C          -7.2476   -6.4023   30.0814 C.2     1  UNL1        0.3381
     22 O          -6.8455   -7.5899   29.9479 O.2     1  UNL1       -0.2451
     23 O          -6.3184   -5.3652   30.0885 O.3     1  UNL1       -0.4771
     24 H          -5.3280   -5.5532   29.9883 H       1  UNL1        0.2954
     25 C          -7.1249  -14.7255   26.3656 C.2     1  UNL1        0.2839
     26 O          -8.3227  -15.1143   26.3277 O.2     1  UNL1       -0.2665
     27 N          -6.6652  -13.8825   27.4368 N.am    1  UNL1       -0.2766
     28 H          -5.6672  -13.5790   27.4445 H       1  UNL1        0.1553
     29 C          -4.7006  -16.8580   26.6136 C.3     1  UNL1        0.0345
     30 C          -5.1734  -16.1116   25.4029 C.ar    1  UNL1        0.0202
     31 C          -6.2097  -15.1750   25.3023 C.ar    1  UNL1        0.1946
     32 O          -6.2664  -14.6947   24.0724 O.2     1  UNL1       -0.4492
     33 C          -5.3373  -15.2892   23.3645 C.ar    1  UNL1        0.1452
     34 C          -5.0450  -15.0953   22.0190 C.ar    1  UNL1        0.0375
     35 C          -3.9972  -15.8454   21.4565 C.ar    1  UNL1        0.0031
     36 C          -3.2605  -16.7723   22.2433 C.ar    1  UNL1        0.0002
     37 C          -3.5897  -16.9373   23.6101 C.ar    1  UNL1        0.0028
     38 C          -4.6363  -16.1779   24.1332 C.ar    1  UNL1        0.0337
     39 C          -2.1557  -17.5592   21.6387 C.ar    1  UNL1        0.0001
     40 C          -1.9865  -18.9185   21.9598 C.ar    1  UNL1        0.0013
     41 C          -0.9453  -19.6577   21.3908 C.ar    1  UNL1        0.0141
     42 C          -0.0576  -19.0521   20.4922 C.ar    1  UNL1        0.0415
     43 N           1.0068  -19.8096   19.9105 N.pl3   1  UNL1       -0.3570
     44 C          -0.2200  -17.6992   20.1676 C.ar    1  UNL1        0.0141
     45 C          -1.2598  -16.9574   20.7359 C.ar    1  UNL1        0.0013
     46 H           1.6736  -19.3666   19.2397 H       1  UNL1        0.1424
     47 H           1.1358  -20.8188   20.1464 H       1  UNL1        0.1424
@<TRIPOS>BOND
     1    29    30    1
     2    30    31   ar
     3    31    25    1
     4    25    26    2
     5    25    27   am
     6    27     1    1
     7     1     2   ar
     8     2     3   ar
     9     3     4   ar
    10     4     7    1
    11     7     8    1
    12     8     9    1
    13     9    10    1
    14    10    13    1
    15    13    14    1
    16    14    15    1
    17    15    16   ar
    18    16    17   ar
    19    17    18   ar
    20    18    19   ar
    21    19    21    1
    22    21    22    2
    23    21    23    1
    24    19    20   ar
    25    10    11    1
    26    11    12    1
    27     4     5   ar
    28     5     6   ar
    29    31    32   ar
    30    32    33   ar
    31    33    34   ar
    32    34    35   ar
    33    35    36   ar
    34    36    39    1
    35    39    40   ar
    36    40    41   ar
    37    41    42   ar
    38    42    43    1
    39    42    44   ar
    40    44    45   ar
    41    36    37   ar
    42    37    38   ar
    43    38    30   ar
    44     6     1   ar
    45    38    33   ar
    46    12     7    1
    47    45    39   ar
    48    20    15   ar
    49    27    28    1
    50    23    24    1
    51    43    46    1
    52    43    47    1
@<TRIPOS>MOLECULE
*****
 47 52 0 0 0
SMALL
GASTEIGER

@<TRIPOS>ATOM
      1 C          -7.6283  -13.8644   27.9981 C.ar    1  UNL1        0.0702
      2 C          -7.2606  -12.7677   28.7928 C.ar    1  UNL1        0.0191
      3 C          -8.1600  -12.2445   29.7232 C.ar    1  UNL1        0.0356
      4 C          -9.4416  -12.8055   29.8396 C.ar    1  UNL1        0.1318
      5 N          -9.7779  -13.8640   29.0513 N.ar    1  UNL1       -0.2279
      6 C          -8.9186  -14.3896   28.1390 C.ar    1  UNL1        0.1149
      7 N         -10.3870  -12.3101   30.8060 N.pl3   1  UNL1       -0.2932
      8 C         -11.0601  -11.0156   30.6353 C.3     1  UNL1        0.0923
      9 C         -10.8653  -10.1370   31.8824 C.3     1  UNL1        0.0252
     10 C         -10.8166  -10.9437   33.2119 C.3     1  UNL1        0.0472
     11 C         -11.4525  -12.3443   33.0501 C.3     1  UNL1        0.0252
     12 C         -10.7535  -13.1585   31.9485 C.3     1  UNL1        0.0923
     13 C          -9.3762  -11.0263   33.7547 C.3     1  UNL1        0.2054
     14 O          -8.6053   -9.9254   33.2774 O.3     1  UNL1       -0.4755
     15 C          -7.4986  -10.0423   32.4239 C.ar    1  UNL1        0.1388
     16 C          -6.4690  -10.9751   32.6473 C.ar    1  UNL1        0.0369
     17 C          -5.3870  -11.0498   31.7678 C.ar    1  UNL1        0.0033
     18 C          -5.3192  -10.2003   30.6613 C.ar    1  UNL1        0.0066
     19 C          -6.3381   -9.2630   30.4216 C.ar    1  UNL1        0.0785
     20 C          -7.4253   -9.1937   31.3123 C.ar    1  UNL1        0.0433
     21 C          -6.2643   -8.3639   29.2487 C.2     1  UNL1        0.3381
     22 O          -6.2831   -7.1123   29.4009 O.2     1  UNL1       -0.2451
     23 O          -6.1730   -8.8926   27.9636 O.3     1  UNL1       -0.4771
     24 H          -6.1220   -8.2860   27.1538 H       1  UNL1        0.2954
     25 C          -7.1565  -14.8312   25.6970 C.2     1  UNL1        0.2839
     26 O          -8.3722  -14.7913   25.3683 O.2     1  UNL1       -0.2665
     27 N          -6.7423  -14.4174   27.0111 N.am    1  UNL1       -0.2766
     28 H          -5.7296  -14.4647   27.2568 H       1  UNL1        0.1553
     29 C          -4.6552  -16.8187   26.2252 C.3     1  UNL1        0.0345
     30 C          -5.1114  -16.2071   24.9352 C.ar    1  UNL1        0.0202
     31 C          -6.1819  -15.3322   24.7125 C.ar    1  UNL1        0.1946
     32 O          -6.2106  -14.9678   23.4425 O.2     1  UNL1       -0.4492
     33 C          -5.2298  -15.5803   22.8254 C.ar    1  UNL1        0.1452
     34 C          -4.8934  -15.4954   21.4789 C.ar    1  UNL1        0.0375
     35 C          -3.7932  -16.2441   21.0251 C.ar    1  UNL1        0.0031
     36 C          -3.0492  -17.0613   21.9191 C.ar    1  UNL1        0.0002
     37 C          -3.4246  -17.1173   23.2829 C.ar    1  UNL1        0.0028
     38 C          -4.5224  -16.3629   23.6967 C.ar    1  UNL1        0.0337
     39 C          -1.8889  -17.8478   21.4287 C.ar    1  UNL1        0.0001
     40 C          -1.6834  -19.1687   21.8672 C.ar    1  UNL1        0.0013
     41 C          -0.5900  -19.9076   21.4056 C.ar    1  UNL1        0.0141
     42 C           0.3144  -19.3398   20.4990 C.ar    1  UNL1        0.0415
     43 N           1.4322  -20.0969   20.0273 N.pl3   1  UNL1       -0.3570
     44 C           0.1160  -18.0253   20.0578 C.ar    1  UNL1        0.0141
     45 C          -0.9761  -17.2840   20.5186 C.ar    1  UNL1        0.0013
     46 H           2.1118  -19.6820   19.3514 H       1  UNL1        0.1424
     47 H           1.5883  -21.0777   20.3505 H       1  UNL1        0.1424
@<TRIPOS>BOND
     1    29    30    1
     2    30    31   ar
     3    31    25    1
     4    25    26    2
     5    25    27   am
     6    27     1    1
     7     1     2   ar
     8     2     3   ar
     9     3     4   ar
    10     4     7    1
    11     7     8    1
    12     8     9    1
    13     9    10    1
    14    10    13    1
    15    13    14    1
    16    14    15    1
    17    15    16   ar
    18    16    17   ar
    19    17    18   ar
    20    18    19   ar
    21    19    21    1
    22    21    22    2
    23    21    23    1
    24    19    20   ar
    25    10    11    1
    26    11    12    1
    27     4     5   ar
    28     5     6   ar
    29    31    32   ar
    30    32    33   ar
    31    33    34   ar
    32    34    35   ar
    33    35    36   ar
    34    36    39    1
    35    39    40   ar
    36    40    41   ar
    37    41    42   ar
    38    42    43    1
    39    42    44   ar
    40    44    45   ar
    41    36    37   ar
    42    37    38   ar
    43    38    30   ar
    44     6     1   ar
    45    38    33   ar
    46    12     7    1
    47    45    39   ar
    48    20    15   ar
    49    27    28    1
    50    23    24    1
    51    43    46    1
    52    43    47    1
@<TRIPOS>MOLECULE
*****
 47 52 0 0 0
SMALL
GASTEIGER

@<TRIPOS>ATOM
      1 C          -7.4242  -13.7265   28.0289 C.ar    1  UNL1        0.0702
      2 C          -8.7227  -14.2124   28.2462 C.ar    1  UNL1        0.0191
      3 C          -9.5213  -13.6535   29.2453 C.ar    1  UNL1        0.0356
      4 C          -9.0078  -12.6216   30.0468 C.ar    1  UNL1        0.1318
      5 N          -7.7416  -12.1729   29.8221 N.ar    1  UNL1       -0.2279
      6 C          -6.9465  -12.7021   28.8553 C.ar    1  UNL1        0.1149
      7 N          -9.8104  -12.0025   31.0693 N.pl3   1  UNL1       -0.2932
      8 C         -11.2755  -11.9484   30.9746 C.3     1  UNL1        0.0923
      9 C         -11.7738  -10.5020   31.1319 C.3     1  UNL1        0.0252
     10 C         -10.9154   -9.6499   32.1106 C.3     1  UNL1        0.0472
     11 C         -10.0831  -10.5424   33.0608 C.3     1  UNL1        0.0252
     12 C          -9.1553  -11.4880   32.2799 C.3     1  UNL1        0.0923
     13 C         -10.0307   -8.6495   31.3406 C.3     1  UNL1        0.2054
     14 O          -9.0989   -8.0319   32.2262 O.3     1  UNL1       -0.4755
     15 C          -7.8659   -7.4930   31.8312 C.ar    1  UNL1        0.1388
     16 C          -7.6752   -6.8866   30.5758 C.ar    1  UNL1        0.0369
     17 C          -6.4261   -6.3669   30.2301 C.ar    1  UNL1        0.0033
     18 C          -5.3584   -6.4449   31.1271 C.ar    1  UNL1        0.0066
     19 C          -5.5299   -7.0462   32.3853 C.ar    1  UNL1        0.0785
     20 C          -6.7916   -7.5676   32.7265 C.ar    1  UNL1        0.0433
     21 C          -4.3974   -7.1279   33.3341 C.2     1  UNL1        0.3381
     22 O          -3.3339   -6.4863   33.1164 O.2     1  UNL1       -0.2451
     23 O          -4.4957   -7.9154   34.4784 O.3     1  UNL1       -0.4771
     24 H          -3.7263   -7.9784   35.1344 H       1  UNL1        0.2954
     25 C          -7.0190  -14.8149   25.7698 C.2     1  UNL1        0.2839
     26 O          -8.2509  -14.8698   25.5115 O.2     1  UNL1       -0.2665
     27 N          -6.5604  -14.2903   27.0284 N.am    1  UNL1       -0.2766
     28 H          -5.5348  -14.2605   27.2166 H       1  UNL1        0.1553
     29 C          -4.5125  -16.8099   26.2422 C.3     1  UNL1        0.0345
     30 C          -4.9975  -16.1995   24.9621 C.ar    1  UNL1        0.0202
     31 C          -6.0701  -15.3214   24.7633 C.ar    1  UNL1        0.1946
     32 O          -6.1281  -14.9597   23.4935 O.2     1  UNL1       -0.4492
     33 C          -5.1645  -15.5769   22.8544 C.ar    1  UNL1        0.1452
     34 C          -4.8604  -15.4960   21.5000 C.ar    1  UNL1        0.0375
     35 C          -3.7739  -16.2495   21.0215 C.ar    1  UNL1        0.0031
     36 C          -3.0114  -17.0674   21.8992 C.ar    1  UNL1        0.0002
     37 C          -3.3541  -17.1191   23.2717 C.ar    1  UNL1        0.0028
     38 C          -4.4390  -16.3600   23.7102 C.ar    1  UNL1        0.0337
     39 C          -1.8660  -17.8589   21.3828 C.ar    1  UNL1        0.0001
     40 C          -0.9809  -17.3051   20.4397 C.ar    1  UNL1        0.0013
     41 C           0.0963  -18.0519   19.9536 C.ar    1  UNL1        0.0141
     42 C           0.3071  -19.3622   20.4015 C.ar    1  UNL1        0.0415
     43 N           1.4097  -20.1249   19.9038 N.pl3   1  UNL1       -0.3570
     44 C          -0.5698  -19.9202   21.3406 C.ar    1  UNL1        0.0141
     45 C          -1.6483  -19.1759   21.8277 C.ar    1  UNL1        0.0013
     46 H           1.5748  -21.1026   20.2318 H       1  UNL1        0.1424
     47 H           2.0689  -19.7174   19.2036 H       1  UNL1        0.1424
@<TRIPOS>BOND
     1    29    30    1
     2    30    31   ar
     3    31    25    1
     4    25    26    2
     5    25    27   am
     6    27     1    1
     7     1     2   ar
     8     2     3   ar
     9     3     4   ar
    10     4     7    1
    11     7     8    1
    12     8     9    1
    13     9    10    1
    14    10    13    1
    15    13    14    1
    16    14    15    1
    17    15    16   ar
    18    16    17   ar
    19    17    18   ar
    20    18    19   ar
    21    19    21    1
    22    21    22    2
    23    21    23    1
    24    19    20   ar
    25    10    11    1
    26    11    12    1
    27     4     5   ar
    28     5     6   ar
    29    31    32   ar
    30    32    33   ar
    31    33    34   ar
    32    34    35   ar
    33    35    36   ar
    34    36    39    1
    35    39    40   ar
    36    40    41   ar
    37    41    42   ar
    38    42    43    1
    39    42    44   ar
    40    44    45   ar
    41    36    37   ar
    42    37    38   ar
    43    38    30   ar
    44     6     1   ar
    45    38    33   ar
    46    12     7    1
    47    45    39   ar
    48    20    15   ar
    49    27    28    1
    50    23    24    1
    51    43    46    1
    52    43    47    1
@<TRIPOS>MOLECULE
*****
 47 52 0 0 0
SMALL
GASTEIGER

@<TRIPOS>ATOM
      1 C          -7.6458  -13.4928   28.3236 C.ar    1  UNL1        0.0702
      2 C          -8.9341  -14.0122   28.5231 C.ar    1  UNL1        0.0191
      3 C          -9.7466  -13.4994   29.5357 C.ar    1  UNL1        0.0356
      4 C          -9.2569  -12.4805   30.3681 C.ar    1  UNL1        0.1318
      5 N          -8.0001  -11.9988   30.1600 N.ar    1  UNL1       -0.2279
      6 C          -7.1918  -12.4829   29.1805 C.ar    1  UNL1        0.1149
      7 N         -10.0747  -11.9084   31.4058 N.pl3   1  UNL1       -0.2932
      8 C         -11.5219  -12.1524   31.4720 C.3     1  UNL1        0.0923
      9 C         -12.2914  -10.8224   31.5355 C.3     1  UNL1        0.0252
     10 C         -11.5428   -9.7058   32.3187 C.3     1  UNL1        0.0472
     11 C         -10.4625  -10.2956   33.2553 C.3     1  UNL1        0.0252
     12 C          -9.4337  -11.1314   32.4757 C.3     1  UNL1        0.0923
     13 C         -10.9561   -8.6549   31.3555 C.3     1  UNL1        0.2054
     14 O          -9.8620   -7.9781   31.9710 O.3     1  UNL1       -0.4755
     15 C          -8.7553   -7.4653   31.2788 C.ar    1  UNL1        0.1388
     16 C          -8.4442   -6.0931   31.2645 C.ar    1  UNL1        0.0369
     17 C          -7.3312   -5.6333   30.5576 C.ar    1  UNL1        0.0033
     18 C          -6.5196   -6.5313   29.8608 C.ar    1  UNL1        0.0066
     19 C          -6.8140   -7.9051   29.8641 C.ar    1  UNL1        0.0785
     20 C          -7.9373   -8.3608   30.5788 C.ar    1  UNL1        0.0433
     21 C          -5.9529   -8.8547   29.1251 C.2     1  UNL1        0.3381
     22 O          -4.9755   -9.4092   29.6972 O.2     1  UNL1       -0.2451
     23 O          -6.2143   -9.1456   27.7886 O.3     1  UNL1       -0.4771
     24 H          -5.6311   -9.7941   27.2734 H       1  UNL1        0.2954
     25 C          -7.2095  -14.7735   26.1738 C.2     1  UNL1        0.2839
     26 O          -8.4214  -15.0962   26.0529 O.2     1  UNL1       -0.2665
     27 N          -6.7680  -14.0090   27.3096 N.am    1  UNL1       -0.2766
     28 H          -5.7580  -13.7594   27.3854 H       1  UNL1        0.1553
     29 C          -4.7809  -16.8911   26.4954 C.3     1  UNL1        0.0345
     30 C          -5.2222  -16.1488   25.2705 C.ar    1  UNL1        0.0202
     31 C          -6.2607  -15.2185   25.1384 C.ar    1  UNL1        0.1946
     32 O          -6.2840  -14.7396   23.9069 O.2     1  UNL1       -0.4492
     33 C          -5.3309  -15.3292   23.2273 C.ar    1  UNL1        0.1452
     34 C          -5.0002  -15.1348   21.8907 C.ar    1  UNL1        0.0375
     35 C          -3.9318  -15.8791   21.3603 C.ar    1  UNL1        0.0031
     36 C          -3.2131  -16.8008   22.1694 C.ar    1  UNL1        0.0002
     37 C          -3.5815  -16.9665   23.5261 C.ar    1  UNL1        0.0028
     38 C          -4.6476  -16.2130   24.0173 C.ar    1  UNL1        0.0337
     39 C          -2.0863  -17.5816   21.5985 C.ar    1  UNL1        0.0001
     40 C          -1.1815  -16.9820   20.7033 C.ar    1  UNL1        0.0013
     41 C          -0.1219  -17.7186   20.1657 C.ar    1  UNL1        0.0141
     42 C           0.0514  -19.0643   20.5137 C.ar    1  UNL1        0.0415
     43 N           1.1361  -19.8165   19.9634 N.pl3   1  UNL1       -0.3570
     44 C          -0.8453  -19.6680   21.4045 C.ar    1  UNL1        0.0141
     45 C          -1.9063  -18.9339   21.9428 C.ar    1  UNL1        0.0013
     46 H           1.2733  -20.8204   20.2168 H       1  UNL1        0.1424
     47 H           1.8098  -19.3751   19.2985 H       1  UNL1        0.1424
@<TRIPOS>BOND
     1    29    30    1
     2    30    31   ar
     3    31    25    1
     4    25    26    2
     5    25    27   am
     6    27     1    1
     7     1     2   ar
     8     2     3   ar
     9     3     4   ar
    10     4     7    1
    11     7     8    1
    12     8     9    1
    13     9    10    1
    14    10    13    1
    15    13    14    1
    16    14    15    1
    17    15    16   ar
    18    16    17   ar
    19    17    18   ar
    20    18    19   ar
    21    19    21    1
    22    21    22    2
    23    21    23    1
    24    19    20   ar
    25    10    11    1
    26    11    12    1
    27     4     5   ar
    28     5     6   ar
    29    31    32   ar
    30    32    33   ar
    31    33    34   ar
    32    34    35   ar
    33    35    36   ar
    34    36    39    1
    35    39    40   ar
    36    40    41   ar
    37    41    42   ar
    38    42    43    1
    39    42    44   ar
    40    44    45   ar
    41    36    37   ar
    42    37    38   ar
    43    38    30   ar
    44     6     1   ar
    45    38    33   ar
    46    12     7    1
    47    45    39   ar
    48    20    15   ar
    49    27    28    1
    50    23    24    1
    51    43    46    1
    52    43    47    1
@<TRIPOS>MOLECULE
*****
 47 52 0 0 0
SMALL
GASTEIGER

@<TRIPOS>ATOM
      1 C          -8.4904  -15.2708   26.9645 C.ar    1  UNL1        0.0702
      2 C          -8.6707  -16.5536   27.5040 C.ar    1  UNL1        0.0191
      3 C          -9.1588  -17.5876   26.7033 C.ar    1  UNL1        0.0356
      4 C          -9.4920  -17.3291   25.3643 C.ar    1  UNL1        0.1318
      5 N          -9.3161  -16.0738   24.8661 N.ar    1  UNL1       -0.2279
      6 C          -8.8424  -15.0522   25.6270 C.ar    1  UNL1        0.1149
      7 N          -9.9731  -18.3758   24.5007 N.pl3   1  UNL1       -0.2932
      8 C          -9.5617  -19.7748   24.6788 C.3     1  UNL1        0.0923
      9 C          -8.9965  -20.3428   23.3661 C.3     1  UNL1        0.0252
     10 C          -9.6880  -19.7761   22.0928 C.3     1  UNL1        0.0472
     11 C         -11.0734  -19.1715   22.4202 C.3     1  UNL1        0.0252
     12 C         -10.9679  -18.0517   23.4688 C.3     1  UNL1        0.0923
     13 C          -8.7749  -18.7634   21.3736 C.3     1  UNL1        0.2054
     14 O          -7.4428  -19.2671   21.2983 O.3     1  UNL1       -0.4755
     15 C          -6.3220  -18.6328   21.8534 C.ar    1  UNL1        0.1388
     16 C          -5.1582  -19.3369   22.2139 C.ar    1  UNL1        0.0369
     17 C          -4.0698  -18.6578   22.7652 C.ar    1  UNL1        0.0033
     18 C          -4.1283  -17.2763   22.9623 C.ar    1  UNL1        0.0066
     19 C          -5.2816  -16.5563   22.6080 C.ar    1  UNL1        0.0785
     20 C          -6.3744  -17.2476   22.0529 C.ar    1  UNL1        0.0433
     21 C          -5.3416  -15.0928   22.8177 C.2     1  UNL1        0.3381
     22 O          -4.9940  -14.3010   21.9000 O.2     1  UNL1       -0.2451
     23 O          -5.7833  -14.5753   24.0328 O.3     1  UNL1       -0.4771
     24 H          -5.8282  -13.5751   24.1868 H       1  UNL1        0.2954
     25 C          -8.8009  -13.5012   28.7602 C.2     1  UNL1        0.2839
     26 O         -10.0089  -13.8120   28.9378 O.2     1  UNL1       -0.2665
     27 N          -8.0145  -14.1728   27.7601 N.am    1  UNL1       -0.2766
     28 H          -7.0180  -13.8921   27.6325 H       1  UNL1        0.1553
     29 C          -5.9671  -11.9900   28.3464 C.3     1  UNL1        0.0345
     30 C          -7.0117  -11.7541   29.3949 C.ar    1  UNL1        0.0202
     31 C          -8.2279  -12.4224   29.5835 C.ar    1  UNL1        0.1946
     32 O          -8.8343  -11.9603   30.6631 O.2     1  UNL1       -0.4492
     33 C          -8.0866  -11.0105   31.1696 C.ar    1  UNL1        0.1452
     34 C          -8.3432  -10.2450   32.3018 C.ar    1  UNL1        0.0375
     35 C          -7.3967   -9.2722   32.6690 C.ar    1  UNL1        0.0031
     36 C          -6.2140   -9.0807   31.9039 C.ar    1  UNL1        0.0002
     37 C          -5.9910   -9.8832   30.7593 C.ar    1  UNL1        0.0028
     38 C          -6.9525  -10.8366   30.4243 C.ar    1  UNL1        0.0337
     39 C          -5.2213   -8.0502   32.3011 C.ar    1  UNL1        0.0001
     40 C          -4.7287   -8.0014   33.6181 C.ar    1  UNL1        0.0013
     41 C          -3.7950   -7.0300   33.9909 C.ar    1  UNL1        0.0141
     42 C          -3.3382   -6.0930   33.0552 C.ar    1  UNL1        0.0415
     43 N          -2.3827   -5.1002   33.4378 N.pl3   1  UNL1       -0.3570
     44 C          -3.8240   -6.1356   31.7421 C.ar    1  UNL1        0.0141
     45 C          -4.7584   -7.1054   31.3669 C.ar    1  UNL1        0.0013
     46 H          -2.0364   -4.3974   32.7472 H       1  UNL1        0.1424
     47 H          -2.0147   -5.0606   34.4145 H       1  UNL1        0.1424
@<TRIPOS>BOND
     1    29    30    1
     2    30    31   ar
     3    31    25    1
     4    25    26    2
     5    25    27   am
     6    27     1    1
     7     1     2   ar
     8     2     3   ar
     9     3     4   ar
    10     4     7    1
    11     7     8    1
    12     8     9    1
    13     9    10    1
    14    10    13    1
    15    13    14    1
    16    14    15    1
    17    15    16   ar
    18    16    17   ar
    19    17    18   ar
    20    18    19   ar
    21    19    21    1
    22    21    22    2
    23    21    23    1
    24    19    20   ar
    25    10    11    1
    26    11    12    1
    27     4     5   ar
    28     5     6   ar
    29    31    32   ar
    30    32    33   ar
    31    33    34   ar
    32    34    35   ar
    33    35    36   ar
    34    36    39    1
    35    39    40   ar
    36    40    41   ar
    37    41    42   ar
    38    42    43    1
    39    42    44   ar
    40    44    45   ar
    41    36    37   ar
    42    37    38   ar
    43    38    30   ar
    44     6     1   ar
    45    38    33   ar
    46    12     7    1
    47    45    39   ar
    48    20    15   ar
    49    27    28    1
    50    23    24    1
    51    43    46    1
    52    43    47    1
