@<TRIPOS>MOLECULE
*****
 38 42 0 0 0
SMALL
GASTEIGER

@<TRIPOS>ATOM
      1 C          49.9486   11.8057  -21.7097 C.2     1  UNL1        0.2506
      2 O          51.0939   12.0308  -22.1866 O.2     1  UNL1       -0.2699
      3 N          48.8764   11.3880  -22.5782 N.am    1  UNL1       -0.2680
      4 C          47.9148   10.3785  -22.1222 C.3     1  UNL1        0.1412
      5 C          46.5942   11.0440  -21.7415 C.3     1  UNL1        0.2268
      6 O          46.3301   12.1885  -22.5509 O.3     1  UNL1       -0.4739
      7 C          46.3627   12.1465  -23.9464 C.ar    1  UNL1        0.1362
      8 C          45.1748   12.3940  -24.6416 C.ar    1  UNL1        0.0366
      9 C          45.1424   12.3348  -26.0345 C.ar    1  UNL1        0.0031
     10 C          46.3050   12.0330  -26.7550 C.ar    1  UNL1        0.0005
     11 C          47.5082   11.8243  -26.0645 C.ar    1  UNL1        0.0004
     12 C          47.5551   11.8687  -24.6598 C.ar    1  UNL1        0.0317
     13 C          48.9195   11.7634  -23.9986 C.3     1  UNL1        0.1236
     14 C          46.2804   11.9942  -28.2329 C.ar    1  UNL1        0.0077
     15 C          46.4740   10.7503  -28.8907 C.ar    1  UNL1        0.0021
     16 C          46.4714   10.6681  -30.2939 C.ar    1  UNL1        0.0207
     17 C          46.2688   11.8411  -31.0109 C.ar    1  UNL1        0.0990
     18 N          46.2201   11.9864  -32.3471 N.ar    1  UNL1       -0.2241
     19 C          45.9875   13.3160  -32.4984 C.ar    1  UNL1        0.1750
     20 N          45.8908   13.9843  -31.3246 N.ar    1  UNL1       -0.3345
     21 C          46.0727   13.0390  -30.3924 C.ar    1  UNL1        0.0819
     22 C          46.0659   13.1705  -29.0014 C.ar    1  UNL1        0.0516
     23 BR         45.7001   14.8781  -28.2006 Br      1  UNL1       -0.0475
     24 H          45.7146   15.0044  -31.1885 H       1  UNL1        0.1675
     25 C          49.0287   13.0678  -19.7259 C.ar    1  UNL1        0.0503
     26 C          48.8081   13.1228  -18.3343 C.ar    1  UNL1        0.0328
     27 C          49.3044   12.1239  -17.4879 C.ar    1  UNL1        0.1069
     28 C          50.0219   11.0521  -18.0259 C.ar    1  UNL1        0.0186
     29 C          50.2416   10.9757  -19.4005 C.ar    1  UNL1        0.0071
     30 C          49.7372   11.9631  -20.2585 C.ar    1  UNL1        0.0667
     31 S          49.0024   12.2107  -15.7553 S.O2    1  UNL1        0.0105
     32 C          50.5537   12.1958  -14.8865 C.3     1  UNL1        0.1816
     33 O          48.2562   13.4731  -15.4252 O.2     1  UNL1       -0.1686
     34 O          48.1719   11.0335  -15.3268 O.2     1  UNL1       -0.1686
     35 N          48.5761   14.1318  -20.5938 N.pl3   1  UNL1       -0.3325
     36 H          47.5516   14.3018  -20.7053 H       1  UNL1        0.1468
     37 C          48.8065   15.4533  -22.6493 C.3     1  UNL1        0.0229
     38 C          49.4594   15.0288  -21.3388 C.3     1  UNL1        0.0871
@<TRIPOS>BOND
     1    37    38    1
     2    38    35    1
     3    35    25    1
     4    25    26   ar
     5    26    27   ar
     6    27    31    1
     7    31    32    1
     8    31    33    2
     9    31    34    2
    10    27    28   ar
    11    28    29   ar
    12    29    30   ar
    13    30     1    1
    14     1     2    2
    15     1     3   am
    16     3     4    1
    17     4     5    1
    18     5     6    1
    19     6     7    1
    20     7     8   ar
    21     8     9   ar
    22     9    10   ar
    23    10    14    1
    24    14    15   ar
    25    15    16   ar
    26    16    17   ar
    27    17    18   ar
    28    18    19   ar
    29    19    20   ar
    30    20    21   ar
    31    21    22   ar
    32    22    23    1
    33    10    11   ar
    34    11    12   ar
    35    12    13    1
    36    30    25   ar
    37    13     3    1
    38    12     7   ar
    39    22    14   ar
    40    21    17   ar
    41    35    36    1
    42    20    24    1
@<TRIPOS>MOLECULE
*****
 38 42 0 0 0
SMALL
GASTEIGER

@<TRIPOS>ATOM
      1 C          50.0701   11.7527  -21.8404 C.2     1  UNL1        0.2506
      2 O          51.2028   12.0096  -22.3312 O.2     1  UNL1       -0.2699
      3 N          48.9915   11.3327  -22.6997 N.am    1  UNL1       -0.2680
      4 C          48.0570   10.2957  -22.2494 C.3     1  UNL1        0.1412
      5 C          46.7306   10.9277  -21.8330 C.3     1  UNL1        0.2268
      6 O          46.4314   12.0834  -22.6135 O.3     1  UNL1       -0.4739
      7 C          46.4412   12.0712  -24.0100 C.ar    1  UNL1        0.1362
      8 C          45.2373   12.3103  -24.6801 C.ar    1  UNL1        0.0366
      9 C          45.1825   12.2795  -26.0732 C.ar    1  UNL1        0.0031
     10 C          46.3382   12.0150  -26.8190 C.ar    1  UNL1        0.0005
     11 C          47.5566   11.8152  -26.1530 C.ar    1  UNL1        0.0004
     12 C          47.6264   11.8312  -24.7487 C.ar    1  UNL1        0.0317
     13 C          49.0035   11.7384  -24.1124 C.3     1  UNL1        0.1236
     14 C          46.2894   12.0066  -28.2968 C.ar    1  UNL1        0.0077
     15 C          46.4761   10.7772  -28.9831 C.ar    1  UNL1        0.0021
     16 C          46.4506   10.7238  -30.3875 C.ar    1  UNL1        0.0207
     17 C          46.2325   11.9106  -31.0768 C.ar    1  UNL1        0.0990
     18 N          46.1613   12.0832  -32.4087 N.ar    1  UNL1       -0.2241
     19 C          45.9220   13.4148  -32.5287 C.ar    1  UNL1        0.1750
     20 N          45.8425   14.0585  -31.3399 N.ar    1  UNL1       -0.3345
     21 C          46.0428   13.0948  -30.4306 C.ar    1  UNL1        0.0819
     22 C          46.0585   13.1977  -29.0372 C.ar    1  UNL1        0.0516
     23 BR         45.7005   14.8871  -28.1955 Br      1  UNL1       -0.0475
     24 H          45.6653   15.0749  -31.1800 H       1  UNL1        0.1675
     25 C          50.2433   13.0522  -19.6826 C.ar    1  UNL1        0.0503
     26 C          49.9754   13.1264  -18.3002 C.ar    1  UNL1        0.0328
     27 C          49.3910   12.0496  -17.6226 C.ar    1  UNL1        0.1069
     28 C          49.0599   10.8864  -18.3229 C.ar    1  UNL1        0.0186
     29 C          49.3084   10.7983  -19.6919 C.ar    1  UNL1        0.0071
     30 C          49.8804   11.8758  -20.3829 C.ar    1  UNL1        0.0667
     31 S          49.0550   12.1747  -15.8985 S.O2    1  UNL1        0.0105
     32 C          50.5894   12.1968  -15.0005 C.3     1  UNL1        0.1816
     33 O          48.2901   13.4369  -15.6132 O.2     1  UNL1       -0.1686
     34 O          48.2282   10.9996  -15.4575 O.2     1  UNL1       -0.1686
     35 N          50.9080   14.1358  -20.3712 N.pl3   1  UNL1       -0.3325
     36 H          50.3927   14.6681  -21.1074 H       1  UNL1        0.1468
     37 C          53.2285   13.3824  -20.1035 C.3     1  UNL1        0.0229
     38 C          52.2777   14.5740  -20.1037 C.3     1  UNL1        0.0871
@<TRIPOS>BOND
     1    37    38    1
     2    38    35    1
     3    35    25    1
     4    25    26   ar
     5    26    27   ar
     6    27    31    1
     7    31    32    1
     8    31    33    2
     9    31    34    2
    10    27    28   ar
    11    28    29   ar
    12    29    30   ar
    13    30     1    1
    14     1     2    2
    15     1     3   am
    16     3     4    1
    17     4     5    1
    18     5     6    1
    19     6     7    1
    20     7     8   ar
    21     8     9   ar
    22     9    10   ar
    23    10    14    1
    24    14    15   ar
    25    15    16   ar
    26    16    17   ar
    27    17    18   ar
    28    18    19   ar
    29    19    20   ar
    30    20    21   ar
    31    21    22   ar
    32    22    23    1
    33    10    11   ar
    34    11    12   ar
    35    12    13    1
    36    30    25   ar
    37    13     3    1
    38    12     7   ar
    39    22    14   ar
    40    21    17   ar
    41    35    36    1
    42    20    24    1
@<TRIPOS>MOLECULE
*****
 38 42 0 0 0
SMALL
GASTEIGER

@<TRIPOS>ATOM
      1 C          46.7478   12.3235  -20.3345 C.2     1  UNL1        0.2506
      2 O          45.5225   12.0377  -20.2514 O.2     1  UNL1       -0.2699
      3 N          47.3128   12.7094  -21.6034 N.am    1  UNL1       -0.2680
      4 C          48.3227   13.7714  -21.6634 C.3     1  UNL1        0.1412
      5 C          49.7104   13.1669  -21.8658 C.3     1  UNL1        0.2268
      6 O          49.6560   11.9780  -22.6520 O.3     1  UNL1       -0.4739
      7 C          49.0181   11.9256  -23.8933 C.ar    1  UNL1        0.1362
      8 C          49.7971   11.6627  -25.0245 C.ar    1  UNL1        0.0366
      9 C          49.2180   11.6293  -26.2926 C.ar    1  UNL1        0.0031
     10 C          47.8438   11.8525  -26.4467 C.ar    1  UNL1        0.0005
     11 C          47.0510   12.0760  -25.3111 C.ar    1  UNL1        0.0004
     12 C          47.6215   12.1245  -24.0268 C.ar    1  UNL1        0.0317
     13 C          46.6764   12.2388  -22.8420 C.3     1  UNL1        0.1236
     14 C          47.2218   11.7928  -27.7868 C.ar    1  UNL1        0.0077
     15 C          47.1368   10.5394  -28.4494 C.ar    1  UNL1        0.0021
     16 C          46.5653   10.4373  -29.7295 C.ar    1  UNL1        0.0207
     17 C          46.0843   11.6004  -30.3186 C.ar    1  UNL1        0.0990
     18 N          45.4969   11.7269  -31.5219 N.ar    1  UNL1       -0.2241
     19 C          45.2175   13.0547  -31.5839 C.ar    1  UNL1        0.1750
     20 N          45.6029   13.7397  -30.4811 N.ar    1  UNL1       -0.3345
     21 C          46.1513   12.8073  -29.6902 C.ar    1  UNL1        0.0819
     22 C          46.7090   12.9585  -28.4181 C.ar    1  UNL1        0.0516
     23 BR         46.6927   14.6779  -27.5612 Br      1  UNL1       -0.0475
     24 H          45.4929   14.7619  -30.2992 H       1  UNL1        0.1675
     25 C          48.4338   11.1737  -18.8477 C.ar    1  UNL1        0.0503
     26 C          49.2457   11.2161  -17.6958 C.ar    1  UNL1        0.0328
     27 C          49.1869   12.3026  -16.8145 C.ar    1  UNL1        0.1069
     28 C          48.3189   13.3651  -17.0802 C.ar    1  UNL1        0.0186
     29 C          47.5155   13.3454  -18.2193 C.ar    1  UNL1        0.0071
     30 C          47.5766   12.2690  -19.1157 C.ar    1  UNL1        0.0667
     31 S          50.2222   12.3356  -15.3905 S.O2    1  UNL1        0.0105
     32 C          49.6389   13.5853  -14.2683 C.3     1  UNL1        0.1816
     33 O          50.1987   10.9978  -14.7055 O.2     1  UNL1       -0.1686
     34 O          51.6354   12.6434  -15.7993 O.2     1  UNL1       -0.1686
     35 N          48.4431   10.0230  -19.7231 N.pl3   1  UNL1       -0.3325
     36 H          47.5505    9.5142  -19.9106 H       1  UNL1        0.1468
     37 C          49.2673    8.9811  -21.7869 C.3     1  UNL1        0.0229
     38 C          49.6308    9.5057  -20.4025 C.3     1  UNL1        0.0871
@<TRIPOS>BOND
     1    37    38    1
     2    38    35    1
     3    35    25    1
     4    25    26   ar
     5    26    27   ar
     6    27    31    1
     7    31    32    1
     8    31    33    2
     9    31    34    2
    10    27    28   ar
    11    28    29   ar
    12    29    30   ar
    13    30     1    1
    14     1     2    2
    15     1     3   am
    16     3     4    1
    17     4     5    1
    18     5     6    1
    19     6     7    1
    20     7     8   ar
    21     8     9   ar
    22     9    10   ar
    23    10    14    1
    24    14    15   ar
    25    15    16   ar
    26    16    17   ar
    27    17    18   ar
    28    18    19   ar
    29    19    20   ar
    30    20    21   ar
    31    21    22   ar
    32    22    23    1
    33    10    11   ar
    34    11    12   ar
    35    12    13    1
    36    30    25   ar
    37    13     3    1
    38    12     7   ar
    39    22    14   ar
    40    21    17   ar
    41    35    36    1
    42    20    24    1
@<TRIPOS>MOLECULE
*****
 38 42 0 0 0
SMALL
GASTEIGER

@<TRIPOS>ATOM
      1 C          49.5679   13.6603  -21.5969 C.2     1  UNL1        0.2506
      2 O          50.1673   14.7402  -21.8510 O.2     1  UNL1       -0.2699
      3 N          49.0006   12.8821  -22.6698 N.am    1  UNL1       -0.2680
      4 C          49.0757   11.4177  -22.6321 C.3     1  UNL1        0.1412
      5 C          47.7205   10.8314  -22.2427 C.3     1  UNL1        0.2268
      6 O          46.6433   11.6312  -22.7269 O.3     1  UNL1       -0.4739
      7 C          46.5359   12.0184  -24.0644 C.ar    1  UNL1        0.1362
      8 C          45.4429   11.5505  -24.8007 C.ar    1  UNL1        0.0366
      9 C          45.3018   11.8802  -26.1483 C.ar    1  UNL1        0.0031
     10 C          46.2528   12.6924  -26.7792 C.ar    1  UNL1        0.0005
     11 C          47.3290   13.1979  -26.0347 C.ar    1  UNL1        0.0004
     12 C          47.4920   12.8652  -24.6782 C.ar    1  UNL1        0.0317
     13 C          48.6069   13.5594  -23.9135 C.3     1  UNL1        0.1236
     14 C          46.0932   13.0650  -28.2011 C.ar    1  UNL1        0.0077
     15 C          45.7247   14.3980  -28.5247 C.ar    1  UNL1        0.0021
     16 C          45.5492   14.7936  -29.8620 C.ar    1  UNL1        0.0207
     17 C          45.7530   13.8395  -30.8516 C.ar    1  UNL1        0.0990
     18 N          45.6491   14.0045  -32.1824 N.ar    1  UNL1       -0.2241
     19 C          45.9640   12.7745  -32.6650 C.ar    1  UNL1        0.1750
     20 N          46.2551   11.8730  -31.6974 N.ar    1  UNL1       -0.3345
     21 C          46.1157   12.5602  -30.5555 C.ar    1  UNL1        0.0819
     22 C          46.3029   12.1206  -29.2425 C.ar    1  UNL1        0.0516
     23 BR         46.8953   10.3241  -28.9072 Br      1  UNL1       -0.0475
     24 H          46.5253   10.8724  -31.8237 H       1  UNL1        0.1675
     25 C          50.6119   12.7573  -19.4828 C.ar    1  UNL1        0.0503
     26 C          50.4628   12.4012  -18.1267 C.ar    1  UNL1        0.0328
     27 C          49.2117   12.4618  -17.5011 C.ar    1  UNL1        0.1069
     28 C          48.0942   12.8877  -18.2243 C.ar    1  UNL1        0.0186
     29 C          48.2240   13.2530  -19.5634 C.ar    1  UNL1        0.0071
     30 C          49.4746   13.2094  -20.1957 C.ar    1  UNL1        0.0667
     31 S          49.0568   12.0243  -15.8024 S.O2    1  UNL1        0.0105
     32 C          48.7036   13.4830  -14.8492 C.3     1  UNL1        0.1816
     33 O          47.9436   11.0298  -15.6262 O.2     1  UNL1       -0.1686
     34 O          50.3384   11.4040  -15.3209 O.2     1  UNL1       -0.1686
     35 N          51.8887   12.6313  -20.1494 N.pl3   1  UNL1       -0.3325
     36 H          52.1011   11.7637  -20.6907 H       1  UNL1        0.1468
     37 C          54.3123   13.0107  -20.2307 C.3     1  UNL1        0.0229
     38 C          52.9335   13.6552  -20.1436 C.3     1  UNL1        0.0871
@<TRIPOS>BOND
     1    37    38    1
     2    38    35    1
     3    35    25    1
     4    25    26   ar
     5    26    27   ar
     6    27    31    1
     7    31    32    1
     8    31    33    2
     9    31    34    2
    10    27    28   ar
    11    28    29   ar
    12    29    30   ar
    13    30     1    1
    14     1     2    2
    15     1     3   am
    16     3     4    1
    17     4     5    1
    18     5     6    1
    19     6     7    1
    20     7     8   ar
    21     8     9   ar
    22     9    10   ar
    23    10    14    1
    24    14    15   ar
    25    15    16   ar
    26    16    17   ar
    27    17    18   ar
    28    18    19   ar
    29    19    20   ar
    30    20    21   ar
    31    21    22   ar
    32    22    23    1
    33    10    11   ar
    34    11    12   ar
    35    12    13    1
    36    30    25   ar
    37    13     3    1
    38    12     7   ar
    39    22    14   ar
    40    21    17   ar
    41    35    36    1
    42    20    24    1
