@<TRIPOS>MOLECULE
*****
 47 52 0 0 0
SMALL
GASTEIGER

@<TRIPOS>ATOM
      1 O          10.7062   75.6957   26.1727 O.2     1  UNL1       -0.2701
      2 C           9.5951   76.2857   26.0858 C.2     1  UNL1        0.2483
      3 N           9.1167   77.0936   27.1780 N.am    1  UNL1       -0.2945
      4 H           8.1106   77.3761   27.1798 H       1  UNL1        0.1501
      5 C           8.7774   76.1031   24.8656 C.ar    1  UNL1        0.0808
      6 C           9.0460   76.8820   23.7276 C.ar    1  UNL1        0.0080
      7 C           8.2896   76.7245   22.5636 C.ar    1  UNL1        0.0148
      8 C           7.2383   75.7968   22.5195 C.ar    1  UNL1        0.0502
      9 C           6.9598   75.0251   23.6587 C.ar    1  UNL1        0.0443
     10 C           7.7162   75.1780   24.8249 C.ar    1  UNL1        0.1457
     11 F           7.3782   74.4523   25.9208 F       1  UNL1       -0.2040
     12 N           6.4670   75.6253   21.3156 N.pl3   1  UNL1       -0.3040
     13 C           5.9007   76.7868   20.6172 C.3     1  UNL1        0.1122
     14 C           4.3911   76.5988   20.4494 C.3     1  UNL1        0.1123
     15 N           4.0750   75.2392   19.9907 N.pl3   1  UNL1       -0.3034
     16 C           5.1434   74.2792   19.6937 C.3     1  UNL1        0.1123
     17 C           6.1709   74.2664   20.8334 C.3     1  UNL1        0.1122
     18 C           2.7205   74.9166   19.6528 C.ar    1  UNL1        0.0587
     19 C           2.0794   73.8500   20.2984 C.ar    1  UNL1        0.0162
     20 C           0.7594   73.5231   19.9764 C.ar    1  UNL1        0.0127
     21 C           0.0702   74.2630   19.0104 C.ar    1  UNL1        0.0586
     22 CL         -1.5872   73.8526   18.6083 Cl      1  UNL1       -0.0822
     23 C           0.7015   75.3341   18.3689 C.ar    1  UNL1        0.0240
     24 C           2.0240   75.6658   18.6871 C.ar    1  UNL1        0.0718
     25 CL          2.7764   77.0419   17.8920 Cl      1  UNL1       -0.0809
     26 C           9.9355   77.5390   28.3151 C.3     1  UNL1        0.1535
     27 C           9.5395   78.9244   28.7768 C.2     1  UNL1        0.2443
     28 O           8.5233   79.4909   28.2912 O.2     1  UNL1       -0.2730
     29 N          10.3457   79.6015   29.7554 N.am    1  UNL1       -0.2825
     30 H          11.3291   79.2706   29.8829 H       1  UNL1        0.1549
     31 C           9.9041   80.7090   30.5619 C.ar    1  UNL1        0.0535
     32 C           9.2109   80.5199   31.7711 C.ar    1  UNL1        0.0353
     33 C           8.8490   81.6289   32.5397 C.ar    1  UNL1        0.1002
     34 N           9.1736   82.8819   32.1263 N.ar    1  UNL1       -0.2422
     35 C           9.8552   83.0950   30.9702 C.ar    1  UNL1        0.1002
     36 C          10.2388   82.0139   30.1734 C.ar    1  UNL1        0.0353
     37 C           9.9079   76.5068   29.4622 C.3     1  UNL1        0.0569
     38 C           8.6361   75.7058   29.4599 C.ar    1  UNL1       -0.0017
     39 C           8.4958   74.3833   29.0494 C.ar    1  UNL1        0.0681
     40 N           7.2440   73.9394   29.3047 N.ar    1  UNL1       -0.3523
     41 C           6.5958   74.9659   29.8819 C.ar    1  UNL1        0.0563
     42 C           5.2884   74.9735   30.3660 C.ar    1  UNL1        0.0170
     43 C           4.8198   76.1509   30.9767 C.ar    1  UNL1        0.0015
     44 C           5.6588   77.2814   31.0888 C.ar    1  UNL1        0.0001
     45 C           6.9742   77.2447   30.5919 C.ar    1  UNL1        0.0012
     46 C           7.4116   76.0629   29.9925 C.ar    1  UNL1        0.0131
     47 H           6.8697   72.9830   29.1160 H       1  UNL1        0.1660
@<TRIPOS>BOND
     1     1     2    2
     2     2     3   am
     3     3    26    1
     4    26    37    1
     5    37    38    1
     6    38    39   ar
     7    39    40   ar
     8    40    41   ar
     9    41    42   ar
    10    42    43   ar
    11    43    44   ar
    12    44    45   ar
    13    45    46   ar
    14    26    27    1
    15    27    28    2
    16    27    29   am
    17    29    31    1
    18    31    32   ar
    19    32    33   ar
    20    33    34   ar
    21    34    35   ar
    22    35    36   ar
    23     2     5    1
    24     5     6   ar
    25     6     7   ar
    26     7     8   ar
    27     8    12    1
    28    12    13    1
    29    13    14    1
    30    14    15    1
    31    15    18    1
    32    18    19   ar
    33    19    20   ar
    34    20    21   ar
    35    21    22    1
    36    21    23   ar
    37    23    24   ar
    38    24    25    1
    39    15    16    1
    40    16    17    1
    41     8     9   ar
    42     9    10   ar
    43    10    11    1
    44    46    38   ar
    45    36    31   ar
    46    10     5   ar
    47    46    41   ar
    48    17    12    1
    49    24    18   ar
    50     3     4    1
    51    40    47    1
    52    29    30    1
@<TRIPOS>MOLECULE
*****
 47 52 0 0 0
SMALL
GASTEIGER

@<TRIPOS>ATOM
      1 O          10.9414   78.3003   25.4298 O.2     1  UNL1       -0.2701
      2 C           9.8174   77.7521   25.5921 C.2     1  UNL1        0.2483
      3 N           9.4229   77.2804   26.8946 N.am    1  UNL1       -0.2945
      4 H           8.6054   76.6328   26.9587 H       1  UNL1        0.1501
      5 C           8.9318   77.5668   24.4207 C.ar    1  UNL1        0.0808
      6 C           7.9088   76.6051   24.4697 C.ar    1  UNL1        0.0080
      7 C           7.0587   76.4152   23.3774 C.ar    1  UNL1        0.0148
      8 C           7.2250   77.1714   22.2077 C.ar    1  UNL1        0.0502
      9 C           8.2535   78.1252   22.1512 C.ar    1  UNL1        0.0443
     10 C           9.1050   78.3201   23.2432 C.ar    1  UNL1        0.1457
     11 F          10.1208   79.2126   23.1267 F       1  UNL1       -0.2040
     12 N           6.3407   76.9848   21.0866 N.pl3   1  UNL1       -0.3040
     13 C           5.3602   78.0174   20.7261 C.3     1  UNL1        0.1122
     14 C           3.9591   77.4031   20.6861 C.3     1  UNL1        0.1123
     15 N           3.9657   76.1161   19.9771 N.pl3   1  UNL1       -0.3034
     16 C           5.1947   75.6035   19.3623 C.3     1  UNL1        0.1123
     17 C           6.3620   75.7089   20.3527 C.3     1  UNL1        0.1122
     18 C           2.7199   75.4543   19.7259 C.ar    1  UNL1        0.0587
     19 C           1.7217   76.1099   18.9915 C.ar    1  UNL1        0.0162
     20 C           0.5011   75.4768   18.7416 C.ar    1  UNL1        0.0127
     21 C           0.2722   74.1828   19.2200 C.ar    1  UNL1        0.0586
     22 CL         -1.2596   73.3888   18.9042 Cl      1  UNL1       -0.0822
     23 C           1.2677   73.5200   19.9460 C.ar    1  UNL1        0.0240
     24 C           2.4923   74.1495   20.1998 C.ar    1  UNL1        0.0718
     25 CL          3.7378   73.2753   21.0809 Cl      1  UNL1       -0.0809
     26 C          10.1006   77.6242   28.1533 C.3     1  UNL1        0.1535
     27 C           9.6216   78.9520   28.6982 C.2     1  UNL1        0.2443
     28 O           8.5043   79.4184   28.3470 O.2     1  UNL1       -0.2730
     29 N          10.4619   79.6912   29.6002 N.am    1  UNL1       -0.2825
     30 H          11.4819   79.4623   29.6065 H       1  UNL1        0.1549
     31 C          10.0057   80.7316   30.4843 C.ar    1  UNL1        0.0535
     32 C          10.2084   82.0937   30.1984 C.ar    1  UNL1        0.0353
     33 C           9.7012   83.0638   31.0661 C.ar    1  UNL1        0.1002
     34 N           9.0077   82.6936   32.1745 N.ar    1  UNL1       -0.2422
     35 C           8.7838   81.3862   32.4693 C.ar    1  UNL1        0.1002
     36 C           9.2708   80.3844   31.6267 C.ar    1  UNL1        0.0353
     37 C           9.9731   76.4845   29.1863 C.3     1  UNL1        0.0569
     38 C           8.6144   75.8433   29.1429 C.ar    1  UNL1       -0.0017
     39 C           8.2784   74.6686   28.4763 C.ar    1  UNL1        0.0681
     40 N           7.0039   74.3137   28.7574 N.ar    1  UNL1       -0.3523
     41 C           6.5357   75.2475   29.6034 C.ar    1  UNL1        0.0563
     42 C           5.2803   75.2846   30.2087 C.ar    1  UNL1        0.0170
     43 C           5.0112   76.3383   31.1011 C.ar    1  UNL1        0.0015
     44 C           5.9915   77.3199   31.3655 C.ar    1  UNL1        0.0001
     45 C           7.2500   77.2566   30.7407 C.ar    1  UNL1        0.0012
     46 C           7.4887   76.1995   29.8616 C.ar    1  UNL1        0.0131
     47 H           6.4993   73.4687   28.4083 H       1  UNL1        0.1660
@<TRIPOS>BOND
     1     1     2    2
     2     2     3   am
     3     3    26    1
     4    26    37    1
     5    37    38    1
     6    38    39   ar
     7    39    40   ar
     8    40    41   ar
     9    41    42   ar
    10    42    43   ar
    11    43    44   ar
    12    44    45   ar
    13    45    46   ar
    14    26    27    1
    15    27    28    2
    16    27    29   am
    17    29    31    1
    18    31    32   ar
    19    32    33   ar
    20    33    34   ar
    21    34    35   ar
    22    35    36   ar
    23     2     5    1
    24     5     6   ar
    25     6     7   ar
    26     7     8   ar
    27     8    12    1
    28    12    13    1
    29    13    14    1
    30    14    15    1
    31    15    18    1
    32    18    19   ar
    33    19    20   ar
    34    20    21   ar
    35    21    22    1
    36    21    23   ar
    37    23    24   ar
    38    24    25    1
    39    15    16    1
    40    16    17    1
    41     8     9   ar
    42     9    10   ar
    43    10    11    1
    44    46    38   ar
    45    36    31   ar
    46    10     5   ar
    47    46    41   ar
    48    17    12    1
    49    24    18   ar
    50     3     4    1
    51    40    47    1
    52    29    30    1
@<TRIPOS>MOLECULE
*****
 47 52 0 0 0
SMALL
GASTEIGER

@<TRIPOS>ATOM
      1 O          10.5447   79.4561   22.8189 O.2     1  UNL1       -0.2701
      2 C           9.6242   78.7612   23.3289 C.2     1  UNL1        0.2483
      3 N           9.7826   78.2055   24.6482 N.am    1  UNL1       -0.2945
      4 H           9.1215   77.4549   24.9507 H       1  UNL1        0.1501
      5 C           8.4019   78.4947   22.5380 C.ar    1  UNL1        0.0808
      6 C           8.0407   79.3726   21.5023 C.ar    1  UNL1        0.0080
      7 C           6.8932   79.1392   20.7403 C.ar    1  UNL1        0.0148
      8 C           6.0745   78.0324   21.0095 C.ar    1  UNL1        0.0502
      9 C           6.4263   77.1596   22.0512 C.ar    1  UNL1        0.0443
     10 C           7.5754   77.3883   22.8146 C.ar    1  UNL1        0.1457
     11 F           7.8489   76.5516   23.8476 F       1  UNL1       -0.2040
     12 N           4.8988   77.7846   20.2157 N.pl3   1  UNL1       -0.3040
     13 C           3.5944   78.3254   20.6203 C.3     1  UNL1        0.1122
     14 C           2.5762   77.1873   20.7216 C.3     1  UNL1        0.1123
     15 N           2.6718   76.2872   19.5643 N.pl3   1  UNL1       -0.3034
     16 C           3.6082   76.5668   18.4705 C.3     1  UNL1        0.1123
     17 C           4.9929   76.9073   19.0375 C.3     1  UNL1        0.1122
     18 C           1.7093   75.2357   19.4197 C.ar    1  UNL1        0.0587
     19 C           0.5258   75.4717   18.7061 C.ar    1  UNL1        0.0162
     20 C          -0.4226   74.4557   18.5599 C.ar    1  UNL1        0.0127
     21 C          -0.1921   73.1961   19.1219 C.ar    1  UNL1        0.0586
     22 CL         -1.3826   71.9213   18.9363 Cl      1  UNL1       -0.0822
     23 C           0.9909   72.9518   19.8277 C.ar    1  UNL1        0.0240
     24 C           1.9444   73.9660   19.9778 C.ar    1  UNL1        0.0718
     25 CL          3.4386   73.6161   20.8363 Cl      1  UNL1       -0.0809
     26 C          10.8263   78.5994   25.6061 C.3     1  UNL1        0.1535
     27 C          10.2302   79.1557   26.8807 C.2     1  UNL1        0.2443
     28 O           9.5639   80.2256   26.8576 O.2     1  UNL1       -0.2730
     29 N          10.4511   78.4686   28.1237 N.am    1  UNL1       -0.2825
     30 H          11.2570   77.8045   28.1715 H       1  UNL1        0.1549
     31 C           9.6540   78.6375   29.3104 C.ar    1  UNL1        0.0535
     32 C           9.9391   79.6318   30.2636 C.ar    1  UNL1        0.0353
     33 C           9.1034   79.7843   31.3726 C.ar    1  UNL1        0.1002
     34 N           8.0163   78.9833   31.5242 N.ar    1  UNL1       -0.2422
     35 C           7.7075   78.0238   30.6129 C.ar    1  UNL1        0.1002
     36 C           8.5148   77.8399   29.4881 C.ar    1  UNL1        0.0353
     37 C          11.8067   77.4378   25.8738 C.3     1  UNL1        0.0569
     38 C          12.8347   77.3147   24.7842 C.ar    1  UNL1       -0.0017
     39 C          12.7128   76.5667   23.6167 C.ar    1  UNL1        0.0681
     40 N          13.7691   76.7874   22.8014 N.ar    1  UNL1       -0.3523
     41 C          14.5515   77.6756   23.4386 C.ar    1  UNL1        0.0563
     42 C          15.7355   78.2448   22.9720 C.ar    1  UNL1        0.0170
     43 C          16.3770   79.1926   23.7900 C.ar    1  UNL1        0.0015
     44 C          15.8269   79.5463   25.0417 C.ar    1  UNL1        0.0001
     45 C          14.6302   78.9562   25.4866 C.ar    1  UNL1        0.0012
     46 C          14.0159   78.0205   24.6533 C.ar    1  UNL1        0.0131
     47 H          13.9265   76.3718   21.8566 H       1  UNL1        0.1660
@<TRIPOS>BOND
     1     1     2    2
     2     2     3   am
     3     3    26    1
     4    26    37    1
     5    37    38    1
     6    38    39   ar
     7    39    40   ar
     8    40    41   ar
     9    41    42   ar
    10    42    43   ar
    11    43    44   ar
    12    44    45   ar
    13    45    46   ar
    14    26    27    1
    15    27    28    2
    16    27    29   am
    17    29    31    1
    18    31    32   ar
    19    32    33   ar
    20    33    34   ar
    21    34    35   ar
    22    35    36   ar
    23     2     5    1
    24     5     6   ar
    25     6     7   ar
    26     7     8   ar
    27     8    12    1
    28    12    13    1
    29    13    14    1
    30    14    15    1
    31    15    18    1
    32    18    19   ar
    33    19    20   ar
    34    20    21   ar
    35    21    22    1
    36    21    23   ar
    37    23    24   ar
    38    24    25    1
    39    15    16    1
    40    16    17    1
    41     8     9   ar
    42     9    10   ar
    43    10    11    1
    44    46    38   ar
    45    36    31   ar
    46    10     5   ar
    47    46    41   ar
    48    17    12    1
    49    24    18   ar
    50     3     4    1
    51    40    47    1
    52    29    30    1
@<TRIPOS>MOLECULE
*****
 47 52 0 0 0
SMALL
GASTEIGER

@<TRIPOS>ATOM
      1 O           4.7748   76.0280   22.1140 O.2     1  UNL1       -0.2701
      2 C           5.3189   75.1556   22.8441 C.2     1  UNL1        0.2483
      3 N           5.4172   73.7917   22.3919 N.am    1  UNL1       -0.2945
      4 H           5.6542   73.0545   23.0937 H       1  UNL1        0.1501
      5 C           5.8164   75.5463   24.1822 C.ar    1  UNL1        0.0808
      6 C           5.5373   76.8308   24.6782 C.ar    1  UNL1        0.0080
      7 C           5.9936   77.2203   25.9400 C.ar    1  UNL1        0.0148
      8 C           6.7526   76.3391   26.7242 C.ar    1  UNL1        0.0502
      9 C           7.0431   75.0589   26.2267 C.ar    1  UNL1        0.0443
     10 C           6.5861   74.6643   24.9654 C.ar    1  UNL1        0.1457
     11 F           6.9363   73.4387   24.4993 F       1  UNL1       -0.2040
     12 N           7.2119   76.7359   28.0301 N.pl3   1  UNL1       -0.3040
     13 C           6.2540   77.1044   29.0809 C.3     1  UNL1        0.1122
     14 C           6.5857   78.5014   29.6107 C.3     1  UNL1        0.1123
     15 N           8.0285   78.6490   29.8466 N.pl3   1  UNL1       -0.3034
     16 C           8.9432   77.5219   29.6361 C.3     1  UNL1        0.1123
     17 C           8.6570   76.8577   28.2828 C.3     1  UNL1        0.1122
     18 C           8.5128   79.8467   30.4662 C.ar    1  UNL1        0.0587
     19 C           8.1212   80.1575   31.7760 C.ar    1  UNL1        0.0162
     20 C           8.5841   81.3239   32.3911 C.ar    1  UNL1        0.0127
     21 C           9.4450   82.1845   31.7028 C.ar    1  UNL1        0.0586
     22 CL         10.0265   83.6474   32.4767 Cl      1  UNL1       -0.0822
     23 C           9.8464   81.8754   30.3987 C.ar    1  UNL1        0.0240
     24 C           9.3854   80.7086   29.7773 C.ar    1  UNL1        0.0718
     25 CL          9.9393   80.3280   28.1524 Cl      1  UNL1       -0.0809
     26 C           5.1863   73.3460   21.0100 C.3     1  UNL1        0.1535
     27 C           4.3664   74.3511   20.2310 C.2     1  UNL1        0.2443
     28 O           3.1166   74.4094   20.3854 O.2     1  UNL1       -0.2730
     29 N           5.0200   75.2227   19.2934 N.am    1  UNL1       -0.2825
     30 H           5.9625   74.9357   18.9439 H       1  UNL1        0.1549
     31 C           4.4676   76.4530   18.7900 C.ar    1  UNL1        0.0535
     32 C           3.2071   76.5037   18.1681 C.ar    1  UNL1        0.0353
     33 C           2.6967   77.7324   17.7424 C.ar    1  UNL1        0.1002
     34 N           3.4095   78.8727   17.9370 N.ar    1  UNL1       -0.2422
     35 C           4.6234   78.8569   18.5475 C.ar    1  UNL1        0.1002
     36 C           5.1690   77.6502   18.9912 C.ar    1  UNL1        0.0353
     37 C           6.5147   72.9986   20.3052 C.3     1  UNL1        0.0569
     38 C           7.6918   73.1579   21.2262 C.ar    1  UNL1       -0.0017
     39 C           8.4039   72.1308   21.8388 C.ar    1  UNL1        0.0681
     40 N           9.4791   72.6260   22.4931 N.ar    1  UNL1       -0.3523
     41 C           9.4582   73.9547   22.2906 C.ar    1  UNL1        0.0563
     42 C          10.3925   74.8905   22.7323 C.ar    1  UNL1        0.0170
     43 C          10.1989   76.2356   22.3684 C.ar    1  UNL1        0.0015
     44 C           9.0888   76.6108   21.5801 C.ar    1  UNL1        0.0001
     45 C           8.1625   75.6447   21.1480 C.ar    1  UNL1        0.0012
     46 C           8.3811   74.3185   21.5233 C.ar    1  UNL1        0.0131
     47 H          10.1940   72.0797   23.0229 H       1  UNL1        0.1660
@<TRIPOS>BOND
     1     1     2    2
     2     2     3   am
     3     3    26    1
     4    26    37    1
     5    37    38    1
     6    38    39   ar
     7    39    40   ar
     8    40    41   ar
     9    41    42   ar
    10    42    43   ar
    11    43    44   ar
    12    44    45   ar
    13    45    46   ar
    14    26    27    1
    15    27    28    2
    16    27    29   am
    17    29    31    1
    18    31    32   ar
    19    32    33   ar
    20    33    34   ar
    21    34    35   ar
    22    35    36   ar
    23     2     5    1
    24     5     6   ar
    25     6     7   ar
    26     7     8   ar
    27     8    12    1
    28    12    13    1
    29    13    14    1
    30    14    15    1
    31    15    18    1
    32    18    19   ar
    33    19    20   ar
    34    20    21   ar
    35    21    22    1
    36    21    23   ar
    37    23    24   ar
    38    24    25    1
    39    15    16    1
    40    16    17    1
    41     8     9   ar
    42     9    10   ar
    43    10    11    1
    44    46    38   ar
    45    36    31   ar
    46    10     5   ar
    47    46    41   ar
    48    17    12    1
    49    24    18   ar
    50     3     4    1
    51    40    47    1
    52    29    30    1
@<TRIPOS>MOLECULE
*****
 47 52 0 0 0
SMALL
GASTEIGER

@<TRIPOS>ATOM
      1 O          10.1027   79.8210   22.9555 O.2     1  UNL1       -0.2701
      2 C           9.7186   78.6465   22.7043 C.2     1  UNL1        0.2483
      3 N          10.5731   77.5258   23.0017 N.am    1  UNL1       -0.2945
      4 H          10.3383   76.5996   22.5788 H       1  UNL1        0.1501
      5 C           8.3989   78.4425   22.0658 C.ar    1  UNL1        0.0808
      6 C           8.0313   79.2340   20.9648 C.ar    1  UNL1        0.0080
      7 C           6.7923   79.0569   20.3440 C.ar    1  UNL1        0.0148
      8 C           5.8889   78.0961   20.8222 C.ar    1  UNL1        0.0502
      9 C           6.2485   77.3115   21.9293 C.ar    1  UNL1        0.0443
     10 C           7.4887   77.4840   22.5520 C.ar    1  UNL1        0.1457
     11 F           7.7738   76.7436   23.6530 F       1  UNL1       -0.2040
     12 N           4.6171   77.9047   20.1743 N.pl3   1  UNL1       -0.3040
     13 C           3.3678   78.2730   20.8533 C.3     1  UNL1        0.1122
     14 C           2.4298   77.0644   20.8931 C.3     1  UNL1        0.1123
     15 N           2.3861   76.3855   19.5907 N.pl3   1  UNL1       -0.3034
     16 C           3.1288   76.9152   18.4422 C.3     1  UNL1        0.1123
     17 C           4.5677   77.2516   18.8560 C.3     1  UNL1        0.1122
     18 C           1.4612   75.3082   19.3989 C.ar    1  UNL1        0.0587
     19 C           0.2577   75.5399   18.7181 C.ar    1  UNL1        0.0162
     20 C          -0.6545   74.4986   18.5265 C.ar    1  UNL1        0.0127
     21 C          -0.3675   73.2181   19.0098 C.ar    1  UNL1        0.0586
     22 CL         -1.5126   71.9116   18.7672 Cl      1  UNL1       -0.0822
     23 C           0.8357   72.9785   19.6823 C.ar    1  UNL1        0.0240
     24 C           1.7530   74.0180   19.8777 C.ar    1  UNL1        0.0718
     25 CL          3.2737   73.6761   20.6917 Cl      1  UNL1       -0.0809
     26 C          11.7759   77.5871   23.8451 C.3     1  UNL1        0.1535
     27 C          11.4658   78.1460   25.2166 C.2     1  UNL1        0.2443
     28 O          12.0408   79.1919   25.6226 O.2     1  UNL1       -0.2730
     29 N          10.5290   77.4609   26.0646 N.am    1  UNL1       -0.2825
     30 H          10.3343   76.4554   25.8550 H       1  UNL1        0.1549
     31 C           9.8506   78.0522   27.1880 C.ar    1  UNL1        0.0535
     32 C          10.3673   77.9763   28.4941 C.ar    1  UNL1        0.0353
     33 C           9.6935   78.6107   29.5405 C.ar    1  UNL1        0.1002
     34 N           8.5514   79.3050   29.2963 N.ar    1  UNL1       -0.2422
     35 C           8.0359   79.4078   28.0432 C.ar    1  UNL1        0.1002
     36 C           8.6798   78.7913   26.9679 C.ar    1  UNL1        0.0353
     37 C          12.4803   76.2155   23.9149 C.3     1  UNL1        0.0569
     38 C          11.5039   75.0808   23.7801 C.ar    1  UNL1       -0.0017
     39 C          10.2233   75.0265   24.3227 C.ar    1  UNL1        0.0681
     40 N           9.5754   73.9189   23.8951 N.ar    1  UNL1       -0.3523
     41 C          10.4311   73.2790   23.0794 C.ar    1  UNL1        0.0563
     42 C          10.1960   72.1077   22.3608 C.ar    1  UNL1        0.0170
     43 C          11.2235   71.6300   21.5271 C.ar    1  UNL1        0.0015
     44 C          12.4487   72.3257   21.4313 C.ar    1  UNL1        0.0001
     45 C          12.6576   73.5057   22.1676 C.ar    1  UNL1        0.0012
     46 C          11.6201   73.9561   22.9850 C.ar    1  UNL1        0.0131
     47 H           8.5980   73.6369   24.1307 H       1  UNL1        0.1660
@<TRIPOS>BOND
     1     1     2    2
     2     2     3   am
     3     3    26    1
     4    26    37    1
     5    37    38    1
     6    38    39   ar
     7    39    40   ar
     8    40    41   ar
     9    41    42   ar
    10    42    43   ar
    11    43    44   ar
    12    44    45   ar
    13    45    46   ar
    14    26    27    1
    15    27    28    2
    16    27    29   am
    17    29    31    1
    18    31    32   ar
    19    32    33   ar
    20    33    34   ar
    21    34    35   ar
    22    35    36   ar
    23     2     5    1
    24     5     6   ar
    25     6     7   ar
    26     7     8   ar
    27     8    12    1
    28    12    13    1
    29    13    14    1
    30    14    15    1
    31    15    18    1
    32    18    19   ar
    33    19    20   ar
    34    20    21   ar
    35    21    22    1
    36    21    23   ar
    37    23    24   ar
    38    24    25    1
    39    15    16    1
    40    16    17    1
    41     8     9   ar
    42     9    10   ar
    43    10    11    1
    44    46    38   ar
    45    36    31   ar
    46    10     5   ar
    47    46    41   ar
    48    17    12    1
    49    24    18   ar
    50     3     4    1
    51    40    47    1
    52    29    30    1
@<TRIPOS>MOLECULE
*****
 47 52 0 0 0
SMALL
GASTEIGER

@<TRIPOS>ATOM
      1 O           7.2048   76.7417   21.2833 O.2     1  UNL1       -0.2701
      2 C           7.6693   76.3763   22.3973 C.2     1  UNL1        0.2483
      3 N           7.2301   75.1419   22.9954 N.am    1  UNL1       -0.2945
      4 H           7.4457   74.9778   24.0046 H       1  UNL1        0.1501
      5 C           8.6380   77.2517   23.0945 C.ar    1  UNL1        0.0808
      6 C           8.9631   78.5029   22.5444 C.ar    1  UNL1        0.0080
      7 C           9.8721   79.3473   23.1867 C.ar    1  UNL1        0.0148
      8 C          10.4872   78.9505   24.3834 C.ar    1  UNL1        0.0502
      9 C          10.1733   77.6960   24.9297 C.ar    1  UNL1        0.0443
     10 C           9.2621   76.8489   24.2912 C.ar    1  UNL1        0.1457
     11 F           9.0290   75.6224   24.8234 F       1  UNL1       -0.2040
     12 N          11.4144   79.8262   25.0522 N.pl3   1  UNL1       -0.3040
     13 C          10.9536   80.7421   26.1041 C.3     1  UNL1        0.1122
     14 C          11.3628   82.1744   25.7527 C.3     1  UNL1        0.1123
     15 N          12.7562   82.2281   25.2897 N.pl3   1  UNL1       -0.3034
     16 C          13.5876   81.0200   25.2677 C.3     1  UNL1        0.1123
     17 C          12.8189   79.8643   24.6134 C.3     1  UNL1        0.1122
     18 C          13.3568   83.5046   25.0388 C.ar    1  UNL1        0.0587
     19 C          13.3499   84.0313   23.7396 C.ar    1  UNL1        0.0162
     20 C          13.9346   85.2740   23.4806 C.ar    1  UNL1        0.0127
     21 C          14.5258   86.0001   24.5194 C.ar    1  UNL1        0.0586
     22 CL         15.2580   87.5603   24.1933 Cl      1  UNL1       -0.0822
     23 C          14.5282   85.4837   25.8196 C.ar    1  UNL1        0.0240
     24 C          13.9444   84.2391   26.0848 C.ar    1  UNL1        0.0718
     25 CL         13.9284   83.6355   27.7363 Cl      1  UNL1       -0.0809
     26 C           6.4747   74.0918   22.2965 C.3     1  UNL1        0.1535
     27 C           5.1616   74.6162   21.7578 C.2     1  UNL1        0.2443
     28 O           4.4260   75.3471   22.4746 O.2     1  UNL1       -0.2730
     29 N           4.7460   74.2534   20.4304 N.am    1  UNL1       -0.2825
     30 H           5.1845   73.4067   20.0020 H       1  UNL1        0.1549
     31 C           3.7618   74.9608   19.6539 C.ar    1  UNL1        0.0535
     32 C           2.3868   74.8732   19.9366 C.ar    1  UNL1        0.0353
     33 C           1.4784   75.6199   19.1825 C.ar    1  UNL1        0.1002
     34 N           1.9216   76.4334   18.1885 N.ar    1  UNL1       -0.2422
     35 C           3.2448   76.5494   17.9015 C.ar    1  UNL1        0.1002
     36 C           4.1868   75.8229   18.6332 C.ar    1  UNL1        0.0353
     37 C           7.3321   73.4197   21.2033 C.3     1  UNL1        0.0569
     38 C           8.4864   72.6574   21.7913 C.ar    1  UNL1       -0.0017
     39 C           8.5350   71.2862   22.0250 C.ar    1  UNL1        0.0681
     40 N           9.7698   70.9207   22.4387 N.ar    1  UNL1       -0.3523
     41 C          10.5039   72.0466   22.4583 C.ar    1  UNL1        0.0563
     42 C          11.8561   72.1672   22.7756 C.ar    1  UNL1        0.0170
     43 C          12.4407   73.4439   22.6901 C.ar    1  UNL1        0.0015
     44 C          11.6696   74.5587   22.2937 C.ar    1  UNL1        0.0001
     45 C          10.3073   74.4071   21.9786 C.ar    1  UNL1        0.0012
     46 C           9.7553   73.1288   22.0713 C.ar    1  UNL1        0.0131
     47 H          10.0912   69.9540   22.6677 H       1  UNL1        0.1660
@<TRIPOS>BOND
     1     1     2    2
     2     2     3   am
     3     3    26    1
     4    26    37    1
     5    37    38    1
     6    38    39   ar
     7    39    40   ar
     8    40    41   ar
     9    41    42   ar
    10    42    43   ar
    11    43    44   ar
    12    44    45   ar
    13    45    46   ar
    14    26    27    1
    15    27    28    2
    16    27    29   am
    17    29    31    1
    18    31    32   ar
    19    32    33   ar
    20    33    34   ar
    21    34    35   ar
    22    35    36   ar
    23     2     5    1
    24     5     6   ar
    25     6     7   ar
    26     7     8   ar
    27     8    12    1
    28    12    13    1
    29    13    14    1
    30    14    15    1
    31    15    18    1
    32    18    19   ar
    33    19    20   ar
    34    20    21   ar
    35    21    22    1
    36    21    23   ar
    37    23    24   ar
    38    24    25    1
    39    15    16    1
    40    16    17    1
    41     8     9   ar
    42     9    10   ar
    43    10    11    1
    44    46    38   ar
    45    36    31   ar
    46    10     5   ar
    47    46    41   ar
    48    17    12    1
    49    24    18   ar
    50     3     4    1
    51    40    47    1
    52    29    30    1
@<TRIPOS>MOLECULE
*****
 47 52 0 0 0
SMALL
GASTEIGER

@<TRIPOS>ATOM
      1 O           9.9397   78.9055   25.3439 O.2     1  UNL1       -0.2701
      2 C           9.6195   77.7713   24.8953 C.2     1  UNL1        0.2483
      3 N          10.3005   76.5902   25.3597 N.am    1  UNL1       -0.2945
      4 H          10.1840   75.7063   24.8146 H       1  UNL1        0.1501
      5 C           8.5654   77.6787   23.8604 C.ar    1  UNL1        0.0808
      6 C           7.4135   76.9143   24.1100 C.ar    1  UNL1        0.0080
      7 C           6.4039   76.8153   23.1493 C.ar    1  UNL1        0.0148
      8 C           6.5336   77.4650   21.9128 C.ar    1  UNL1        0.0502
      9 C           7.6887   78.2203   21.6558 C.ar    1  UNL1        0.0443
     10 C           8.7003   78.3239   22.6157 C.ar    1  UNL1        0.1457
     11 F           9.8247   79.0178   22.3055 F       1  UNL1       -0.2040
     12 N           5.4873   77.3736   20.9276 N.pl3   1  UNL1       -0.3040
     13 C           4.2542   78.1590   21.0697 C.3     1  UNL1        0.1122
     14 C           3.0427   77.2250   21.0234 C.3     1  UNL1        0.1123
     15 N           3.1700   76.2470   19.9343 N.pl3   1  UNL1       -0.3034
     16 C           4.3162   76.2859   19.0199 C.3     1  UNL1        0.1123
     17 C           5.6209   76.4169   19.8169 C.3     1  UNL1        0.1122
     18 C           2.0707   75.3720   19.6534 C.ar    1  UNL1        0.0587
     19 C           0.9566   75.8594   18.9557 C.ar    1  UNL1        0.0162
     20 C          -0.1235   75.0174   18.6776 C.ar    1  UNL1        0.0127
     21 C          -0.0950   73.6817   19.0909 C.ar    1  UNL1        0.0586
     22 CL         -1.4508   72.6255   18.7398 Cl      1  UNL1       -0.0822
     23 C           1.0176   73.1871   19.7799 C.ar    1  UNL1        0.0240
     24 C           2.1023   74.0262   20.0617 C.ar    1  UNL1        0.0718
     25 CL          3.5027   73.3646   20.8943 Cl      1  UNL1       -0.0809
     26 C          11.1744   76.5339   26.5408 C.3     1  UNL1        0.1535
     27 C          12.4630   77.2944   26.3161 C.2     1  UNL1        0.2443
     28 O          13.3671   77.2884   27.1946 O.2     1  UNL1       -0.2730
     29 N          12.6388   78.0459   25.1035 N.am    1  UNL1       -0.2825
     30 H          11.7794   78.3066   24.5685 H       1  UNL1        0.1549
     31 C          13.9081   78.4776   24.5794 C.ar    1  UNL1        0.0535
     32 C          14.6209   77.7176   23.6346 C.ar    1  UNL1        0.0353
     33 C          15.8244   78.2072   23.1216 C.ar    1  UNL1        0.1002
     34 N          16.2984   79.4149   23.5257 N.ar    1  UNL1       -0.2422
     35 C          15.6249   80.1779   24.4262 C.ar    1  UNL1        0.1002
     36 C          14.4162   79.7271   24.9615 C.ar    1  UNL1        0.0353
     37 C          10.4301   77.0006   27.8097 C.3     1  UNL1        0.0569
     38 C           9.7978   75.8488   28.5396 C.ar    1  UNL1       -0.0017
     39 C          10.4184   74.6521   28.8861 C.ar    1  UNL1        0.0681
     40 N           9.5958   73.8966   29.6488 N.ar    1  UNL1       -0.3523
     41 C           8.4657   74.6095   29.7958 C.ar    1  UNL1        0.0563
     42 C           7.3399   74.2626   30.5413 C.ar    1  UNL1        0.0170
     43 C           6.2768   75.1824   30.5941 C.ar    1  UNL1        0.0015
     44 C           6.3618   76.4142   29.9086 C.ar    1  UNL1        0.0001
     45 C           7.5107   76.7379   29.1647 C.ar    1  UNL1        0.0012
     46 C           8.5495   75.8067   29.1316 C.ar    1  UNL1        0.0131
     47 H           9.8102   72.9617   30.0617 H       1  UNL1        0.1660
@<TRIPOS>BOND
     1     1     2    2
     2     2     3   am
     3     3    26    1
     4    26    37    1
     5    37    38    1
     6    38    39   ar
     7    39    40   ar
     8    40    41   ar
     9    41    42   ar
    10    42    43   ar
    11    43    44   ar
    12    44    45   ar
    13    45    46   ar
    14    26    27    1
    15    27    28    2
    16    27    29   am
    17    29    31    1
    18    31    32   ar
    19    32    33   ar
    20    33    34   ar
    21    34    35   ar
    22    35    36   ar
    23     2     5    1
    24     5     6   ar
    25     6     7   ar
    26     7     8   ar
    27     8    12    1
    28    12    13    1
    29    13    14    1
    30    14    15    1
    31    15    18    1
    32    18    19   ar
    33    19    20   ar
    34    20    21   ar
    35    21    22    1
    36    21    23   ar
    37    23    24   ar
    38    24    25    1
    39    15    16    1
    40    16    17    1
    41     8     9   ar
    42     9    10   ar
    43    10    11    1
    44    46    38   ar
    45    36    31   ar
    46    10     5   ar
    47    46    41   ar
    48    17    12    1
    49    24    18   ar
    50     3     4    1
    51    40    47    1
    52    29    30    1
@<TRIPOS>MOLECULE
*****
 47 52 0 0 0
SMALL
GASTEIGER

@<TRIPOS>ATOM
      1 O           8.9798   75.8738   27.0142 O.2     1  UNL1       -0.2701
      2 C           9.1314   76.3106   25.8410 C.2     1  UNL1        0.2483
      3 N           8.4774   75.6590   24.7354 N.am    1  UNL1       -0.2945
      4 H           8.7973   75.8885   23.7674 H       1  UNL1        0.1501
      5 C          10.0193   77.4732   25.6156 C.ar    1  UNL1        0.0808
      6 C           9.6486   78.7351   26.1094 C.ar    1  UNL1        0.0080
      7 C          10.4726   79.8460   25.9117 C.ar    1  UNL1        0.0148
      8 C          11.6758   79.7207   25.2015 C.ar    1  UNL1        0.0502
      9 C          12.0436   78.4635   24.6968 C.ar    1  UNL1        0.0443
     10 C          11.2229   77.3486   24.8947 C.ar    1  UNL1        0.1457
     11 F          11.5883   76.1639   24.3425 F       1  UNL1       -0.2040
     12 N          12.5313   80.8630   25.0089 N.pl3   1  UNL1       -0.3040
     13 C          13.9591   80.7948   25.3469 C.3     1  UNL1        0.1122
     14 C          14.3099   81.9209   26.3221 C.3     1  UNL1        0.1123
     15 N          13.7156   83.1950   25.8950 N.pl3   1  UNL1       -0.3034
     16 C          12.9570   83.2877   24.6431 C.3     1  UNL1        0.1123
     17 C          11.9479   82.1352   24.5529 C.3     1  UNL1        0.1122
     18 C          14.0427   84.3905   26.6139 C.ar    1  UNL1        0.0587
     19 C          14.1693   84.3482   28.0095 C.ar    1  UNL1        0.0162
     20 C          14.4852   85.5075   28.7232 C.ar    1  UNL1        0.0127
     21 C          14.6813   86.7153   28.0461 C.ar    1  UNL1        0.0586
     22 CL         15.0794   88.1693   28.9429 Cl      1  UNL1       -0.0822
     23 C          14.5650   86.7621   26.6527 C.ar    1  UNL1        0.0240
     24 C          14.2481   85.6040   25.9326 C.ar    1  UNL1        0.0718
     25 CL         14.1480   85.6868   24.1790 Cl      1  UNL1       -0.0809
     26 C           7.3980   74.6689   24.8630 C.3     1  UNL1        0.1535
     27 C           6.0717   75.3286   25.1716 C.2     1  UNL1        0.2443
     28 O           5.7701   75.6268   26.3588 O.2     1  UNL1       -0.2730
     29 N           5.1459   75.5896   24.1035 N.am    1  UNL1       -0.2825
     30 H           5.2645   75.0462   23.2184 H       1  UNL1        0.1549
     31 C           4.0603   76.5328   24.1674 C.ar    1  UNL1        0.0535
     32 C           3.3052   76.7208   25.3391 C.ar    1  UNL1        0.0353
     33 C           2.2946   77.6850   25.3614 C.ar    1  UNL1        0.1002
     34 N           2.0494   78.4433   24.2608 N.ar    1  UNL1       -0.2422
     35 C           2.7715   78.2942   23.1194 C.ar    1  UNL1        0.1002
     36 C           3.7930   77.3439   23.0555 C.ar    1  UNL1        0.0353
     37 C           7.3258   73.7571   23.6198 C.3     1  UNL1        0.0569
     38 C           8.4404   74.0445   22.6532 C.ar    1  UNL1       -0.0017
     39 C           8.5027   75.1103   21.7603 C.ar    1  UNL1        0.0681
     40 N           9.7032   75.1359   21.1379 N.ar    1  UNL1       -0.3523
     41 C          10.4031   74.1025   21.6371 C.ar    1  UNL1        0.0563
     42 C          11.7168   73.7479   21.3337 C.ar    1  UNL1        0.0170
     43 C          12.2737   72.6467   22.0092 C.ar    1  UNL1        0.0015
     44 C          11.5138   71.9329   22.9619 C.ar    1  UNL1        0.0001
     45 C          10.1906   72.3140   23.2484 C.ar    1  UNL1        0.0012
     46 C           9.6656   73.4108   22.5638 C.ar    1  UNL1        0.0131
     47 H          10.0270   75.8358   20.4337 H       1  UNL1        0.1660
@<TRIPOS>BOND
     1     1     2    2
     2     2     3   am
     3     3    26    1
     4    26    37    1
     5    37    38    1
     6    38    39   ar
     7    39    40   ar
     8    40    41   ar
     9    41    42   ar
    10    42    43   ar
    11    43    44   ar
    12    44    45   ar
    13    45    46   ar
    14    26    27    1
    15    27    28    2
    16    27    29   am
    17    29    31    1
    18    31    32   ar
    19    32    33   ar
    20    33    34   ar
    21    34    35   ar
    22    35    36   ar
    23     2     5    1
    24     5     6   ar
    25     6     7   ar
    26     7     8   ar
    27     8    12    1
    28    12    13    1
    29    13    14    1
    30    14    15    1
    31    15    18    1
    32    18    19   ar
    33    19    20   ar
    34    20    21   ar
    35    21    22    1
    36    21    23   ar
    37    23    24   ar
    38    24    25    1
    39    15    16    1
    40    16    17    1
    41     8     9   ar
    42     9    10   ar
    43    10    11    1
    44    46    38   ar
    45    36    31   ar
    46    10     5   ar
    47    46    41   ar
    48    17    12    1
    49    24    18   ar
    50     3     4    1
    51    40    47    1
    52    29    30    1
@<TRIPOS>MOLECULE
*****
 47 52 0 0 0
SMALL
GASTEIGER

@<TRIPOS>ATOM
      1 O           9.3181   75.9117   26.8946 O.2     1  UNL1       -0.2701
      2 C           8.2996   76.5633   26.5364 C.2     1  UNL1        0.2483
      3 N           7.8118   77.6485   27.3481 N.am    1  UNL1       -0.2945
      4 H           6.8515   78.0143   27.1584 H       1  UNL1        0.1501
      5 C           7.5946   76.1709   25.2955 C.ar    1  UNL1        0.0808
      6 C           8.1946   76.4175   24.0494 C.ar    1  UNL1        0.0080
      7 C           7.5493   76.0526   22.8651 C.ar    1  UNL1        0.0148
      8 C           6.2836   75.4491   22.9024 C.ar    1  UNL1        0.0502
      9 C           5.6762   75.2118   24.1456 C.ar    1  UNL1        0.0443
     10 C           6.3198   75.5733   25.3334 C.ar    1  UNL1        0.1457
     11 F           5.6737   75.3770   26.5106 F       1  UNL1       -0.2040
     12 N           5.6242   75.0613   21.6824 N.pl3   1  UNL1       -0.3040
     13 C           5.3385   76.0534   20.6375 C.3     1  UNL1        0.1122
     14 C           3.8448   76.0327   20.3050 C.3     1  UNL1        0.1123
     15 N           3.3529   74.6553   20.1651 N.pl3   1  UNL1       -0.3034
     16 C           4.2686   73.5153   20.2800 C.3     1  UNL1        0.1123
     17 C           5.1546   73.6754   21.5226 C.3     1  UNL1        0.1122
     18 C           2.0061   74.4390   19.7266 C.ar    1  UNL1        0.0587
     19 C           1.2913   73.3303   20.2014 C.ar    1  UNL1        0.0162
     20 C          -0.0221   73.1062   19.7796 C.ar    1  UNL1        0.0127
     21 C          -0.6310   73.9912   18.8844 C.ar    1  UNL1        0.0586
     22 CL         -2.2801   73.7096   18.3571 Cl      1  UNL1       -0.0822
     23 C           0.0740   75.1042   18.4138 C.ar    1  UNL1        0.0240
     24 C           1.3902   75.3335   18.8324 C.ar    1  UNL1        0.0718
     25 CL          2.2359   76.7626   18.2540 Cl      1  UNL1       -0.0809
     26 C           8.5576   78.2751   28.4494 C.3     1  UNL1        0.1535
     27 C           9.5818   79.2635   27.9362 C.2     1  UNL1        0.2443
     28 O          10.3712   79.8351   28.7358 O.2     1  UNL1       -0.2730
     29 N           9.6314   79.5660   26.5319 N.am    1  UNL1       -0.2825
     30 H           8.7814   79.3526   25.9620 H       1  UNL1        0.1549
     31 C          10.7584   80.1530   25.8557 C.ar    1  UNL1        0.0535
     32 C          10.8781   81.5430   25.6768 C.ar    1  UNL1        0.0353
     33 C          12.0169   82.0634   25.0573 C.ar    1  UNL1        0.1002
     34 N          13.0072   81.2324   24.6390 N.ar    1  UNL1       -0.2422
     35 C          12.9262   79.8869   24.8108 C.ar    1  UNL1        0.1002
     36 C          11.8063   79.3254   25.4283 C.ar    1  UNL1        0.0353
     37 C           7.6018   78.9038   29.4854 C.3     1  UNL1        0.0569
     38 C           6.2994   78.1577   29.5660 C.ar    1  UNL1       -0.0017
     39 C           5.0508   78.6351   29.1787 C.ar    1  UNL1        0.0681
     40 N           4.1223   77.6555   29.2661 N.ar    1  UNL1       -0.3523
     41 C           4.7750   76.5615   29.6950 C.ar    1  UNL1        0.0563
     42 C           4.2463   75.2870   29.8939 C.ar    1  UNL1        0.0170
     43 C           5.1233   74.2683   30.3089 C.ar    1  UNL1        0.0015
     44 C           6.4934   74.5431   30.5132 C.ar    1  UNL1        0.0001
     45 C           6.9992   75.8387   30.3040 C.ar    1  UNL1        0.0012
     46 C           6.1060   76.8283   29.8914 C.ar    1  UNL1        0.0131
     47 H           3.1099   77.7308   29.0213 H       1  UNL1        0.1660
@<TRIPOS>BOND
     1     1     2    2
     2     2     3   am
     3     3    26    1
     4    26    37    1
     5    37    38    1
     6    38    39   ar
     7    39    40   ar
     8    40    41   ar
     9    41    42   ar
    10    42    43   ar
    11    43    44   ar
    12    44    45   ar
    13    45    46   ar
    14    26    27    1
    15    27    28    2
    16    27    29   am
    17    29    31    1
    18    31    32   ar
    19    32    33   ar
    20    33    34   ar
    21    34    35   ar
    22    35    36   ar
    23     2     5    1
    24     5     6   ar
    25     6     7   ar
    26     7     8   ar
    27     8    12    1
    28    12    13    1
    29    13    14    1
    30    14    15    1
    31    15    18    1
    32    18    19   ar
    33    19    20   ar
    34    20    21   ar
    35    21    22    1
    36    21    23   ar
    37    23    24   ar
    38    24    25    1
    39    15    16    1
    40    16    17    1
    41     8     9   ar
    42     9    10   ar
    43    10    11    1
    44    46    38   ar
    45    36    31   ar
    46    10     5   ar
    47    46    41   ar
    48    17    12    1
    49    24    18   ar
    50     3     4    1
    51    40    47    1
    52    29    30    1
