@<TRIPOS>MOLECULE
*****
 25 28 0 0 0
SMALL
GASTEIGER

@<TRIPOS>ATOM
      1 C          49.6161   14.0168  -23.1943 C.3     1  UNL1        0.1427
      2 O          50.9397   13.6347  -22.9061 O.3     1  UNL1       -0.3752
      3 C          49.5249   15.5616  -23.3142 C.3     1  UNL1        0.0499
      4 C          48.5007   15.8749  -24.4308 C.3     1  UNL1        0.0562
      5 I          46.9557   17.1879  -23.7073 I       1  UNL1       -0.0752
      6 C          47.9576   14.5043  -24.8357 C.3     1  UNL1        0.0132
      7 C          47.3664   14.2732  -26.2327 C.3     1  UNL1        0.0052
      8 C          46.3537   15.3131  -26.7316 C.3     1  UNL1        0.0050
      9 C          45.8025   14.9355  -28.1387 C.3     1  UNL1        0.0261
     10 C          46.0523   13.4961  -28.5955 C.ar    1  UNL1       -0.0231
     11 C          45.8394   13.1747  -29.9447 C.ar    1  UNL1        0.0320
     12 C          46.1190   11.8933  -30.4246 C.ar    1  UNL1        0.1333
     13 O          45.9032   11.6012  -31.7696 O.3     1  UNL1       -0.5055
     14 C          46.6203   10.9186  -29.5557 C.ar    1  UNL1        0.0363
     15 C          46.8265   11.2132  -28.2062 C.ar    1  UNL1       -0.0015
     16 C          46.5235   12.4939  -27.7046 C.ar    1  UNL1       -0.0263
     17 C          46.6645   12.8899  -26.2508 C.3     1  UNL1        0.0221
     18 C          47.1902   11.8521  -25.1926 C.3     1  UNL1        0.0045
     19 C          48.6460   12.0314  -24.6962 C.3     1  UNL1        0.0036
     20 C          49.1307   13.5214  -24.5924 C.3     1  UNL1        0.0341
     21 C          50.3000   13.7007  -25.6253 C.3     1  UNL1        0.0033
     22 H          50.9677   12.6415  -22.9006 H       1  UNL1        0.2114
     23 H          46.0982   10.6826  -32.1501 H       1  UNL1        0.2922
     24 C          48.0140   13.1907  -21.1962 C.1     1  UNL1       -0.0119
     25 C          48.7310   13.5622  -22.0914 C.1     1  UNL1       -0.0526
@<TRIPOS>BOND
     1    24    25    3
     2     1    25    1
     3     1     2    1
     4     1     3    1
     5     3     4    1
     6     4     5    1
     7     4     6    1
     8     6     7    1
     9     7     8    1
    10     8     9    1
    11     9    10    1
    12    10    11   ar
    13    11    12   ar
    14    12    13    1
    15    12    14   ar
    16    14    15   ar
    17    15    16   ar
    18    16    17    1
    19    17    18    1
    20    18    19    1
    21    19    20    1
    22    20    21    1
    23    20     1    1
    24    20     6    1
    25    17     7    1
    26    16    10   ar
    27     2    22    1
    28    13    23    1
@<TRIPOS>MOLECULE
*****
 25 28 0 0 0
SMALL
GASTEIGER

@<TRIPOS>ATOM
      1 C          46.6679   12.5346  -23.1551 C.3     1  UNL1        0.1427
      2 O          45.3120   12.1575  -23.1417 O.3     1  UNL1       -0.3752
      3 C          47.5061   11.4703  -23.9125 C.3     1  UNL1        0.0499
      4 C          48.6141   12.2245  -24.6855 C.3     1  UNL1        0.0562
      5 I          50.5594   11.4472  -24.1897 I       1  UNL1       -0.0752
      6 C          48.4431   13.6822  -24.2570 C.3     1  UNL1        0.0132
      7 C          48.9243   14.8285  -25.1564 C.3     1  UNL1        0.0052
      8 C          50.3413   14.7022  -25.7326 C.3     1  UNL1        0.0050
      9 C          50.7169   15.9487  -26.5877 C.3     1  UNL1        0.0261
     10 C          49.8241   17.1796  -26.4118 C.ar    1  UNL1       -0.0231
     11 C          49.9290   18.2224  -27.3449 C.ar    1  UNL1        0.0320
     12 C          49.0884   19.3351  -27.2674 C.ar    1  UNL1        0.1333
     13 O          49.2098   20.3546  -28.2090 O.3     1  UNL1       -0.5055
     14 C          48.1281   19.4128  -26.2534 C.ar    1  UNL1        0.0363
     15 C          48.0161   18.3926  -25.3061 C.ar    1  UNL1       -0.0015
     16 C          48.8755   17.2780  -25.3580 C.ar    1  UNL1       -0.0263
     17 C          48.8638   16.1511  -24.3479 C.3     1  UNL1        0.0221
     18 C          47.8410   16.1661  -23.1534 C.3     1  UNL1        0.0045
     19 C          46.6314   15.2044  -23.2525 C.3     1  UNL1        0.0036
     20 C          46.9283   13.8397  -23.9703 C.3     1  UNL1        0.0341
     21 C          46.0542   13.8031  -25.2745 C.3     1  UNL1        0.0033
     22 H          44.8038   12.8918  -22.7059 H       1  UNL1        0.2114
     23 H          48.6140   21.1737  -28.1827 H       1  UNL1        0.2922
     24 C          47.5554   12.7089  -20.6206 C.1     1  UNL1       -0.0119
     25 C          47.1563   12.6315  -21.7557 C.1     1  UNL1       -0.0526
@<TRIPOS>BOND
     1    24    25    3
     2     1    25    1
     3     1     2    1
     4     1     3    1
     5     3     4    1
     6     4     5    1
     7     4     6    1
     8     6     7    1
     9     7     8    1
    10     8     9    1
    11     9    10    1
    12    10    11   ar
    13    11    12   ar
    14    12    13    1
    15    12    14   ar
    16    14    15   ar
    17    15    16   ar
    18    16    17    1
    19    17    18    1
    20    18    19    1
    21    19    20    1
    22    20    21    1
    23    20     1    1
    24    20     6    1
    25    17     7    1
    26    16    10   ar
    27     2    22    1
    28    13    23    1
@<TRIPOS>MOLECULE
*****
 25 28 0 0 0
SMALL
GASTEIGER

@<TRIPOS>ATOM
      1 C          49.1289   17.4255  -26.3810 C.3     1  UNL1        0.1427
      2 O          50.4421   17.7638  -26.7581 O.3     1  UNL1       -0.3752
      3 C          48.3313   16.9377  -27.6199 C.3     1  UNL1        0.0499
      4 C          47.3914   15.8049  -27.1430 C.3     1  UNL1        0.0562
      5 I          45.3490   16.2284  -27.6756 I       1  UNL1       -0.0752
      6 C          47.6006   15.7578  -25.6292 C.3     1  UNL1        0.0132
      7 C          47.3238   14.4737  -24.8360 C.3     1  UNL1        0.0052
      8 C          45.9926   13.7640  -25.1190 C.3     1  UNL1        0.0050
      9 C          45.8210   12.5046  -24.2186 C.3     1  UNL1        0.0261
     10 C          46.7626   12.4035  -23.0160 C.ar    1  UNL1       -0.0231
     11 C          46.8554   11.1780  -22.3387 C.ar    1  UNL1        0.0320
     12 C          47.7508   11.0155  -21.2793 C.ar    1  UNL1        0.1333
     13 O          47.8269    9.7871  -20.6265 O.3     1  UNL1       -0.5055
     14 C          48.5680   12.0813  -20.8887 C.ar    1  UNL1        0.0363
     15 C          48.4818   13.3138  -21.5400 C.ar    1  UNL1       -0.0015
     16 C          47.5643   13.4981  -22.5925 C.ar    1  UNL1       -0.0263
     17 C          47.3632   14.8088  -23.3218 C.3     1  UNL1        0.0221
     18 C          48.2136   16.0729  -22.9319 C.3     1  UNL1        0.0045
     19 C          49.3580   16.4739  -23.8950 C.3     1  UNL1        0.0036
     20 C          49.0697   16.2017  -25.4145 C.3     1  UNL1        0.0341
     21 C          50.1079   15.1266  -25.8970 C.3     1  UNL1        0.0033
     22 H          50.9348   18.0087  -25.9308 H       1  UNL1        0.2114
     23 H          48.4675    9.6353  -19.8562 H       1  UNL1        0.2922
     24 C          47.9211   19.6039  -25.3624 C.1     1  UNL1       -0.0119
     25 C          48.4632   18.6278  -25.8175 C.1     1  UNL1       -0.0526
@<TRIPOS>BOND
     1    24    25    3
     2     1    25    1
     3     1     2    1
     4     1     3    1
     5     3     4    1
     6     4     5    1
     7     4     6    1
     8     6     7    1
     9     7     8    1
    10     8     9    1
    11     9    10    1
    12    10    11   ar
    13    11    12   ar
    14    12    13    1
    15    12    14   ar
    16    14    15   ar
    17    15    16   ar
    18    16    17    1
    19    17    18    1
    20    18    19    1
    21    19    20    1
    22    20    21    1
    23    20     1    1
    24    20     6    1
    25    17     7    1
    26    16    10   ar
    27     2    22    1
    28    13    23    1
@<TRIPOS>MOLECULE
*****
 25 28 0 0 0
SMALL
GASTEIGER

@<TRIPOS>ATOM
      1 C          48.3103   12.5032  -22.4178 C.3     1  UNL1        0.1427
      2 O          48.7089   12.5841  -21.0704 O.3     1  UNL1       -0.3752
      3 C          46.7645   12.3960  -22.5073 C.3     1  UNL1        0.0499
      4 C          46.3214   13.1921  -23.7579 C.3     1  UNL1        0.0562
      5 I          45.1355   11.9631  -25.0683 I       1  UNL1       -0.0752
      6 C          47.6345   13.6342  -24.4043 C.3     1  UNL1        0.0132
      7 C          47.6886   14.8726  -25.3088 C.3     1  UNL1        0.0052
      8 C          46.6061   14.9814  -26.3915 C.3     1  UNL1        0.0050
      9 C          46.8036   16.2579  -27.2619 C.3     1  UNL1        0.0261
     10 C          48.1674   16.9442  -27.1508 C.ar    1  UNL1       -0.0231
     11 C          48.3122   18.2365  -27.6779 C.ar    1  UNL1        0.0320
     12 C          49.5158   18.9314  -27.5404 C.ar    1  UNL1        0.1333
     13 O          49.6321   20.2152  -28.0688 O.3     1  UNL1       -0.5055
     14 C          50.5891   18.3383  -26.8675 C.ar    1  UNL1        0.0363
     15 C          50.4709   17.0475  -26.3474 C.ar    1  UNL1       -0.0015
     16 C          49.2712   16.3265  -26.5026 C.ar    1  UNL1       -0.0263
     17 C          49.0671   14.9067  -26.0197 C.3     1  UNL1        0.0221
     18 C          50.2273   14.1451  -25.2801 C.3     1  UNL1        0.0045
     19 C          50.0949   13.9831  -23.7459 C.3     1  UNL1        0.0036
     20 C          48.6249   13.8018  -23.2242 C.3     1  UNL1        0.0341
     21 C          48.2961   15.0466  -22.3249 C.3     1  UNL1        0.0033
     22 H          49.6938   12.7149  -21.0593 H       1  UNL1        0.2114
     23 H          50.4903   20.7472  -27.9839 H       1  UNL1        0.2922
     24 C          49.4090   10.3095  -23.5232 C.1     1  UNL1       -0.0119
     25 C          48.9172   11.2932  -23.0293 C.1     1  UNL1       -0.0526
@<TRIPOS>BOND
     1    24    25    3
     2     1    25    1
     3     1     2    1
     4     1     3    1
     5     3     4    1
     6     4     5    1
     7     4     6    1
     8     6     7    1
     9     7     8    1
    10     8     9    1
    11     9    10    1
    12    10    11   ar
    13    11    12   ar
    14    12    13    1
    15    12    14   ar
    16    14    15   ar
    17    15    16   ar
    18    16    17    1
    19    17    18    1
    20    18    19    1
    21    19    20    1
    22    20    21    1
    23    20     1    1
    24    20     6    1
    25    17     7    1
    26    16    10   ar
    27     2    22    1
    28    13    23    1
@<TRIPOS>MOLECULE
*****
 25 28 0 0 0
SMALL
GASTEIGER

@<TRIPOS>ATOM
      1 C          47.8927   16.9243  -27.0254 C.3     1  UNL1        0.1427
      2 O          47.5701   16.9634  -28.3949 O.3     1  UNL1       -0.3752
      3 C          46.6560   17.3270  -26.1783 C.3     1  UNL1        0.0499
      4 C          46.6776   16.4618  -24.8957 C.3     1  UNL1        0.0562
      5 I          46.6023   17.6987  -23.1355 I       1  UNL1       -0.0752
      6 C          47.9837   15.6737  -24.9982 C.3     1  UNL1        0.0132
      7 C          48.1513   14.3307  -24.2750 C.3     1  UNL1        0.0052
      8 C          47.7236   14.2848  -22.8017 C.3     1  UNL1        0.0050
      9 C          47.9867   12.8810  -22.1802 C.3     1  UNL1        0.0261
     10 C          48.9157   11.9575  -22.9722 C.ar    1  UNL1       -0.0231
     11 C          48.9676   10.5994  -22.6231 C.ar    1  UNL1        0.0320
     12 C          49.7467    9.7038  -23.3590 C.ar    1  UNL1        0.1333
     13 O          49.7772    8.3596  -22.9944 O.3     1  UNL1       -0.5055
     14 C          50.4811   10.1604  -24.4583 C.ar    1  UNL1        0.0363
     15 C          50.4547   11.5105  -24.8146 C.ar    1  UNL1       -0.0015
     16 C          49.6937   12.4281  -24.0646 C.ar    1  UNL1       -0.0263
     17 C          49.6444   13.9150  -24.3423 C.3     1  UNL1        0.0221
     18 C          50.4625   14.5270  -25.5379 C.3     1  UNL1        0.0045
     19 C          49.6630   14.9360  -26.7994 C.3     1  UNL1        0.0036
     20 C          48.2188   15.4849  -26.5182 C.3     1  UNL1        0.0341
     21 C          47.2058   14.4780  -27.1711 C.3     1  UNL1        0.0033
     22 H          48.3643   16.6396  -28.8965 H       1  UNL1        0.2114
     23 H          50.3298    7.6836  -23.5086 H       1  UNL1        0.2922
     24 C          49.8886   18.6646  -26.5467 C.1     1  UNL1       -0.0119
     25 C          48.9955   17.8837  -26.7613 C.1     1  UNL1       -0.0526
@<TRIPOS>BOND
     1    24    25    3
     2     1    25    1
     3     1     2    1
     4     1     3    1
     5     3     4    1
     6     4     5    1
     7     4     6    1
     8     6     7    1
     9     7     8    1
    10     8     9    1
    11     9    10    1
    12    10    11   ar
    13    11    12   ar
    14    12    13    1
    15    12    14   ar
    16    14    15   ar
    17    15    16   ar
    18    16    17    1
    19    17    18    1
    20    18    19    1
    21    19    20    1
    22    20    21    1
    23    20     1    1
    24    20     6    1
    25    17     7    1
    26    16    10   ar
    27     2    22    1
    28    13    23    1
@<TRIPOS>MOLECULE
*****
 25 28 0 0 0
SMALL
GASTEIGER

@<TRIPOS>ATOM
      1 C          49.6435   13.8519  -21.5947 C.3     1  UNL1        0.1427
      2 O          49.1108   15.1526  -21.6682 O.3     1  UNL1       -0.3752
      3 C          48.5344   12.8479  -21.1813 C.3     1  UNL1        0.0499
      4 C          48.7987   11.5310  -21.9494 C.3     1  UNL1        0.0562
      5 I          48.9346    9.8659  -20.5918 I       1  UNL1       -0.0752
      6 C          50.1115   11.7870  -22.6901 C.3     1  UNL1        0.0132
      7 C          50.4575   11.0131  -23.9691 C.3     1  UNL1        0.0052
      8 C          50.2664    9.4909  -23.9248 C.3     1  UNL1        0.0050
      9 C          50.6939    8.8283  -25.2682 C.3     1  UNL1        0.0261
     10 C          51.5346    9.6951  -26.2088 C.ar    1  UNL1       -0.0231
     11 C          51.7091    9.2704  -27.5348 C.ar    1  UNL1        0.0320
     12 C          52.4092   10.0600  -28.4496 C.ar    1  UNL1        0.1333
     13 O          52.5643    9.6176  -29.7614 O.3     1  UNL1       -0.5055
     14 C          52.9399   11.2893  -28.0452 C.ar    1  UNL1        0.0363
     15 C          52.7899   11.7246  -26.7266 C.ar    1  UNL1       -0.0015
     16 C          52.1087   10.9254  -25.7881 C.ar    1  UNL1       -0.0263
     17 C          51.9413   11.2886  -24.3285 C.3     1  UNL1        0.0221
     18 C          52.5317   12.6361  -23.7728 C.3     1  UNL1        0.0045
     19 C          51.5264   13.7792  -23.4889 C.3     1  UNL1        0.0036
     20 C          50.1173   13.3095  -22.9793 C.3     1  UNL1        0.0341
     21 C          49.0679   13.7264  -24.0707 C.3     1  UNL1        0.0033
     22 H          49.8331   15.7513  -21.9956 H       1  UNL1        0.2114
     23 H          53.0642   10.1674  -30.4504 H       1  UNL1        0.2922
     24 C          51.6017   13.8083  -19.7494 C.1     1  UNL1       -0.0119
     25 C          50.7237   13.8291  -20.5754 C.1     1  UNL1       -0.0526
@<TRIPOS>BOND
     1    24    25    3
     2     1    25    1
     3     1     2    1
     4     1     3    1
     5     3     4    1
     6     4     5    1
     7     4     6    1
     8     6     7    1
     9     7     8    1
    10     8     9    1
    11     9    10    1
    12    10    11   ar
    13    11    12   ar
    14    12    13    1
    15    12    14   ar
    16    14    15   ar
    17    15    16   ar
    18    16    17    1
    19    17    18    1
    20    18    19    1
    21    19    20    1
    22    20    21    1
    23    20     1    1
    24    20     6    1
    25    17     7    1
    26    16    10   ar
    27     2    22    1
    28    13    23    1
@<TRIPOS>MOLECULE
*****
 25 28 0 0 0
SMALL
GASTEIGER

@<TRIPOS>ATOM
      1 C          49.2879   15.9214  -25.5782 C.3     1  UNL1        0.1427
      2 O          50.4501   16.4454  -26.1746 O.3     1  UNL1       -0.3752
      3 C          48.4614   15.1347  -26.6304 C.3     1  UNL1        0.0499
      4 C          47.8346   13.9198  -25.9058 C.3     1  UNL1        0.0562
      5 I          45.6997   13.8818  -26.1794 I       1  UNL1       -0.0752
      6 C          48.2307   14.1123  -24.4417 C.3     1  UNL1        0.0132
      7 C          48.3172   12.9151  -23.4858 C.3     1  UNL1        0.0052
      8 C          47.1327   11.9391  -23.4969 C.3     1  UNL1        0.0050
      9 C          47.3295   10.7996  -22.4533 C.3     1  UNL1        0.0261
     10 C          48.4105   11.0348  -21.3955 C.ar    1  UNL1       -0.0231
     11 C          48.8304    9.9482  -20.6132 C.ar    1  UNL1        0.0320
     12 C          49.8616   10.0961  -19.6831 C.ar    1  UNL1        0.1333
     13 O          50.2629    9.0003  -18.9222 O.3     1  UNL1       -0.5055
     14 C          50.4877   11.3374  -19.5294 C.ar    1  UNL1        0.0363
     15 C          50.0760   12.4355  -20.2878 C.ar    1  UNL1       -0.0015
     16 C          49.0197   12.3056  -21.2102 C.ar    1  UNL1       -0.0263
     17 C          48.4711   13.4482  -22.0371 C.3     1  UNL1        0.0221
     18 C          49.0892   14.8887  -21.9098 C.3     1  UNL1        0.0045
     19 C          50.0038   15.3651  -23.0650 C.3     1  UNL1        0.0036
     20 C          49.5947   14.8462  -24.4895 C.3     1  UNL1        0.0341
     21 C          50.7626   13.9290  -25.0008 C.3     1  UNL1        0.0033
     22 H          50.9797   16.8847  -25.4577 H       1  UNL1        0.2114
     23 H          51.0093    9.0732  -18.2409 H       1  UNL1        0.2922
     24 C          47.8000   17.9540  -24.6317 C.1     1  UNL1       -0.0119
     25 C          48.4662   17.0424  -25.0545 C.1     1  UNL1       -0.0526
@<TRIPOS>BOND
     1    24    25    3
     2     1    25    1
     3     1     2    1
     4     1     3    1
     5     3     4    1
     6     4     5    1
     7     4     6    1
     8     6     7    1
     9     7     8    1
    10     8     9    1
    11     9    10    1
    12    10    11   ar
    13    11    12   ar
    14    12    13    1
    15    12    14   ar
    16    14    15   ar
    17    15    16   ar
    18    16    17    1
    19    17    18    1
    20    18    19    1
    21    19    20    1
    22    20    21    1
    23    20     1    1
    24    20     6    1
    25    17     7    1
    26    16    10   ar
    27     2    22    1
    28    13    23    1
@<TRIPOS>MOLECULE
*****
 25 28 0 0 0
SMALL
GASTEIGER

@<TRIPOS>ATOM
      1 C          47.9881   15.2119  -26.2107 C.3     1  UNL1        0.1427
      2 O          48.7849   15.5544  -27.3193 O.3     1  UNL1       -0.3752
      3 C          47.1153   13.9736  -26.5483 C.3     1  UNL1        0.0499
      4 C          47.0160   13.1186  -25.2625 C.3     1  UNL1        0.0562
      5 I          44.9595   12.7460  -24.7467 I       1  UNL1       -0.0752
      6 C          47.7404   13.9501  -24.2035 C.3     1  UNL1        0.0132
      7 C          48.3653   13.2831  -22.9710 C.3     1  UNL1        0.0052
      8 C          47.4882   12.2752  -22.2155 C.3     1  UNL1        0.0050
      9 C          48.2262   11.7086  -20.9663 C.3     1  UNL1        0.0261
     10 C          49.4681   12.4791  -20.5111 C.ar    1  UNL1       -0.0231
     11 C          50.3302   11.8734  -19.5843 C.ar    1  UNL1        0.0320
     12 C          51.5113   12.5063  -19.1905 C.ar    1  UNL1        0.1333
     13 O          52.3523   11.8814  -18.2724 O.3     1  UNL1       -0.5055
     14 C          51.8440   13.7548  -19.7261 C.ar    1  UNL1        0.0363
     15 C          50.9933   14.3817  -20.6394 C.ar    1  UNL1       -0.0015
     16 C          49.7868   13.7657  -21.0243 C.ar    1  UNL1       -0.0263
     17 C          48.7792   14.3896  -21.9656 C.3     1  UNL1        0.0221
     18 C          49.0503   15.8056  -22.5937 C.3     1  UNL1        0.0045
     19 C          49.4745   15.8440  -24.0825 C.3     1  UNL1        0.0036
     20 C          48.8259   14.7337  -24.9839 C.3     1  UNL1        0.0341
     21 C          49.9915   13.8142  -25.4961 C.3     1  UNL1        0.0033
     22 H          49.3710   16.3074  -27.0424 H       1  UNL1        0.2114
     23 H          53.2175   12.3121  -17.9680 H       1  UNL1        0.2922
     24 C          46.3824   17.2875  -25.6149 C.1     1  UNL1       -0.0119
     25 C          47.1005   16.3565  -25.8817 C.1     1  UNL1       -0.0526
@<TRIPOS>BOND
     1    24    25    3
     2     1    25    1
     3     1     2    1
     4     1     3    1
     5     3     4    1
     6     4     5    1
     7     4     6    1
     8     6     7    1
     9     7     8    1
    10     8     9    1
    11     9    10    1
    12    10    11   ar
    13    11    12   ar
    14    12    13    1
    15    12    14   ar
    16    14    15   ar
    17    15    16   ar
    18    16    17    1
    19    17    18    1
    20    18    19    1
    21    19    20    1
    22    20    21    1
    23    20     1    1
    24    20     6    1
    25    17     7    1
    26    16    10   ar
    27     2    22    1
    28    13    23    1
@<TRIPOS>MOLECULE
*****
 25 28 0 0 0
SMALL
GASTEIGER

@<TRIPOS>ATOM
      1 C          48.0963   11.1339  -22.4964 C.3     1  UNL1        0.1427
      2 O          48.1819    9.7565  -22.7728 O.3     1  UNL1       -0.3752
      3 C          49.4864   11.6756  -22.0682 C.3     1  UNL1        0.0499
      4 C          49.6194   13.1046  -22.6463 C.3     1  UNL1        0.0562
      5 I          50.0875   14.5193  -21.0927 I       1  UNL1       -0.0752
      6 C          48.2594   13.3757  -23.2902 C.3     1  UNL1        0.0132
      7 C          48.1173   14.3922  -24.4309 C.3     1  UNL1        0.0052
      8 C          48.7860   15.7579  -24.2225 C.3     1  UNL1        0.0050
      9 C          48.5281   16.7040  -25.4327 C.3     1  UNL1        0.0261
     10 C          47.4105   16.2830  -26.3901 C.ar    1  UNL1       -0.0231
     11 C          47.3170   16.9247  -27.6345 C.ar    1  UNL1        0.0320
     12 C          46.3583   16.5291  -28.5699 C.ar    1  UNL1        0.1333
     13 O          46.2894   17.1795  -29.8000 O.3     1  UNL1       -0.5055
     14 C          45.4832   15.4804  -28.2689 C.ar    1  UNL1        0.0363
     15 C          45.5498   14.8373  -27.0309 C.ar    1  UNL1       -0.0015
     16 C          46.4947   15.2444  -26.0692 C.ar    1  UNL1       -0.0263
     17 C          46.6077   14.6438  -24.6847 C.3     1  UNL1        0.0221
     18 C          45.6456   13.4809  -24.2428 C.3     1  UNL1        0.0045
     19 C          46.2461   12.0545  -24.1899 C.3     1  UNL1        0.0036
     20 C          47.7542   11.9873  -23.7575 C.3     1  UNL1        0.0341
     21 C          48.5619   11.4253  -24.9816 C.3     1  UNL1        0.0033
     22 H          47.2915    9.4638  -23.1026 H       1  UNL1        0.2114
     23 H          45.6077   16.9153  -30.5015 H       1  UNL1        0.2922
     24 C          46.3485   11.5170  -20.4864 C.1     1  UNL1       -0.0119
     25 C          47.1303   11.3451  -21.3880 C.1     1  UNL1       -0.0526
@<TRIPOS>BOND
     1    24    25    3
     2     1    25    1
     3     1     2    1
     4     1     3    1
     5     3     4    1
     6     4     5    1
     7     4     6    1
     8     6     7    1
     9     7     8    1
    10     8     9    1
    11     9    10    1
    12    10    11   ar
    13    11    12   ar
    14    12    13    1
    15    12    14   ar
    16    14    15   ar
    17    15    16   ar
    18    16    17    1
    19    17    18    1
    20    18    19    1
    21    19    20    1
    22    20    21    1
    23    20     1    1
    24    20     6    1
    25    17     7    1
    26    16    10   ar
    27     2    22    1
    28    13    23    1
