@<TRIPOS>MOLECULE
*****
 36 39 0 0 0
SMALL
GASTEIGER

@<TRIPOS>ATOM
      1 N         -10.5365  -11.3547   32.6622 N.am    1  UNL1       -0.2685
      2 C          -9.3560  -10.7242   33.2011 C.2     1  UNL1        0.2672
      3 O          -9.4048  -10.1982   34.3463 O.2     1  UNL1       -0.2682
      4 C          -8.1003  -10.6504   32.4224 C.ar    1  UNL1        0.1347
      5 C          -8.0671  -10.0230   31.1663 C.ar    1  UNL1        0.0238
      6 C          -6.8659   -9.9800   30.4464 C.ar    1  UNL1        0.0031
      7 C          -6.8001   -9.3540   29.1917 C.ar    1  UNL1        0.0001
      8 C          -5.5923   -9.3204   28.4878 C.ar    1  UNL1        0.0000
      9 C          -4.4456   -9.9092   29.0288 C.ar    1  UNL1        0.0000
     10 C          -4.4989  -10.5358   30.2776 C.ar    1  UNL1        0.0015
     11 C          -5.7059  -10.5747   30.9917 C.ar    1  UNL1        0.0192
     12 C          -5.7866  -11.1967   32.2431 C.ar    1  UNL1        0.0989
     13 N          -6.9666  -11.2207   32.9161 N.ar    1  UNL1       -0.2393
     14 C         -10.4372  -12.7060   32.0583 C.3     1  UNL1        0.1007
     15 C         -10.3924  -12.6243   30.5232 C.3     1  UNL1        0.0265
     16 C         -11.5023  -13.6421   32.6228 C.ar    1  UNL1        0.0234
     17 C         -12.5677  -14.1453   31.8426 C.ar    1  UNL1        0.0019
     18 C         -13.5525  -14.9528   32.4184 C.ar    1  UNL1        0.0295
     19 C         -13.4897  -15.2787   33.7731 C.ar    1  UNL1        0.1424
     20 F         -14.4541  -16.0515   34.3305 F       1  UNL1       -0.2041
     21 C         -12.4331  -14.8088   34.5537 C.ar    1  UNL1        0.0590
     22 C         -11.4424  -14.0013   33.9865 C.ar    1  UNL1        0.1399
     23 F         -10.4280  -13.5627   34.7737 F       1  UNL1       -0.2044
     24 C         -11.8179  -10.6267   32.7563 C.3     1  UNL1        0.1207
     25 C         -11.8018   -6.9166   30.5289 C.ar    1  UNL1        0.1449
     26 C         -12.6412   -7.0832   31.6475 C.ar    1  UNL1        0.0368
     27 C         -12.6248   -8.2689   32.3796 C.ar    1  UNL1        0.0005
     28 C         -11.7797   -9.3196   32.0070 C.ar    1  UNL1       -0.0019
     29 C         -10.9133   -9.1506   30.9175 C.ar    1  UNL1        0.0069
     30 C         -10.9157   -7.9603   30.1657 C.ar    1  UNL1        0.1090
     31 C         -10.0057   -7.8482   28.9956 C.2     1  UNL1        0.3410
     32 O          -9.0270   -7.0543   29.0076 O.2     1  UNL1       -0.2450
     33 O         -10.2268   -8.6269   27.8619 O.3     1  UNL1       -0.4770
     34 H          -9.6155   -8.5601   27.0568 H       1  UNL1        0.2954
     35 C         -11.0313   -4.5886   30.0085 C.3     1  UNL1        0.2525
     36 O         -11.8357   -5.7380   29.7647 O.3     1  UNL1       -0.4712
@<TRIPOS>BOND
     1    35    36    1
     2    36    25    1
     3    25    26   ar
     4    26    27   ar
     5    27    28   ar
     6    28    24    1
     7    24     1    1
     8     1     2   am
     9     2     3    2
    10     2     4    1
    11     4     5   ar
    12     5     6   ar
    13     6     7   ar
    14     7     8   ar
    15     8     9   ar
    16     9    10   ar
    17    10    11   ar
    18    11    12   ar
    19    12    13   ar
    20     1    14    1
    21    14    15    1
    22    14    16    1
    23    16    17   ar
    24    17    18   ar
    25    18    19   ar
    26    19    20    1
    27    19    21   ar
    28    21    22   ar
    29    22    23    1
    30    28    29   ar
    31    29    30   ar
    32    30    31    1
    33    31    32    2
    34    31    33    1
    35    30    25   ar
    36    13     4   ar
    37    22    16   ar
    38    11     6   ar
    39    33    34    1
@<TRIPOS>MOLECULE
*****
 36 39 0 0 0
SMALL
GASTEIGER

@<TRIPOS>ATOM
      1 N         -10.1918   -8.0849   30.6280 N.am    1  UNL1       -0.2685
      2 C          -9.6387   -8.9809   29.6418 C.2     1  UNL1        0.2672
      3 O         -10.3982   -9.4848   28.7701 O.2     1  UNL1       -0.2682
      4 C          -8.2059   -9.3491   29.6551 C.ar    1  UNL1        0.1347
      5 C          -7.6792  -10.1582   30.6750 C.ar    1  UNL1        0.0238
      6 C          -6.3154  -10.4795   30.6679 C.ar    1  UNL1        0.0031
      7 C          -5.7615  -11.2917   31.6699 C.ar    1  UNL1        0.0001
      8 C          -4.3983  -11.6024   31.6463 C.ar    1  UNL1        0.0000
      9 C          -3.5809  -11.1066   30.6263 C.ar    1  UNL1        0.0000
     10 C          -4.1212  -10.2965   29.6230 C.ar    1  UNL1        0.0015
     11 C          -5.4878   -9.9792   29.6378 C.ar    1  UNL1        0.0192
     12 C          -6.0534   -9.1694   28.6459 C.ar    1  UNL1        0.0989
     13 N          -7.3797   -8.8767   28.6812 N.ar    1  UNL1       -0.2393
     14 C          -9.5170   -6.7939   30.9083 C.3     1  UNL1        0.1007
     15 C          -9.5662   -5.8660   29.6829 C.3     1  UNL1        0.0265
     16 C          -8.1248   -7.0147   31.4937 C.ar    1  UNL1        0.0234
     17 C          -7.9075   -7.7059   32.7069 C.ar    1  UNL1        0.0019
     18 C          -6.6191   -7.8322   33.2336 C.ar    1  UNL1        0.0295
     19 C          -5.5283   -7.2821   32.5604 C.ar    1  UNL1        0.1424
     20 F          -4.2819   -7.3956   33.0815 F       1  UNL1       -0.2041
     21 C          -5.7216   -6.6151   31.3504 C.ar    1  UNL1        0.0590
     22 C          -7.0067   -6.4847   30.8148 C.ar    1  UNL1        0.1399
     23 F          -7.1589   -5.8315   29.6352 F       1  UNL1       -0.2044
     24 C         -11.4379   -8.4864   31.3112 C.3     1  UNL1        0.1207
     25 C         -11.1883  -12.3855   33.1717 C.ar    1  UNL1        0.1449
     26 C         -12.2597  -12.0609   32.3170 C.ar    1  UNL1        0.0368
     27 C         -12.3236  -10.8142   31.6974 C.ar    1  UNL1        0.0005
     28 C         -11.3273   -9.8588   31.9243 C.ar    1  UNL1       -0.0019
     29 C         -10.2372  -10.1847   32.7439 C.ar    1  UNL1        0.0069
     30 C         -10.1553  -11.4387   33.3785 C.ar    1  UNL1        0.1090
     31 C          -8.9986  -11.7185   34.2693 C.2     1  UNL1        0.3410
     32 O          -7.9144  -11.0885   34.1433 O.2     1  UNL1       -0.2450
     33 O          -9.1012  -12.6894   35.2629 O.3     1  UNL1       -0.4770
     34 H          -8.3207  -12.8914   35.8764 H       1  UNL1        0.2954
     35 C         -12.2383  -14.2591   34.4645 C.3     1  UNL1        0.2525
     36 O         -11.1328  -13.6271   33.8272 O.3     1  UNL1       -0.4712
@<TRIPOS>BOND
     1    35    36    1
     2    36    25    1
     3    25    26   ar
     4    26    27   ar
     5    27    28   ar
     6    28    24    1
     7    24     1    1
     8     1     2   am
     9     2     3    2
    10     2     4    1
    11     4     5   ar
    12     5     6   ar
    13     6     7   ar
    14     7     8   ar
    15     8     9   ar
    16     9    10   ar
    17    10    11   ar
    18    11    12   ar
    19    12    13   ar
    20     1    14    1
    21    14    15    1
    22    14    16    1
    23    16    17   ar
    24    17    18   ar
    25    18    19   ar
    26    19    20    1
    27    19    21   ar
    28    21    22   ar
    29    22    23    1
    30    28    29   ar
    31    29    30   ar
    32    30    31    1
    33    31    32    2
    34    31    33    1
    35    30    25   ar
    36    13     4   ar
    37    22    16   ar
    38    11     6   ar
    39    33    34    1
@<TRIPOS>MOLECULE
*****
 36 39 0 0 0
SMALL
GASTEIGER

@<TRIPOS>ATOM
      1 N          -9.2479  -10.9830   30.9700 N.am    1  UNL1       -0.2685
      2 C          -9.1534  -11.3003   32.3743 C.2     1  UNL1        0.2672
      3 O          -8.2710  -10.7363   33.0770 O.2     1  UNL1       -0.2682
      4 C         -10.0469  -12.3009   32.9982 C.ar    1  UNL1        0.1347
      5 C         -11.0998  -12.8797   32.2711 C.ar    1  UNL1        0.0238
      6 C         -11.9373  -13.8151   32.8929 C.ar    1  UNL1        0.0031
      7 C         -12.9935  -14.4157   32.1899 C.ar    1  UNL1        0.0001
      8 C         -13.8189  -15.3476   32.8268 C.ar    1  UNL1        0.0000
      9 C         -13.5971  -15.6856   34.1651 C.ar    1  UNL1        0.0000
     10 C         -12.5484  -15.0939   34.8756 C.ar    1  UNL1        0.0015
     11 C         -11.7146  -14.1579   34.2455 C.ar    1  UNL1        0.0192
     12 C         -10.6586  -13.5501   34.9345 C.ar    1  UNL1        0.0989
     13 N          -9.8642  -12.6471   34.3025 N.ar    1  UNL1       -0.2393
     14 C         -10.5699  -10.6685   30.3751 C.3     1  UNL1        0.1007
     15 C         -10.7655  -11.4056   29.0397 C.3     1  UNL1        0.0265
     16 C         -10.8055   -9.1615   30.3197 C.ar    1  UNL1        0.0234
     17 C         -10.2969   -8.3469   29.2830 C.ar    1  UNL1        0.0019
     18 C         -10.4887   -6.9626   29.3060 C.ar    1  UNL1        0.0295
     19 C         -11.1940   -6.3687   30.3525 C.ar    1  UNL1        0.1424
     20 F         -11.3664   -5.0243   30.3777 F       1  UNL1       -0.2041
     21 C         -11.7219   -7.1600   31.3732 C.ar    1  UNL1        0.0590
     22 C         -11.5364   -8.5459   31.3583 C.ar    1  UNL1        0.1399
     23 F         -12.0646   -9.2858   32.3656 F       1  UNL1       -0.2044
     24 C          -8.0026  -10.9621   30.1766 C.3     1  UNL1        0.1207
     25 C          -5.3586   -7.8468   31.6017 C.ar    1  UNL1        0.1449
     26 C          -5.0243   -9.2058   31.7606 C.ar    1  UNL1        0.0368
     27 C          -5.8644  -10.2069   31.2765 C.ar    1  UNL1        0.0005
     28 C          -7.0618   -9.8767   30.6331 C.ar    1  UNL1       -0.0019
     29 C          -7.3863   -8.5267   30.4367 C.ar    1  UNL1        0.0069
     30 C          -6.5505   -7.5016   30.9188 C.ar    1  UNL1        0.1090
     31 C          -6.9612   -6.0868   30.7193 C.2     1  UNL1        0.3410
     32 O          -8.0740   -5.6684   31.1375 O.2     1  UNL1       -0.2450
     33 O          -6.1124   -5.1994   30.0618 O.3     1  UNL1       -0.4770
     34 H          -6.3796   -4.2329   29.9178 H       1  UNL1        0.2954
     35 C          -3.9424   -6.8442   33.4110 C.3     1  UNL1        0.2525
     36 O          -4.5347   -6.8315   32.1161 O.3     1  UNL1       -0.4712
@<TRIPOS>BOND
     1    35    36    1
     2    36    25    1
     3    25    26   ar
     4    26    27   ar
     5    27    28   ar
     6    28    24    1
     7    24     1    1
     8     1     2   am
     9     2     3    2
    10     2     4    1
    11     4     5   ar
    12     5     6   ar
    13     6     7   ar
    14     7     8   ar
    15     8     9   ar
    16     9    10   ar
    17    10    11   ar
    18    11    12   ar
    19    12    13   ar
    20     1    14    1
    21    14    15    1
    22    14    16    1
    23    16    17   ar
    24    17    18   ar
    25    18    19   ar
    26    19    20    1
    27    19    21   ar
    28    21    22   ar
    29    22    23    1
    30    28    29   ar
    31    29    30   ar
    32    30    31    1
    33    31    32    2
    34    31    33    1
    35    30    25   ar
    36    13     4   ar
    37    22    16   ar
    38    11     6   ar
    39    33    34    1
@<TRIPOS>MOLECULE
*****
 36 39 0 0 0
SMALL
GASTEIGER

@<TRIPOS>ATOM
      1 N         -10.5794  -11.4915   31.2326 N.am    1  UNL1       -0.2685
      2 C         -10.9495  -10.6757   30.1017 C.2     1  UNL1        0.2672
      3 O         -11.0928  -11.2157   28.9710 O.2     1  UNL1       -0.2682
      4 C         -11.1284   -9.2131   30.2344 C.ar    1  UNL1        0.1347
      5 C         -10.1665   -8.3210   29.7332 C.ar    1  UNL1        0.0238
      6 C         -10.3573   -6.9413   29.8853 C.ar    1  UNL1        0.0031
      7 C          -9.4169   -6.0250   29.3887 C.ar    1  UNL1        0.0001
      8 C          -9.6243   -4.6515   29.5493 C.ar    1  UNL1        0.0000
      9 C         -10.7676   -4.1841   30.2042 C.ar    1  UNL1        0.0000
     10 C         -11.7111   -5.0871   30.7032 C.ar    1  UNL1        0.0015
     11 C         -11.5122   -6.4672   30.5470 C.ar    1  UNL1        0.0192
     12 C         -12.4407   -7.3923   31.0382 C.ar    1  UNL1        0.0989
     13 N         -12.2265   -8.7238   30.8741 N.ar    1  UNL1       -0.2393
     14 C         -11.3242  -11.3598   32.5087 C.3     1  UNL1        0.1007
     15 C         -10.4449  -10.7266   33.6000 C.3     1  UNL1        0.0265
     16 C         -11.9865  -12.6782   32.8995 C.ar    1  UNL1        0.0234
     17 C         -11.5041  -13.4937   33.9479 C.ar    1  UNL1        0.0019
     18 C         -12.1088  -14.7216   34.2308 C.ar    1  UNL1        0.0295
     19 C         -13.2046  -15.1534   33.4837 C.ar    1  UNL1        0.1424
     20 F         -13.7799  -16.3511   33.7530 F       1  UNL1       -0.2041
     21 C         -13.7078  -14.3513   32.4591 C.ar    1  UNL1        0.0590
     22 C         -13.1104  -13.1206   32.1692 C.ar    1  UNL1        0.1399
     23 F         -13.6261  -12.3647   31.1674 F       1  UNL1       -0.2044
     24 C          -9.4725  -12.4542   31.0629 C.3     1  UNL1        0.1207
     25 C          -5.6749  -10.5683   30.1978 C.ar    1  UNL1        0.1449
     26 C          -6.2060  -11.5494   29.3381 C.ar    1  UNL1        0.0368
     27 C          -7.4420  -12.1357   29.6042 C.ar    1  UNL1        0.0005
     28 C          -8.1715  -11.7657   30.7390 C.ar    1  UNL1       -0.0019
     29 C          -7.6695  -10.7634   31.5815 C.ar    1  UNL1        0.0069
     30 C          -6.4229  -10.1600   31.3292 C.ar    1  UNL1        0.1090
     31 C          -5.9183   -9.1312   32.2762 C.2     1  UNL1        0.3410
     32 O          -6.6763   -8.2251   32.7154 O.2     1  UNL1       -0.2450
     33 O          -4.5894   -9.1574   32.6928 O.3     1  UNL1       -0.4770
     34 H          -4.2316   -8.4621   33.3369 H       1  UNL1        0.2954
     35 C          -3.9728   -9.5086   28.6932 C.3     1  UNL1        0.2525
     36 O          -4.4146   -9.9962   29.9560 O.3     1  UNL1       -0.4712
@<TRIPOS>BOND
     1    35    36    1
     2    36    25    1
     3    25    26   ar
     4    26    27   ar
     5    27    28   ar
     6    28    24    1
     7    24     1    1
     8     1     2   am
     9     2     3    2
    10     2     4    1
    11     4     5   ar
    12     5     6   ar
    13     6     7   ar
    14     7     8   ar
    15     8     9   ar
    16     9    10   ar
    17    10    11   ar
    18    11    12   ar
    19    12    13   ar
    20     1    14    1
    21    14    15    1
    22    14    16    1
    23    16    17   ar
    24    17    18   ar
    25    18    19   ar
    26    19    20    1
    27    19    21   ar
    28    21    22   ar
    29    22    23    1
    30    28    29   ar
    31    29    30   ar
    32    30    31    1
    33    31    32    2
    34    31    33    1
    35    30    25   ar
    36    13     4   ar
    37    22    16   ar
    38    11     6   ar
    39    33    34    1
@<TRIPOS>MOLECULE
*****
 36 39 0 0 0
SMALL
GASTEIGER

@<TRIPOS>ATOM
      1 N          -9.4155  -11.2084   32.1888 N.am    1  UNL1       -0.2685
      2 C         -10.3463  -11.3246   33.2850 C.2     1  UNL1        0.2672
      3 O         -10.1976  -10.5933   34.3018 O.2     1  UNL1       -0.2682
      4 C         -11.4496  -12.3098   33.2557 C.ar    1  UNL1        0.1347
      5 C         -11.2061  -13.6552   32.9350 C.ar    1  UNL1        0.0238
      6 C         -12.2733  -14.5625   32.9028 C.ar    1  UNL1        0.0031
      7 C         -12.0600  -15.9147   32.5924 C.ar    1  UNL1        0.0001
      8 C         -13.1372  -16.8060   32.5654 C.ar    1  UNL1        0.0000
      9 C         -14.4304  -16.3558   32.8469 C.ar    1  UNL1        0.0000
     10 C         -14.6553  -15.0111   33.1572 C.ar    1  UNL1        0.0015
     11 C         -13.5811  -14.1091   33.1869 C.ar    1  UNL1        0.0192
     12 C         -13.7791  -12.7578   33.4935 C.ar    1  UNL1        0.0989
     13 N         -12.7229  -11.9036   33.5169 N.ar    1  UNL1       -0.2393
     14 C          -9.9257  -11.0985   30.8002 C.3     1  UNL1        0.1007
     15 C          -8.9696  -11.7756   29.8040 C.3     1  UNL1        0.0265
     16 C         -10.2948   -9.6570   30.4606 C.ar    1  UNL1        0.0234
     17 C          -9.4338   -8.7975   29.7415 C.ar    1  UNL1        0.0019
     18 C          -9.7906   -7.4670   29.5052 C.ar    1  UNL1        0.0295
     19 C         -11.0089   -6.9733   29.9714 C.ar    1  UNL1        0.1424
     20 F         -11.3452   -5.6785   29.7514 F       1  UNL1       -0.2041
     21 C         -11.8809   -7.8135   30.6643 C.ar    1  UNL1        0.0590
     22 C         -11.5334   -9.1465   30.9046 C.ar    1  UNL1        0.1399
     23 F         -12.4055   -9.9366   31.5802 F       1  UNL1       -0.2044
     24 C          -7.9726  -11.1806   32.5019 C.3     1  UNL1        0.1207
     25 C          -6.1676   -7.5721   30.9378 C.ar    1  UNL1        0.1449
     26 C          -6.8852   -7.5534   32.1496 C.ar    1  UNL1        0.0368
     27 C          -7.4423   -8.7222   32.6652 C.ar    1  UNL1        0.0005
     28 C          -7.3066   -9.9337   31.9792 C.ar    1  UNL1       -0.0019
     29 C          -6.5628   -9.9707   30.7911 C.ar    1  UNL1        0.0069
     30 C          -5.9928   -8.8005   30.2547 C.ar    1  UNL1        0.1090
     31 C          -5.2479   -8.8878   28.9712 C.2     1  UNL1        0.3410
     32 O          -3.9882   -8.9218   28.9522 O.2     1  UNL1       -0.2450
     33 O          -5.9406   -8.9336   27.7635 O.3     1  UNL1       -0.4770
     34 H          -5.4461   -8.9920   26.8813 H       1  UNL1        0.2954
     35 C          -6.3922   -5.2424   30.0397 C.3     1  UNL1        0.2525
     36 O          -5.6314   -6.3930   30.3932 O.3     1  UNL1       -0.4712
@<TRIPOS>BOND
     1    35    36    1
     2    36    25    1
     3    25    26   ar
     4    26    27   ar
     5    27    28   ar
     6    28    24    1
     7    24     1    1
     8     1     2   am
     9     2     3    2
    10     2     4    1
    11     4     5   ar
    12     5     6   ar
    13     6     7   ar
    14     7     8   ar
    15     8     9   ar
    16     9    10   ar
    17    10    11   ar
    18    11    12   ar
    19    12    13   ar
    20     1    14    1
    21    14    15    1
    22    14    16    1
    23    16    17   ar
    24    17    18   ar
    25    18    19   ar
    26    19    20    1
    27    19    21   ar
    28    21    22   ar
    29    22    23    1
    30    28    29   ar
    31    29    30   ar
    32    30    31    1
    33    31    32    2
    34    31    33    1
    35    30    25   ar
    36    13     4   ar
    37    22    16   ar
    38    11     6   ar
    39    33    34    1
@<TRIPOS>MOLECULE
*****
 36 39 0 0 0
SMALL
GASTEIGER

@<TRIPOS>ATOM
      1 N          -8.7227  -11.2420   30.6960 N.am    1  UNL1       -0.2685
      2 C          -9.5259  -12.3418   30.2199 C.2     1  UNL1        0.2672
      3 O          -9.1812  -12.9493   29.1698 O.2     1  UNL1       -0.2682
      4 C         -10.7654  -12.7474   30.9183 C.ar    1  UNL1        0.1347
      5 C         -10.8975  -14.0353   31.4625 C.ar    1  UNL1        0.0238
      6 C         -12.0885  -14.3949   32.1071 C.ar    1  UNL1        0.0031
      7 C         -12.2472  -15.6724   32.6668 C.ar    1  UNL1        0.0001
      8 C         -13.4429  -16.0134   33.3068 C.ar    1  UNL1        0.0000
      9 C         -14.4849  -15.0854   33.3925 C.ar    1  UNL1        0.0000
     10 C         -14.3385  -13.8101   32.8386 C.ar    1  UNL1        0.0015
     11 C         -13.1427  -13.4583   32.1945 C.ar    1  UNL1        0.0192
     12 C         -12.9709  -12.1886   31.6307 C.ar    1  UNL1        0.0989
     13 N         -11.8034  -11.8710   31.0128 N.ar    1  UNL1       -0.2393
     14 C          -8.3364  -11.1797   32.1269 C.3     1  UNL1        0.1007
     15 C          -9.5761  -11.0737   33.0309 C.3     1  UNL1        0.0265
     16 C          -7.2723  -10.1117   32.3651 C.ar    1  UNL1        0.0234
     17 C          -7.5404   -8.9069   33.0533 C.ar    1  UNL1        0.0019
     18 C          -6.5487   -7.9324   33.1957 C.ar    1  UNL1        0.0295
     19 C          -5.2761   -8.1429   32.6650 C.ar    1  UNL1        0.1424
     20 F          -4.3210   -7.1894   32.7940 F       1  UNL1       -0.2041
     21 C          -4.9873   -9.3356   32.0014 C.ar    1  UNL1        0.0590
     22 C          -5.9725  -10.3171   31.8549 C.ar    1  UNL1        0.1399
     23 F          -5.6575  -11.4662   31.2055 F       1  UNL1       -0.2044
     24 C          -8.2932  -10.2208   29.7195 C.3     1  UNL1        0.1207
     25 C         -10.3542   -6.4744   30.3852 C.ar    1  UNL1        0.1449
     26 C          -9.0145   -6.4940   29.9511 C.ar    1  UNL1        0.0368
     27 C          -8.3614   -7.7015   29.7112 C.ar    1  UNL1        0.0005
     28 C          -9.0249   -8.9169   29.9091 C.ar    1  UNL1       -0.0019
     29 C         -10.3700   -8.9085   30.3053 C.ar    1  UNL1        0.0069
     30 C         -11.0463   -7.6988   30.5527 C.ar    1  UNL1        0.1090
     31 C         -12.4601   -7.7471   31.0098 C.2     1  UNL1        0.3410
     32 O         -12.9957   -8.8357   31.3508 O.2     1  UNL1       -0.2450
     33 O         -13.2158   -6.5784   31.0669 O.3     1  UNL1       -0.4770
     34 H         -14.1806   -6.5965   31.3753 H       1  UNL1        0.2954
     35 C         -10.9445   -4.0987   29.8451 C.3     1  UNL1        0.2525
     36 O         -11.0102   -5.2632   30.6621 O.3     1  UNL1       -0.4712
@<TRIPOS>BOND
     1    35    36    1
     2    36    25    1
     3    25    26   ar
     4    26    27   ar
     5    27    28   ar
     6    28    24    1
     7    24     1    1
     8     1     2   am
     9     2     3    2
    10     2     4    1
    11     4     5   ar
    12     5     6   ar
    13     6     7   ar
    14     7     8   ar
    15     8     9   ar
    16     9    10   ar
    17    10    11   ar
    18    11    12   ar
    19    12    13   ar
    20     1    14    1
    21    14    15    1
    22    14    16    1
    23    16    17   ar
    24    17    18   ar
    25    18    19   ar
    26    19    20    1
    27    19    21   ar
    28    21    22   ar
    29    22    23    1
    30    28    29   ar
    31    29    30   ar
    32    30    31    1
    33    31    32    2
    34    31    33    1
    35    30    25   ar
    36    13     4   ar
    37    22    16   ar
    38    11     6   ar
    39    33    34    1
@<TRIPOS>MOLECULE
*****
 36 39 0 0 0
SMALL
GASTEIGER

@<TRIPOS>ATOM
      1 N         -10.3154  -11.4296   31.3340 N.am    1  UNL1       -0.2685
      2 C         -10.7038  -10.6609   30.1766 C.2     1  UNL1        0.2672
      3 O         -10.7631  -11.2265   29.0509 O.2     1  UNL1       -0.2682
      4 C         -10.9983   -9.2146   30.2776 C.ar    1  UNL1        0.1347
      5 C         -10.0959   -8.2592   29.7824 C.ar    1  UNL1        0.0238
      6 C         -10.3963   -6.8960   29.9039 C.ar    1  UNL1        0.0031
      7 C          -9.5174   -5.9181   29.4124 C.ar    1  UNL1        0.0001
      8 C          -9.8341   -4.5622   29.5422 C.ar    1  UNL1        0.0000
      9 C         -11.0259   -4.1739   30.1612 C.ar    1  UNL1        0.0000
     10 C         -11.9091   -5.1389   30.6548 C.ar    1  UNL1        0.0015
     11 C         -11.6004   -6.5018   30.5294 C.ar    1  UNL1        0.0192
     12 C         -12.4668   -7.4877   31.0159 C.ar    1  UNL1        0.0989
     13 N         -12.1464   -8.8012   30.8819 N.ar    1  UNL1       -0.2393
     14 C         -11.1153  -11.3370   32.5798 C.3     1  UNL1        0.1007
     15 C         -10.2904  -10.7224   33.7230 C.3     1  UNL1        0.0265
     16 C         -11.7792  -12.6712   32.9095 C.ar    1  UNL1        0.0234
     17 C         -11.3221  -13.5159   33.9461 C.ar    1  UNL1        0.0019
     18 C         -11.9259  -14.7559   34.1727 C.ar    1  UNL1        0.0295
     19 C         -12.9958  -15.1712   33.3800 C.ar    1  UNL1        0.1424
     20 F         -13.5700  -16.3804   33.5947 F       1  UNL1       -0.2041
     21 C         -13.4742  -14.3408   32.3662 C.ar    1  UNL1        0.0590
     22 C         -12.8776  -13.0979   32.1326 C.ar    1  UNL1        0.1399
     23 F         -13.3689  -12.3144   31.1397 F       1  UNL1       -0.2044
     24 C          -9.1329  -12.3070   31.2211 C.3     1  UNL1        0.1207
     25 C          -5.5346   -9.9323   30.8477 C.ar    1  UNL1        0.1449
     26 C          -6.0757  -10.2285   32.1139 C.ar    1  UNL1        0.0368
     27 C          -7.2192  -11.0163   32.2329 C.ar    1  UNL1        0.0005
     28 C          -7.8556  -11.5174   31.0924 C.ar    1  UNL1       -0.0019
     29 C          -7.3043  -11.2596   29.8291 C.ar    1  UNL1        0.0069
     30 C          -6.1501  -10.4658   29.6889 C.ar    1  UNL1        0.1090
     31 C          -5.6299  -10.1898   28.3240 C.2     1  UNL1        0.3410
     32 O          -4.7562  -10.9314   27.7996 O.2     1  UNL1       -0.2450
     33 O          -6.1069   -9.0979   27.6025 O.3     1  UNL1       -0.4770
     34 H          -5.7607   -8.8971   26.6718 H       1  UNL1        0.2954
     35 C          -4.4038   -7.6951   30.8646 C.3     1  UNL1        0.2525
     36 O          -4.4020   -9.1113   30.7161 O.3     1  UNL1       -0.4712
@<TRIPOS>BOND
     1    35    36    1
     2    36    25    1
     3    25    26   ar
     4    26    27   ar
     5    27    28   ar
     6    28    24    1
     7    24     1    1
     8     1     2   am
     9     2     3    2
    10     2     4    1
    11     4     5   ar
    12     5     6   ar
    13     6     7   ar
    14     7     8   ar
    15     8     9   ar
    16     9    10   ar
    17    10    11   ar
    18    11    12   ar
    19    12    13   ar
    20     1    14    1
    21    14    15    1
    22    14    16    1
    23    16    17   ar
    24    17    18   ar
    25    18    19   ar
    26    19    20    1
    27    19    21   ar
    28    21    22   ar
    29    22    23    1
    30    28    29   ar
    31    29    30   ar
    32    30    31    1
    33    31    32    2
    34    31    33    1
    35    30    25   ar
    36    13     4   ar
    37    22    16   ar
    38    11     6   ar
    39    33    34    1
@<TRIPOS>MOLECULE
*****
 36 39 0 0 0
SMALL
GASTEIGER

@<TRIPOS>ATOM
      1 N          -9.3577  -11.4307   31.3024 N.am    1  UNL1       -0.2685
      2 C          -9.4595  -11.7589   32.7036 C.2     1  UNL1        0.2672
      3 O          -8.6761  -11.2095   33.5252 O.2     1  UNL1       -0.2682
      4 C         -10.4398  -12.7540   33.1909 C.ar    1  UNL1        0.1347
      5 C         -11.4577  -13.2341   32.3509 C.ar    1  UNL1        0.0238
      6 C         -12.3794  -14.1667   32.8447 C.ar    1  UNL1        0.0031
      7 C         -13.4034  -14.6699   32.0268 C.ar    1  UNL1        0.0001
      8 C         -14.3140  -15.6007   32.5368 C.ar    1  UNL1        0.0000
      9 C         -14.2097  -16.0343   33.8617 C.ar    1  UNL1        0.0000
     10 C         -13.1941  -15.5401   34.6858 C.ar    1  UNL1        0.0015
     11 C         -12.2756  -14.6061   34.1836 C.ar    1  UNL1        0.0192
     12 C         -11.2504  -14.0948   34.9879 C.ar    1  UNL1        0.0989
     13 N         -10.3723  -13.1918   34.4786 N.ar    1  UNL1       -0.2393
     14 C         -10.5826  -11.0976   30.5349 C.3     1  UNL1        0.1007
     15 C         -10.4433  -11.5153   29.0614 C.3     1  UNL1        0.0265
     16 C         -10.9945   -9.6447   30.7564 C.ar    1  UNL1        0.0234
     17 C         -11.7684   -9.2309   31.8640 C.ar    1  UNL1        0.0019
     18 C         -12.1710   -7.8988   31.9936 C.ar    1  UNL1        0.0295
     19 C         -11.8048   -6.9579   31.0313 C.ar    1  UNL1        0.1424
     20 F         -12.2085   -5.6695   31.1540 F       1  UNL1       -0.2041
     21 C         -11.0226   -7.3442   29.9425 C.ar    1  UNL1        0.0590
     22 C         -10.6139   -8.6743   29.8048 C.ar    1  UNL1        0.1399
     23 F          -9.8524   -9.0157   28.7349 F       1  UNL1       -0.2044
     24 C          -8.0153  -11.4179   30.6871 C.3     1  UNL1        0.1207
     25 C          -6.2464   -7.4728   30.5043 C.ar    1  UNL1        0.1449
     26 C          -6.4353   -8.2340   29.3344 C.ar    1  UNL1        0.0368
     27 C          -7.0302   -9.4930   29.3925 C.ar    1  UNL1        0.0005
     28 C          -7.4400  -10.0265   30.6189 C.ar    1  UNL1       -0.0019
     29 C          -7.2906   -9.2619   31.7848 C.ar    1  UNL1        0.0069
     30 C          -6.6918   -7.9884   31.7460 C.ar    1  UNL1        0.1090
     31 C          -6.5209   -7.2363   33.0169 C.2     1  UNL1        0.3410
     32 O          -5.4294   -7.2642   33.6464 O.2     1  UNL1       -0.2450
     33 O          -7.5752   -6.4850   33.5310 O.3     1  UNL1       -0.4770
     34 H          -7.4733   -5.9685   34.3964 H       1  UNL1        0.2954
     35 C          -6.2686   -4.9933   30.1354 C.3     1  UNL1        0.2525
     36 O          -5.6172   -6.2173   30.4599 O.3     1  UNL1       -0.4712
@<TRIPOS>BOND
     1    35    36    1
     2    36    25    1
     3    25    26   ar
     4    26    27   ar
     5    27    28   ar
     6    28    24    1
     7    24     1    1
     8     1     2   am
     9     2     3    2
    10     2     4    1
    11     4     5   ar
    12     5     6   ar
    13     6     7   ar
    14     7     8   ar
    15     8     9   ar
    16     9    10   ar
    17    10    11   ar
    18    11    12   ar
    19    12    13   ar
    20     1    14    1
    21    14    15    1
    22    14    16    1
    23    16    17   ar
    24    17    18   ar
    25    18    19   ar
    26    19    20    1
    27    19    21   ar
    28    21    22   ar
    29    22    23    1
    30    28    29   ar
    31    29    30   ar
    32    30    31    1
    33    31    32    2
    34    31    33    1
    35    30    25   ar
    36    13     4   ar
    37    22    16   ar
    38    11     6   ar
    39    33    34    1
@<TRIPOS>MOLECULE
*****
 36 39 0 0 0
SMALL
GASTEIGER

@<TRIPOS>ATOM
      1 N         -10.9579   -9.8428   31.6048 N.am    1  UNL1       -0.2685
      2 C          -9.6147  -10.0656   32.0820 C.2     1  UNL1        0.2672
      3 O          -9.3506  -11.1264   32.7109 O.2     1  UNL1       -0.2682
      4 C          -8.5501   -9.0583   31.8803 C.ar    1  UNL1        0.1347
      5 C          -7.4267   -9.3458   31.0881 C.ar    1  UNL1        0.0238
      6 C          -6.4284   -8.3761   30.9259 C.ar    1  UNL1        0.0031
      7 C          -5.2975   -8.6319   30.1346 C.ar    1  UNL1        0.0001
      8 C          -4.3116   -7.6518   29.9838 C.ar    1  UNL1        0.0000
      9 C          -4.4465   -6.4139   30.6193 C.ar    1  UNL1        0.0000
     10 C          -5.5684   -6.1478   31.4102 C.ar    1  UNL1        0.0015
     11 C          -6.5632   -7.1245   31.5676 C.ar    1  UNL1        0.0192
     12 C          -7.6954   -6.8839   32.3547 C.ar    1  UNL1        0.0989
     13 N          -8.6457   -7.8451   32.4913 N.ar    1  UNL1       -0.2393
     14 C         -11.1767   -9.4000   30.2060 C.3     1  UNL1        0.1007
     15 C         -10.4587  -10.3288   29.2126 C.3     1  UNL1        0.0265
     16 C         -10.8630   -7.9153   30.0419 C.ar    1  UNL1        0.0234
     17 C          -9.7500   -7.4467   29.3080 C.ar    1  UNL1        0.0019
     18 C          -9.4699   -6.0794   29.2346 C.ar    1  UNL1        0.0295
     19 C         -10.2940   -5.1582   29.8809 C.ar    1  UNL1        0.1424
     20 F         -10.0112   -3.8338   29.8180 F       1  UNL1       -0.2041
     21 C         -11.4096   -5.6014   30.5918 C.ar    1  UNL1        0.0590
     22 C         -11.6988   -6.9673   30.6700 C.ar    1  UNL1        0.1399
     23 F         -12.7926   -7.3639   31.3682 F       1  UNL1       -0.2044
     24 C         -12.0767  -10.0906   32.5362 C.3     1  UNL1        0.1207
     25 C         -13.2977  -14.2383   32.7150 C.ar    1  UNL1        0.1449
     26 C         -13.7239  -13.4052   31.6624 C.ar    1  UNL1        0.0368
     27 C         -13.3072  -12.0771   31.5922 C.ar    1  UNL1        0.0005
     28 C         -12.4656  -11.5462   32.5753 C.ar    1  UNL1       -0.0019
     29 C         -12.0055  -12.3767   33.6071 C.ar    1  UNL1        0.0069
     30 C         -12.4156  -13.7206   33.6949 C.ar    1  UNL1        0.1090
     31 C         -11.9303  -14.5467   34.8316 C.2     1  UNL1        0.3410
     32 O         -10.7512  -14.4316   35.2614 O.2     1  UNL1       -0.2450
     33 O         -12.7817  -15.4660   35.4402 O.3     1  UNL1       -0.4770
     34 H         -12.4643  -16.0363   36.2149 H       1  UNL1        0.2954
     35 C         -13.0758  -16.6890   32.2365 C.3     1  UNL1        0.2525
     36 O         -13.7394  -15.5686   32.8126 O.3     1  UNL1       -0.4712
@<TRIPOS>BOND
     1    35    36    1
     2    36    25    1
     3    25    26   ar
     4    26    27   ar
     5    27    28   ar
     6    28    24    1
     7    24     1    1
     8     1     2   am
     9     2     3    2
    10     2     4    1
    11     4     5   ar
    12     5     6   ar
    13     6     7   ar
    14     7     8   ar
    15     8     9   ar
    16     9    10   ar
    17    10    11   ar
    18    11    12   ar
    19    12    13   ar
    20     1    14    1
    21    14    15    1
    22    14    16    1
    23    16    17   ar
    24    17    18   ar
    25    18    19   ar
    26    19    20    1
    27    19    21   ar
    28    21    22   ar
    29    22    23    1
    30    28    29   ar
    31    29    30   ar
    32    30    31    1
    33    31    32    2
    34    31    33    1
    35    30    25   ar
    36    13     4   ar
    37    22    16   ar
    38    11     6   ar
    39    33    34    1
