@<TRIPOS>MOLECULE
*****
 28 30 0 0 0
SMALL
GASTEIGER

@<TRIPOS>ATOM
      1 C          47.0602   11.2853  -22.1458 C.ar    1  UNL1        0.2051
      2 N          47.0106   12.5427  -21.6646 N.ar    1  UNL1       -0.0582
      3 O          46.5546   13.2565  -22.6483 O.2     1  UNL1       -0.3279
      4 C          46.3474   12.4896  -23.6903 C.ar    1  UNL1        0.3134
      5 N          46.6567   11.2050  -23.4305 N.ar    1  UNL1       -0.1854
      6 C          45.8723   12.9759  -24.9912 C.2     1  UNL1        0.3025
      7 O          44.7240   13.4886  -25.0763 O.2     1  UNL1       -0.2649
      8 N          46.7101   12.8807  -26.1525 N.am    1  UNL1       -0.2930
      9 H          47.6409   12.4116  -26.0775 H       1  UNL1        0.1502
     10 C          46.3178   13.4282  -27.4488 C.3     1  UNL1        0.1168
     11 C          46.4289   12.3745  -28.5171 C.ar    1  UNL1        0.0005
     12 C          46.8049   11.0623  -28.1941 C.ar    1  UNL1        0.0181
     13 C          46.9000   10.1053  -29.2076 C.ar    1  UNL1        0.0986
     14 N          46.6246   10.4448  -30.4951 N.ar    1  UNL1       -0.2423
     15 C          46.2548   11.7080  -30.8352 C.ar    1  UNL1        0.0986
     16 C          46.1510   12.6962  -29.8535 C.ar    1  UNL1        0.0181
     17 C          47.6806   10.1424  -21.4086 C.3     1  UNL1        0.2245
     18 S          49.4690   10.1930  -21.5393 S.O2    1  UNL1        0.0162
     19 O          49.9755   11.4707  -20.9308 O.2     1  UNL1       -0.1682
     20 O          50.0553    9.0388  -20.7752 O.2     1  UNL1       -0.1682
     21 C          50.5553    9.9247  -25.9704 C.ar    1  UNL1       -0.0221
     22 C          50.2951   11.1709  -25.3790 C.ar    1  UNL1       -0.0029
     23 C          50.0140   11.2582  -24.0131 C.ar    1  UNL1        0.0180
     24 C          49.9907   10.1018  -23.2226 C.ar    1  UNL1        0.1061
     25 C          50.2628    8.8576  -23.8079 C.ar    1  UNL1        0.0180
     26 C          50.5373    8.7681  -25.1750 C.ar    1  UNL1       -0.0029
     27 C          50.0990    8.5591  -28.0005 C.3     1  UNL1        0.0050
     28 C          50.7596    9.8222  -27.4572 C.3     1  UNL1        0.0264
@<TRIPOS>BOND
     1    27    28    1
     2    28    21    1
     3    21    22   ar
     4    22    23   ar
     5    23    24   ar
     6    24    18    1
     7    18    19    2
     8    18    20    2
     9    18    17    1
    10    17     1    1
    11     1     2   ar
    12     2     3   ar
    13     3     4   ar
    14     4     6    1
    15     6     7    2
    16     6     8   am
    17     8    10    1
    18    10    11    1
    19    11    12   ar
    20    12    13   ar
    21    13    14   ar
    22    14    15   ar
    23    15    16   ar
    24     4     5   ar
    25    24    25   ar
    26    25    26   ar
    27    26    21   ar
    28     5     1   ar
    29    16    11   ar
    30     8     9    1
@<TRIPOS>MOLECULE
*****
 28 30 0 0 0
SMALL
GASTEIGER

@<TRIPOS>ATOM
      1 C          50.7973   12.2651  -23.9528 C.ar    1  UNL1        0.2051
      2 N          50.1760   11.7710  -22.8642 N.ar    1  UNL1       -0.0582
      3 O          48.9297   11.6675  -23.2120 O.2     1  UNL1       -0.3279
      4 C          48.7793   12.0894  -24.4434 C.ar    1  UNL1        0.3134
      5 N          49.9487   12.4909  -24.9769 N.ar    1  UNL1       -0.1854
      6 C          47.4901   12.1517  -25.1425 C.2     1  UNL1        0.3025
      7 O          46.4267   11.9585  -24.4941 O.2     1  UNL1       -0.2649
      8 N          47.4387   12.4418  -26.5471 N.am    1  UNL1       -0.2930
      9 H          48.3296   12.5539  -27.0815 H       1  UNL1        0.1502
     10 C          46.1785   12.6004  -27.2689 C.3     1  UNL1        0.1168
     11 C          46.2966   12.0351  -28.6582 C.ar    1  UNL1        0.0005
     12 C          46.7307   10.7169  -28.8618 C.ar    1  UNL1        0.0181
     13 C          46.8309   10.2195  -30.1637 C.ar    1  UNL1        0.0986
     14 N          46.5045   11.0075  -31.2225 N.ar    1  UNL1       -0.2423
     15 C          46.0778   12.2872  -31.0534 C.ar    1  UNL1        0.0986
     16 C          45.9668   12.8250  -29.7690 C.ar    1  UNL1        0.0181
     17 C          52.2266   12.7028  -23.9610 C.3     1  UNL1        0.2245
     18 S          53.2555   11.5095  -24.8186 S.O2    1  UNL1        0.0162
     19 O          54.2772   12.2383  -25.6458 O.2     1  UNL1       -0.1682
     20 O          53.9793   10.6624  -23.8094 O.2     1  UNL1       -0.1682
     21 C          50.5476    8.9926  -27.5054 C.ar    1  UNL1       -0.0221
     22 C          51.3764    9.9800  -28.0607 C.ar    1  UNL1       -0.0029
     23 C          52.2423   10.7139  -27.2459 C.ar    1  UNL1        0.0180
     24 C          52.2906   10.4688  -25.8674 C.ar    1  UNL1        0.1061
     25 C          51.4734    9.4746  -25.3120 C.ar    1  UNL1        0.0180
     26 C          50.6022    8.7447  -26.1247 C.ar    1  UNL1       -0.0029
     27 C          50.1981    7.8092  -29.6668 C.3     1  UNL1        0.0050
     28 C          49.5466    8.2738  -28.3681 C.3     1  UNL1        0.0264
@<TRIPOS>BOND
     1    27    28    1
     2    28    21    1
     3    21    22   ar
     4    22    23   ar
     5    23    24   ar
     6    24    18    1
     7    18    19    2
     8    18    20    2
     9    18    17    1
    10    17     1    1
    11     1     2   ar
    12     2     3   ar
    13     3     4   ar
    14     4     6    1
    15     6     7    2
    16     6     8   am
    17     8    10    1
    18    10    11    1
    19    11    12   ar
    20    12    13   ar
    21    13    14   ar
    22    14    15   ar
    23    15    16   ar
    24     4     5   ar
    25    24    25   ar
    26    25    26   ar
    27    26    21   ar
    28     5     1   ar
    29    16    11   ar
    30     8     9    1
@<TRIPOS>MOLECULE
*****
 28 30 0 0 0
SMALL
GASTEIGER

@<TRIPOS>ATOM
      1 C          49.2083   12.0108  -25.2013 C.ar    1  UNL1        0.2051
      2 N          49.1155   10.7725  -24.6786 N.ar    1  UNL1       -0.0582
      3 O          49.9351   10.0530  -25.3825 O.2     1  UNL1       -0.3279
      4 C          50.4953   10.7975  -26.3040 C.ar    1  UNL1        0.3134
      5 N          50.0659   12.0723  -26.2408 N.ar    1  UNL1       -0.1854
      6 C          51.4450   10.2965  -27.3047 C.2     1  UNL1        0.3025
      7 O          52.6025   10.7921  -27.3593 O.2     1  UNL1       -0.2649
      8 N          51.0651    9.2445  -28.2040 N.am    1  UNL1       -0.2930
      9 H          50.0880    8.8748  -28.1788 H       1  UNL1        0.1502
     10 C          52.0004    8.6529  -29.1576 C.3     1  UNL1        0.1168
     11 C          51.2529    7.9097  -30.2312 C.ar    1  UNL1        0.0005
     12 C          51.9370    7.3187  -31.3037 C.ar    1  UNL1        0.0181
     13 C          51.2159    6.6351  -32.2861 C.ar    1  UNL1        0.0986
     14 N          49.8624    6.5407  -32.1977 N.ar    1  UNL1       -0.2423
     15 C          49.1749    7.1010  -31.1674 C.ar    1  UNL1        0.0986
     16 C          49.8567    7.7964  -30.1660 C.ar    1  UNL1        0.0181
     17 C          48.3152   13.1429  -24.8076 C.3     1  UNL1        0.2245
     18 S          46.6463   12.8801  -25.4110 S.O2    1  UNL1        0.0162
     19 O          46.0440   11.6969  -24.7064 O.2     1  UNL1       -0.1682
     20 O          45.8108   14.0913  -25.1029 O.2     1  UNL1       -0.1682
     21 C          46.3461   12.0604  -29.8970 C.ar    1  UNL1       -0.0221
     22 C          46.0951   13.3465  -29.3935 C.ar    1  UNL1       -0.0029
     23 C          46.2375   13.6095  -28.0287 C.ar    1  UNL1        0.0180
     24 C          46.6331   12.5911  -27.1518 C.ar    1  UNL1        0.1061
     25 C          46.8968   11.3092  -27.6536 C.ar    1  UNL1        0.0180
     26 C          46.7482   11.0431  -29.0172 C.ar    1  UNL1       -0.0029
     27 C          45.5838   12.9962  -32.0736 C.3     1  UNL1        0.0050
     28 C          46.0966   11.7558  -31.3488 C.3     1  UNL1        0.0264
@<TRIPOS>BOND
     1    27    28    1
     2    28    21    1
     3    21    22   ar
     4    22    23   ar
     5    23    24   ar
     6    24    18    1
     7    18    19    2
     8    18    20    2
     9    18    17    1
    10    17     1    1
    11     1     2   ar
    12     2     3   ar
    13     3     4   ar
    14     4     6    1
    15     6     7    2
    16     6     8   am
    17     8    10    1
    18    10    11    1
    19    11    12   ar
    20    12    13   ar
    21    13    14   ar
    22    14    15   ar
    23    15    16   ar
    24     4     5   ar
    25    24    25   ar
    26    25    26   ar
    27    26    21   ar
    28     5     1   ar
    29    16    11   ar
    30     8     9    1
@<TRIPOS>MOLECULE
*****
 28 30 0 0 0
SMALL
GASTEIGER

@<TRIPOS>ATOM
      1 C          50.5078   14.5700  -24.2980 C.ar    1  UNL1        0.2051
      2 N          50.7759   14.9777  -25.5539 N.ar    1  UNL1       -0.0582
      3 O          49.7230   14.6527  -26.2400 O.2     1  UNL1       -0.3279
      4 C          48.8535   14.0602  -25.4589 C.ar    1  UNL1        0.3134
      5 N          49.3020   13.9743  -24.1921 N.ar    1  UNL1       -0.1854
      6 C          47.5659   13.5234  -25.9154 C.2     1  UNL1        0.3025
      7 O          46.5349   14.2444  -25.8391 O.2     1  UNL1       -0.2649
      8 N          47.4824   12.1961  -26.4548 N.am    1  UNL1       -0.2930
      9 H          48.3355   11.5928  -26.4693 H       1  UNL1        0.1502
     10 C          46.2432   11.6490  -27.0018 C.3     1  UNL1        0.1168
     11 C          46.3495   11.5046  -28.4957 C.ar    1  UNL1        0.0005
     12 C          46.7184   10.2810  -29.0736 C.ar    1  UNL1        0.0181
     13 C          46.8092   10.1771  -30.4641 C.ar    1  UNL1        0.0986
     14 N          46.5364   11.2538  -31.2482 N.ar    1  UNL1       -0.2423
     15 C          46.1734   12.4503  -30.7145 C.ar    1  UNL1        0.0986
     16 C          46.0741   12.5983  -29.3291 C.ar    1  UNL1        0.0181
     17 C          51.5110   14.5923  -23.1901 C.3     1  UNL1        0.2245
     18 S          52.1223   12.9408  -22.8482 S.O2    1  UNL1        0.0162
     19 O          53.5482   13.0260  -22.3803 O.2     1  UNL1       -0.1682
     20 O          51.2994   12.3243  -21.7516 O.2     1  UNL1       -0.1682
     21 C          51.7199   10.4647  -26.6684 C.ar    1  UNL1       -0.0221
     22 C          52.6825   11.4828  -26.5821 C.ar    1  UNL1       -0.0029
     23 C          52.8407   12.2050  -25.3966 C.ar    1  UNL1        0.0180
     24 C          52.0398   11.9177  -24.2836 C.ar    1  UNL1        0.1061
     25 C          51.0865   10.8931  -24.3627 C.ar    1  UNL1        0.0180
     26 C          50.9227   10.1746  -25.5499 C.ar    1  UNL1       -0.0029
     27 C          50.0737    9.1779  -28.0205 C.3     1  UNL1        0.0050
     28 C          51.4842    9.7568  -27.9746 C.3     1  UNL1        0.0264
@<TRIPOS>BOND
     1    27    28    1
     2    28    21    1
     3    21    22   ar
     4    22    23   ar
     5    23    24   ar
     6    24    18    1
     7    18    19    2
     8    18    20    2
     9    18    17    1
    10    17     1    1
    11     1     2   ar
    12     2     3   ar
    13     3     4   ar
    14     4     6    1
    15     6     7    2
    16     6     8   am
    17     8    10    1
    18    10    11    1
    19    11    12   ar
    20    12    13   ar
    21    13    14   ar
    22    14    15   ar
    23    15    16   ar
    24     4     5   ar
    25    24    25   ar
    26    25    26   ar
    27    26    21   ar
    28     5     1   ar
    29    16    11   ar
    30     8     9    1
@<TRIPOS>MOLECULE
*****
 28 30 0 0 0
SMALL
GASTEIGER

@<TRIPOS>ATOM
      1 C          47.9205   11.8931  -22.7425 C.ar    1  UNL1        0.2051
      2 N          47.0887   12.8084  -22.2082 N.ar    1  UNL1       -0.0582
      3 O          46.2940   13.1411  -23.1791 O.2     1  UNL1       -0.3279
      4 C          46.6226   12.4824  -24.2631 C.ar    1  UNL1        0.3134
      5 N          47.6674   11.6608  -24.0470 N.ar    1  UNL1       -0.1854
      6 C          45.9583   12.6467  -25.5617 C.2     1  UNL1        0.3025
      7 O          44.7602   12.2780  -25.6928 O.2     1  UNL1       -0.2649
      8 N          46.6604   13.2323  -26.6679 N.am    1  UNL1       -0.2930
      9 H          47.6670   13.4907  -26.5588 H       1  UNL1        0.1502
     10 C          46.0174   13.4965  -27.9527 C.3     1  UNL1        0.1168
     11 C          46.2785   12.3662  -28.9108 C.ar    1  UNL1        0.0005
     12 C          46.1341   12.5502  -30.2938 C.ar    1  UNL1        0.0181
     13 C          46.3831   11.4818  -31.1591 C.ar    1  UNL1        0.0986
     14 N          46.7672   10.2760  -30.6620 N.ar    1  UNL1       -0.2423
     15 C          46.9180   10.0713  -29.3265 C.ar    1  UNL1        0.0986
     16 C          46.6757   11.1115  -28.4264 C.ar    1  UNL1        0.0181
     17 C          49.1146   11.3457  -22.0291 C.3     1  UNL1        0.2245
     18 S          50.6215   12.1215  -22.6170 S.O2    1  UNL1        0.0162
     19 O          51.4543   12.5446  -21.4395 O.2     1  UNL1       -0.1682
     20 O          51.4100   11.1269  -23.4227 O.2     1  UNL1       -0.1682
     21 C          49.9731   15.8368  -25.1983 C.ar    1  UNL1       -0.0221
     22 C          50.2407   14.5958  -25.7974 C.ar    1  UNL1       -0.0029
     23 C          50.3874   13.4502  -25.0110 C.ar    1  UNL1        0.0180
     24 C          50.2675   13.5313  -23.6176 C.ar    1  UNL1        0.1061
     25 C          49.9876   14.7668  -23.0176 C.ar    1  UNL1        0.0180
     26 C          49.8474   15.9143  -23.8023 C.ar    1  UNL1       -0.0029
     27 C          51.1260   17.9686  -25.7642 C.3     1  UNL1        0.0050
     28 C          49.9141   17.0836  -26.0378 C.3     1  UNL1        0.0264
@<TRIPOS>BOND
     1    27    28    1
     2    28    21    1
     3    21    22   ar
     4    22    23   ar
     5    23    24   ar
     6    24    18    1
     7    18    19    2
     8    18    20    2
     9    18    17    1
    10    17     1    1
    11     1     2   ar
    12     2     3   ar
    13     3     4   ar
    14     4     6    1
    15     6     7    2
    16     6     8   am
    17     8    10    1
    18    10    11    1
    19    11    12   ar
    20    12    13   ar
    21    13    14   ar
    22    14    15   ar
    23    15    16   ar
    24     4     5   ar
    25    24    25   ar
    26    25    26   ar
    27    26    21   ar
    28     5     1   ar
    29    16    11   ar
    30     8     9    1
@<TRIPOS>MOLECULE
*****
 28 30 0 0 0
SMALL
GASTEIGER

@<TRIPOS>ATOM
      1 C          50.0944   12.7735  -17.7224 C.ar    1  UNL1        0.2051
      2 N          50.9895   11.9624  -17.1257 N.ar    1  UNL1       -0.0582
      3 O          52.0286   11.9862  -17.9033 O.2     1  UNL1       -0.3279
      4 C          51.7887   12.7562  -18.9361 C.ar    1  UNL1        0.3134
      5 N          50.5551   13.2931  -18.8789 N.ar    1  UNL1       -0.1854
      6 C          52.7333   12.9769  -20.0376 C.2     1  UNL1        0.3025
      7 O          53.9652   12.7988  -19.8391 O.2     1  UNL1       -0.2649
      8 N          52.2596   13.3793  -21.3312 N.am    1  UNL1       -0.2930
      9 H          51.2411   13.5683  -21.4695 H       1  UNL1        0.1502
     10 C          53.1492   13.5271  -22.4805 C.3     1  UNL1        0.1168
     11 C          52.4931   12.9883  -23.7227 C.ar    1  UNL1        0.0005
     12 C          53.1307   12.0152  -24.5063 C.ar    1  UNL1        0.0181
     13 C          52.4970   11.5340  -25.6548 C.ar    1  UNL1        0.0986
     14 N          51.2698   12.0033  -26.0048 N.ar    1  UNL1       -0.2423
     15 C          50.6282   12.9436  -25.2616 C.ar    1  UNL1        0.0986
     16 C          51.2277   13.4541  -24.1080 C.ar    1  UNL1        0.0181
     17 C          48.6800   12.9234  -17.2625 C.3     1  UNL1        0.2245
     18 S          47.5769   11.9072  -18.2468 S.O2    1  UNL1        0.0162
     19 O          47.1629   10.7044  -17.4462 O.2     1  UNL1       -0.1682
     20 O          46.3444   12.6980  -18.5864 O.2     1  UNL1       -0.1682
     21 C          49.3658   10.3886  -22.1686 C.ar    1  UNL1       -0.0221
     22 C          48.6702   11.6073  -22.1323 C.ar    1  UNL1       -0.0029
     23 C          48.1682   12.0969  -20.9238 C.ar    1  UNL1        0.0180
     24 C          48.3565   11.3752  -19.7379 C.ar    1  UNL1        0.1061
     25 C          49.0618   10.1643  -19.7691 C.ar    1  UNL1        0.0180
     26 C          49.5584    9.6702  -20.9781 C.ar    1  UNL1       -0.0029
     27 C          50.2046    8.3493  -23.3227 C.3     1  UNL1        0.0050
     28 C          49.8182    9.8161  -23.4841 C.3     1  UNL1        0.0264
@<TRIPOS>BOND
     1    27    28    1
     2    28    21    1
     3    21    22   ar
     4    22    23   ar
     5    23    24   ar
     6    24    18    1
     7    18    19    2
     8    18    20    2
     9    18    17    1
    10    17     1    1
    11     1     2   ar
    12     2     3   ar
    13     3     4   ar
    14     4     6    1
    15     6     7    2
    16     6     8   am
    17     8    10    1
    18    10    11    1
    19    11    12   ar
    20    12    13   ar
    21    13    14   ar
    22    14    15   ar
    23    15    16   ar
    24     4     5   ar
    25    24    25   ar
    26    25    26   ar
    27    26    21   ar
    28     5     1   ar
    29    16    11   ar
    30     8     9    1
@<TRIPOS>MOLECULE
*****
 28 30 0 0 0
SMALL
GASTEIGER

@<TRIPOS>ATOM
      1 C          49.2745   13.1911  -25.2129 C.ar    1  UNL1        0.2051
      2 N          50.2050   13.2772  -24.2423 N.ar    1  UNL1       -0.0582
      3 O          51.0673   12.3494  -24.5263 O.2     1  UNL1       -0.3279
      4 C          50.6870   11.7093  -25.6046 C.ar    1  UNL1        0.3134
      5 N          49.5347   12.2042  -26.0951 N.ar    1  UNL1       -0.1854
      6 C          51.4077   10.5699  -26.1849 C.2     1  UNL1        0.3025
      7 O          51.7483    9.6114  -25.4407 O.2     1  UNL1       -0.2649
      8 N          51.7112   10.5404  -27.5873 N.am    1  UNL1       -0.2930
      9 H          51.4644   11.3621  -28.1838 H       1  UNL1        0.1502
     10 C          52.3483    9.3920  -28.2272 C.3     1  UNL1        0.1168
     11 C          51.3691    8.6817  -29.1218 C.ar    1  UNL1        0.0005
     12 C          50.0027    8.6486  -28.8064 C.ar    1  UNL1        0.0181
     13 C          49.1171    7.9808  -29.6560 C.ar    1  UNL1        0.0986
     14 N          49.5781    7.3731  -30.7815 N.ar    1  UNL1       -0.2423
     15 C          50.8965    7.3927  -31.1127 C.ar    1  UNL1        0.0986
     16 C          51.8162    8.0461  -30.2892 C.ar    1  UNL1        0.0181
     17 C          47.9958   13.9651  -25.2027 C.3     1  UNL1        0.2245
     18 S          46.5908   12.8819  -25.4687 S.O2    1  UNL1        0.0162
     19 O          46.8132   11.5903  -24.7326 O.2     1  UNL1       -0.1682
     20 O          45.3516   13.5328  -24.9206 O.2     1  UNL1       -0.1682
     21 C          46.2619   12.0521  -29.9509 C.ar    1  UNL1       -0.0221
     22 C          46.5245   11.0047  -29.0539 C.ar    1  UNL1       -0.0029
     23 C          46.5736   11.2493  -27.6792 C.ar    1  UNL1        0.0180
     24 C          46.3598   12.5427  -27.1850 C.ar    1  UNL1        0.1061
     25 C          46.0847   13.5880  -28.0774 C.ar    1  UNL1        0.0180
     26 C          46.0422   13.3460  -29.4529 C.ar    1  UNL1       -0.0029
     27 C          45.6087   12.9349  -32.1843 C.3     1  UNL1        0.0050
     28 C          46.3078   11.8056  -31.4341 C.3     1  UNL1        0.0264
@<TRIPOS>BOND
     1    27    28    1
     2    28    21    1
     3    21    22   ar
     4    22    23   ar
     5    23    24   ar
     6    24    18    1
     7    18    19    2
     8    18    20    2
     9    18    17    1
    10    17     1    1
    11     1     2   ar
    12     2     3   ar
    13     3     4   ar
    14     4     6    1
    15     6     7    2
    16     6     8   am
    17     8    10    1
    18    10    11    1
    19    11    12   ar
    20    12    13   ar
    21    13    14   ar
    22    14    15   ar
    23    15    16   ar
    24     4     5   ar
    25    24    25   ar
    26    25    26   ar
    27    26    21   ar
    28     5     1   ar
    29    16    11   ar
    30     8     9    1
@<TRIPOS>MOLECULE
*****
 28 30 0 0 0
SMALL
GASTEIGER

@<TRIPOS>ATOM
      1 C          51.9019   11.4600  -25.3307 C.ar    1  UNL1        0.2051
      2 N          52.5357   11.3058  -24.1518 N.ar    1  UNL1       -0.0582
      3 O          52.2181   12.3599  -23.4641 O.2     1  UNL1       -0.3279
      4 C          51.4429   13.1364  -24.1805 C.ar    1  UNL1        0.3134
      5 N          51.2029   12.6118  -25.3973 N.ar    1  UNL1       -0.1854
      6 C          50.9298   14.4347  -23.7270 C.2     1  UNL1        0.3025
      7 O          51.5088   15.0299  -22.7788 O.2     1  UNL1       -0.2649
      8 N          49.7884   15.0274  -24.3640 N.am    1  UNL1       -0.2930
      9 H          49.2901   14.5021  -25.1175 H       1  UNL1        0.1502
     10 C          49.2936   16.3549  -24.0077 C.3     1  UNL1        0.1168
     11 C          49.5448   17.3255  -25.1296 C.ar    1  UNL1        0.0005
     12 C          50.7496   17.2959  -25.8474 C.ar    1  UNL1        0.0181
     13 C          50.9548   18.2101  -26.8839 C.ar    1  UNL1        0.0986
     14 N          49.9904   19.1165  -27.1956 N.ar    1  UNL1       -0.2423
     15 C          48.8125   19.1647  -26.5185 C.ar    1  UNL1        0.0986
     16 C          48.5681   18.2714  -25.4729 C.ar    1  UNL1        0.0181
     17 C          52.1102   10.5586  -26.5048 C.3     1  UNL1        0.2245
     18 S          50.6247    9.6174  -26.8593 S.O2    1  UNL1        0.0162
     19 O          50.3551    8.6689  -25.7249 O.2     1  UNL1       -0.1682
     20 O          49.4580   10.5579  -26.9785 O.2     1  UNL1       -0.1682
     21 C          50.9607    7.4678  -30.8784 C.ar    1  UNL1       -0.0221
     22 C          52.0569    8.1744  -30.3591 C.ar    1  UNL1       -0.0029
     23 C          51.9710    8.7879  -29.1067 C.ar    1  UNL1        0.0180
     24 C          50.7897    8.7015  -28.3587 C.ar    1  UNL1        0.1061
     25 C          49.6979    7.9859  -28.8691 C.ar    1  UNL1        0.0180
     26 C          49.7801    7.3776  -30.1243 C.ar    1  UNL1       -0.0029
     27 C          49.6984    6.2256  -32.6270 C.3     1  UNL1        0.0050
     28 C          51.0218    6.8933  -32.2673 C.3     1  UNL1        0.0264
@<TRIPOS>BOND
     1    27    28    1
     2    28    21    1
     3    21    22   ar
     4    22    23   ar
     5    23    24   ar
     6    24    18    1
     7    18    19    2
     8    18    20    2
     9    18    17    1
    10    17     1    1
    11     1     2   ar
    12     2     3   ar
    13     3     4   ar
    14     4     6    1
    15     6     7    2
    16     6     8   am
    17     8    10    1
    18    10    11    1
    19    11    12   ar
    20    12    13   ar
    21    13    14   ar
    22    14    15   ar
    23    15    16   ar
    24     4     5   ar
    25    24    25   ar
    26    25    26   ar
    27    26    21   ar
    28     5     1   ar
    29    16    11   ar
    30     8     9    1
@<TRIPOS>MOLECULE
*****
 28 30 0 0 0
SMALL
GASTEIGER

@<TRIPOS>ATOM
      1 C          52.5672   12.1039  -24.8500 C.ar    1  UNL1        0.2051
      2 N          53.7258   11.9423  -24.1816 N.ar    1  UNL1       -0.0582
      3 O          53.5193   12.4894  -23.0227 O.2     1  UNL1       -0.3279
      4 C          52.3050   12.9799  -22.9770 C.ar    1  UNL1        0.3134
      5 N          51.6393   12.7649  -24.1276 N.ar    1  UNL1       -0.1854
      6 C          51.7513   13.7062  -21.8279 C.2     1  UNL1        0.3025
      7 O          52.3589   14.7186  -21.3870 O.2     1  UNL1       -0.2649
      8 N          50.5246   13.2765  -21.2195 N.am    1  UNL1       -0.2930
      9 H          50.0559   12.4089  -21.5652 H       1  UNL1        0.1502
     10 C          49.8887   14.0153  -20.1313 C.3     1  UNL1        0.1168
     11 C          49.0894   13.0825  -19.2626 C.ar    1  UNL1        0.0005
     12 C          47.8023   12.6746  -19.6425 C.ar    1  UNL1        0.0181
     13 C          47.0836   11.8078  -18.8151 C.ar    1  UNL1        0.0986
     14 N          47.6322   11.3609  -17.6541 N.ar    1  UNL1       -0.2423
     15 C          48.8787   11.7377  -17.2637 C.ar    1  UNL1        0.0986
     16 C          49.6299   12.6057  -18.0596 C.ar    1  UNL1        0.0181
     17 C          52.3942   11.7692  -26.2965 C.3     1  UNL1        0.2245
     18 S          51.4571   10.2523  -26.4938 S.O2    1  UNL1        0.0162
     19 O          50.5232   10.3940  -27.6630 O.2     1  UNL1       -0.1682
     20 O          52.4024    9.1183  -26.7767 O.2     1  UNL1       -0.1682
     21 C          49.2029    9.4693  -22.5961 C.ar    1  UNL1       -0.0221
     22 C          48.7861   10.4922  -23.4623 C.ar    1  UNL1       -0.0029
     23 C          49.4430   10.6979  -24.6781 C.ar    1  UNL1        0.0180
     24 C          50.5231    9.8835  -25.0427 C.ar    1  UNL1        0.1061
     25 C          50.9334    8.8532  -24.1855 C.ar    1  UNL1        0.0180
     26 C          50.2816    8.6507  -22.9663 C.ar    1  UNL1       -0.0029
     27 C          49.6039    9.4236  -20.1402 C.3     1  UNL1        0.0050
     28 C          48.5586    9.3138  -21.2457 C.3     1  UNL1        0.0264
@<TRIPOS>BOND
     1    27    28    1
     2    28    21    1
     3    21    22   ar
     4    22    23   ar
     5    23    24   ar
     6    24    18    1
     7    18    19    2
     8    18    20    2
     9    18    17    1
    10    17     1    1
    11     1     2   ar
    12     2     3   ar
    13     3     4   ar
    14     4     6    1
    15     6     7    2
    16     6     8   am
    17     8    10    1
    18    10    11    1
    19    11    12   ar
    20    12    13   ar
    21    13    14   ar
    22    14    15   ar
    23    15    16   ar
    24     4     5   ar
    25    24    25   ar
    26    25    26   ar
    27    26    21   ar
    28     5     1   ar
    29    16    11   ar
    30     8     9    1
