@<TRIPOS>MOLECULE
*****
 50 55 0 0 0
SMALL
GASTEIGER

@<TRIPOS>ATOM
      1 O          10.9650   75.4020   24.9910 O.2     1  UNL1       -0.2701
      2 C           9.9042   75.9384   25.4136 C.2     1  UNL1        0.2483
      3 N           9.9362   76.7394   26.6055 N.am    1  UNL1       -0.2945
      4 H           9.0318   77.0124   27.0521 H       1  UNL1        0.1501
      5 C           8.6355   75.7045   24.6887 C.ar    1  UNL1        0.0808
      6 C           8.4895   74.5498   23.9020 C.ar    1  UNL1        0.0080
      7 C           7.2990   74.3057   23.2128 C.ar    1  UNL1        0.0148
      8 C           6.2348   75.2181   23.2865 C.ar    1  UNL1        0.0502
      9 C           6.3850   76.3809   24.0568 C.ar    1  UNL1        0.0443
     10 C           7.5740   76.6282   24.7500 C.ar    1  UNL1        0.1457
     11 F           7.6971   77.7913   25.4383 F       1  UNL1       -0.2040
     12 N           5.0040   74.9716   22.5791 N.pl3   1  UNL1       -0.3034
     13 C           3.7744   75.6728   22.9605 C.3     1  UNL1        0.1123
     14 C           2.9481   76.0080   21.7180 C.3     1  UNL1        0.1142
     15 N           2.8329   74.8368   20.8348 N.pl3   1  UNL1       -0.2829
     16 C           4.0513   74.0881   20.4882 C.3     1  UNL1        0.1469
     17 I           5.2193   75.2064   19.0772 I       1  UNL1       -0.0512
     18 C           4.8679   73.7738   21.7443 C.3     1  UNL1        0.1216
     19 C           1.6254   74.5988   20.0821 C.ar    1  UNL1        0.1323
     20 C           1.0180   75.6202   19.3333 C.ar    1  UNL1        0.0343
     21 C          -0.1463   75.3485   18.6135 C.ar    1  UNL1        0.0083
     22 C          -0.6950   74.0575   18.6174 C.ar    1  UNL1        0.0906
     23 C          -0.0682   73.0695   19.3922 C.ar    1  UNL1        0.1041
     24 N           1.0636   73.3582   20.0873 N.ar    1  UNL1       -0.2292
     25 C          -1.9789   73.7633   17.8843 C.3     1  UNL1        0.4200
     26 F          -1.8666   74.1026   16.5471 F       1  UNL1       -0.1658
     27 F          -2.2613   72.4139   17.9848 F       1  UNL1       -0.1658
     28 F          -3.0275   74.4854   18.4276 F       1  UNL1       -0.1658
     29 C          11.1995   77.1465   27.2316 C.3     1  UNL1        0.1535
     30 C          12.0318   77.9180   26.2443 C.2     1  UNL1        0.2443
     31 O          11.4810   78.7794   25.5050 O.2     1  UNL1       -0.2730
     32 N          13.4554   77.7325   26.2097 N.am    1  UNL1       -0.2825
     33 H          13.9080   77.2815   27.0370 H       1  UNL1        0.1549
     34 C          14.3037   78.2146   25.1538 C.ar    1  UNL1        0.0535
     35 C          14.8033   79.5228   25.2142 C.ar    1  UNL1        0.0353
     36 C          15.6466   79.9885   24.2026 C.ar    1  UNL1        0.1002
     37 N          15.9937   79.1708   23.1739 N.ar    1  UNL1       -0.2422
     38 C          15.5413   77.8914   23.0978 C.ar    1  UNL1        0.1002
     39 C          14.6948   77.3862   24.0880 C.ar    1  UNL1        0.0353
     40 C          10.9477   78.0073   28.4823 C.3     1  UNL1        0.0569
     41 C           9.5488   78.5523   28.4947 C.ar    1  UNL1       -0.0017
     42 C           9.1160   79.7475   27.9277 C.ar    1  UNL1        0.0681
     43 N           7.7781   79.8825   28.0755 N.ar    1  UNL1       -0.3523
     44 C           7.3623   78.7796   28.7222 C.ar    1  UNL1        0.0563
     45 C           6.0564   78.4556   29.0874 C.ar    1  UNL1        0.0170
     46 C           5.8429   77.2319   29.7484 C.ar    1  UNL1        0.0015
     47 C           6.9265   76.3685   30.0241 C.ar    1  UNL1        0.0001
     48 C           8.2339   76.7211   29.6424 C.ar    1  UNL1        0.0012
     49 C           8.4141   77.9420   28.9919 C.ar    1  UNL1        0.0131
     50 H           7.1898   80.6782   27.7420 H       1  UNL1        0.1660
@<TRIPOS>BOND
     1     1     2    2
     2     2     3   am
     3     3    29    1
     4    29    40    1
     5    40    41    1
     6    41    42   ar
     7    42    43   ar
     8    43    44   ar
     9    44    45   ar
    10    45    46   ar
    11    46    47   ar
    12    47    48   ar
    13    48    49   ar
    14    29    30    1
    15    30    31    2
    16    30    32   am
    17    32    34    1
    18    34    35   ar
    19    35    36   ar
    20    36    37   ar
    21    37    38   ar
    22    38    39   ar
    23     2     5    1
    24     5     6   ar
    25     6     7   ar
    26     7     8   ar
    27     8    12    1
    28    12    13    1
    29    13    14    1
    30    14    15    1
    31    15    19    1
    32    19    20   ar
    33    20    21   ar
    34    21    22   ar
    35    22    25    1
    36    25    26    1
    37    25    27    1
    38    25    28    1
    39    22    23   ar
    40    23    24   ar
    41    15    16    1
    42    16    17    1
    43    16    18    1
    44     8     9   ar
    45     9    10   ar
    46    10    11    1
    47    49    41   ar
    48    39    34   ar
    49    10     5   ar
    50    49    44   ar
    51    18    12    1
    52    24    19   ar
    53     3     4    1
    54    43    50    1
    55    32    33    1
@<TRIPOS>MOLECULE
*****
 50 55 0 0 0
SMALL
GASTEIGER

@<TRIPOS>ATOM
      1 O          10.9359   75.1406   25.0054 O.2     1  UNL1       -0.2701
      2 C           9.9002   75.7592   25.3744 C.2     1  UNL1        0.2483
      3 N           9.9654   76.6523   26.4976 N.am    1  UNL1       -0.2945
      4 H           9.0731   77.0033   26.9131 H       1  UNL1        0.1501
      5 C           8.6249   75.5274   24.6606 C.ar    1  UNL1        0.0808
      6 C           8.5178   75.8727   23.3031 C.ar    1  UNL1        0.0080
      7 C           7.3253   75.6583   22.6075 C.ar    1  UNL1        0.0148
      8 C           6.2116   75.1054   23.2590 C.ar    1  UNL1        0.0502
      9 C           6.3105   74.7767   24.6193 C.ar    1  UNL1        0.0443
     10 C           7.5028   74.9876   25.3188 C.ar    1  UNL1        0.1457
     11 F           7.5378   74.7069   26.6461 F       1  UNL1       -0.2040
     12 N           4.9793   74.8806   22.5470 N.pl3   1  UNL1       -0.3034
     13 C           3.7530   75.5782   22.9454 C.3     1  UNL1        0.1123
     14 C           2.9273   75.9454   21.7116 C.3     1  UNL1        0.1142
     15 N           2.8065   74.7953   20.8017 N.pl3   1  UNL1       -0.2829
     16 C           4.0215   74.0496   20.4371 C.3     1  UNL1        0.1469
     17 I           5.1934   75.1951   19.0513 I       1  UNL1       -0.0512
     18 C           4.8375   73.7029   21.6850 C.3     1  UNL1        0.1216
     19 C           1.5975   74.5799   20.0447 C.ar    1  UNL1        0.1323
     20 C           1.0089   75.6139   19.2983 C.ar    1  UNL1        0.0343
     21 C          -0.1576   75.3640   18.5740 C.ar    1  UNL1        0.0083
     22 C          -0.7271   74.0821   18.5711 C.ar    1  UNL1        0.0906
     23 C          -0.1185   73.0809   19.3438 C.ar    1  UNL1        0.1041
     24 N           1.0157   73.3485   20.0432 N.ar    1  UNL1       -0.2292
     25 C          -2.0134   73.8116   17.8333 C.3     1  UNL1        0.4200
     26 F          -2.3776   72.4820   17.9576 F       1  UNL1       -0.1658
     27 F          -3.0156   74.6046   18.3602 F       1  UNL1       -0.1658
     28 F          -1.8729   74.0980   16.4863 F       1  UNL1       -0.1658
     29 C          11.2440   77.0489   27.0988 C.3     1  UNL1        0.1535
     30 C          12.0549   77.8306   26.1018 C.2     1  UNL1        0.2443
     31 O          11.4695   78.5939   25.2854 O.2     1  UNL1       -0.2730
     32 N          13.4891   77.7704   26.1418 N.am    1  UNL1       -0.2825
     33 H          13.9372   77.4116   27.0154 H       1  UNL1        0.1549
     34 C          14.3441   78.2617   25.0956 C.ar    1  UNL1        0.0535
     35 C          14.8091   79.5829   25.1491 C.ar    1  UNL1        0.0353
     36 C          15.6587   80.0582   24.1473 C.ar    1  UNL1        0.1002
     37 N          16.0453   79.2378   23.1350 N.ar    1  UNL1       -0.2422
     38 C          15.6271   77.9463   23.0663 C.ar    1  UNL1        0.1002
     39 C          14.7757   77.4312   24.0471 C.ar    1  UNL1        0.0353
     40 C          11.0237   77.8948   28.3655 C.3     1  UNL1        0.0569
     41 C           9.6684   77.6416   28.9596 C.ar    1  UNL1       -0.0017
     42 C           8.6812   78.5891   29.2148 C.ar    1  UNL1        0.0681
     43 N           7.5653   77.9910   29.6913 N.ar    1  UNL1       -0.3523
     44 C           7.8366   76.6748   29.7302 C.ar    1  UNL1        0.0563
     45 C           6.9857   75.6479   30.1368 C.ar    1  UNL1        0.0170
     46 C           7.4731   74.3292   30.0810 C.ar    1  UNL1        0.0015
     47 C           8.7840   74.0692   29.6229 C.ar    1  UNL1        0.0001
     48 C           9.6200   75.1255   29.2175 C.ar    1  UNL1        0.0012
     49 C           9.1097   76.4220   29.2876 C.ar    1  UNL1        0.0131
     50 H           6.6719   78.4596   29.9610 H       1  UNL1        0.1660
@<TRIPOS>BOND
     1     1     2    2
     2     2     3   am
     3     3    29    1
     4    29    40    1
     5    40    41    1
     6    41    42   ar
     7    42    43   ar
     8    43    44   ar
     9    44    45   ar
    10    45    46   ar
    11    46    47   ar
    12    47    48   ar
    13    48    49   ar
    14    29    30    1
    15    30    31    2
    16    30    32   am
    17    32    34    1
    18    34    35   ar
    19    35    36   ar
    20    36    37   ar
    21    37    38   ar
    22    38    39   ar
    23     2     5    1
    24     5     6   ar
    25     6     7   ar
    26     7     8   ar
    27     8    12    1
    28    12    13    1
    29    13    14    1
    30    14    15    1
    31    15    19    1
    32    19    20   ar
    33    20    21   ar
    34    21    22   ar
    35    22    25    1
    36    25    26    1
    37    25    27    1
    38    25    28    1
    39    22    23   ar
    40    23    24   ar
    41    15    16    1
    42    16    17    1
    43    16    18    1
    44     8     9   ar
    45     9    10   ar
    46    10    11    1
    47    49    41   ar
    48    39    34   ar
    49    10     5   ar
    50    49    44   ar
    51    18    12    1
    52    24    19   ar
    53     3     4    1
    54    43    50    1
    55    32    33    1
@<TRIPOS>MOLECULE
*****
 50 55 0 0 0
SMALL
GASTEIGER

@<TRIPOS>ATOM
      1 O          14.8608   82.2966   24.4305 O.2     1  UNL1       -0.2701
      2 C          13.6501   82.6292   24.5548 C.2     1  UNL1        0.2483
      3 N          13.2624   83.9977   24.3542 N.am    1  UNL1       -0.2945
      4 H          12.3056   84.2973   24.6485 H       1  UNL1        0.1501
      5 C          12.6532   81.6050   24.9382 C.ar    1  UNL1        0.0808
      6 C          11.3827   82.0070   25.3829 C.ar    1  UNL1        0.0080
      7 C          10.4238   81.0577   25.7453 C.ar    1  UNL1        0.0148
      8 C          10.7207   79.6872   25.6822 C.ar    1  UNL1        0.0502
      9 C          11.9950   79.2839   25.2559 C.ar    1  UNL1        0.0443
     10 C          12.9570   80.2306   24.8901 C.ar    1  UNL1        0.1457
     11 F          14.1941   79.7992   24.5365 F       1  UNL1       -0.2040
     12 N           9.7359   78.7031   26.0535 N.pl3   1  UNL1       -0.3034
     13 C           9.7773   77.3561   25.4767 C.3     1  UNL1        0.1123
     14 C           9.3669   76.3186   26.5228 C.3     1  UNL1        0.1142
     15 N           8.1410   76.7366   27.2211 N.pl3   1  UNL1       -0.2829
     16 C           8.0619   78.1049   27.7564 C.3     1  UNL1        0.1469
     17 I           9.2820   78.2735   29.5139 I       1  UNL1       -0.0512
     18 C           8.4877   79.1248   26.6972 C.3     1  UNL1        0.1216
     19 C           7.1652   75.7610   27.6424 C.ar    1  UNL1        0.1323
     20 C           6.8524   74.6487   26.8437 C.ar    1  UNL1        0.0343
     21 C           5.9072   73.7237   27.2893 C.ar    1  UNL1        0.0083
     22 C           5.2894   73.8896   28.5377 C.ar    1  UNL1        0.0906
     23 C           5.6163   75.0234   29.2975 C.ar    1  UNL1        0.1041
     24 N           6.5381   75.9121   28.8417 N.ar    1  UNL1       -0.2292
     25 C           4.2312   72.9248   29.0084 C.3     1  UNL1        0.4200
     26 F           3.0034   73.2359   28.4500 F       1  UNL1       -0.1658
     27 F           4.5851   71.6424   28.6329 F       1  UNL1       -0.1658
     28 F           4.1049   72.9728   30.3861 F       1  UNL1       -0.1658
     29 C          14.1848   84.9892   23.7886 C.3     1  UNL1        0.1535
     30 C          14.2911   84.7953   22.3007 C.2     1  UNL1        0.2443
     31 O          14.9913   83.8498   21.8448 O.2     1  UNL1       -0.2730
     32 N          13.5293   85.6297   21.4143 N.am    1  UNL1       -0.2825
     33 H          12.7240   86.1605   21.8173 H       1  UNL1        0.1549
     34 C          13.7460   85.7038   19.9950 C.ar    1  UNL1        0.0535
     35 C          13.6796   86.9473   19.3518 C.ar    1  UNL1        0.0353
     36 C          13.9121   87.0281   17.9767 C.ar    1  UNL1        0.1002
     37 N          14.2177   85.9081   17.2699 N.ar    1  UNL1       -0.2422
     38 C          14.3088   84.6913   17.8686 C.ar    1  UNL1        0.1002
     39 C          14.0825   84.5660   19.2417 C.ar    1  UNL1        0.0353
     40 C          13.7143   86.4226   24.0926 C.3     1  UNL1        0.0569
     41 C          14.6869   87.1362   24.9863 C.ar    1  UNL1       -0.0017
     42 C          14.5467   87.3688   26.3514 C.ar    1  UNL1        0.0681
     43 N          15.6486   87.9820   26.8411 N.ar    1  UNL1       -0.3523
     44 C          16.4857   88.1297   25.7995 C.ar    1  UNL1        0.0563
     45 C          17.7596   88.6961   25.8125 C.ar    1  UNL1        0.0170
     46 C          18.4746   88.7342   24.6012 C.ar    1  UNL1        0.0015
     47 C          17.9078   88.2092   23.4185 C.ar    1  UNL1        0.0001
     48 C          16.6205   87.6422   23.4356 C.ar    1  UNL1        0.0012
     49 C          15.9353   87.6221   24.6506 C.ar    1  UNL1        0.0131
     50 H          15.8160   88.2691   27.8311 H       1  UNL1        0.1660
@<TRIPOS>BOND
     1     1     2    2
     2     2     3   am
     3     3    29    1
     4    29    40    1
     5    40    41    1
     6    41    42   ar
     7    42    43   ar
     8    43    44   ar
     9    44    45   ar
    10    45    46   ar
    11    46    47   ar
    12    47    48   ar
    13    48    49   ar
    14    29    30    1
    15    30    31    2
    16    30    32   am
    17    32    34    1
    18    34    35   ar
    19    35    36   ar
    20    36    37   ar
    21    37    38   ar
    22    38    39   ar
    23     2     5    1
    24     5     6   ar
    25     6     7   ar
    26     7     8   ar
    27     8    12    1
    28    12    13    1
    29    13    14    1
    30    14    15    1
    31    15    19    1
    32    19    20   ar
    33    20    21   ar
    34    21    22   ar
    35    22    25    1
    36    25    26    1
    37    25    27    1
    38    25    28    1
    39    22    23   ar
    40    23    24   ar
    41    15    16    1
    42    16    17    1
    43    16    18    1
    44     8     9   ar
    45     9    10   ar
    46    10    11    1
    47    49    41   ar
    48    39    34   ar
    49    10     5   ar
    50    49    44   ar
    51    18    12    1
    52    24    19   ar
    53     3     4    1
    54    43    50    1
    55    32    33    1
@<TRIPOS>MOLECULE
*****
 50 55 0 0 0
SMALL
GASTEIGER

@<TRIPOS>ATOM
      1 O           9.6866   78.7854   25.3611 O.2     1  UNL1       -0.2701
      2 C           9.4052   77.5556   25.3586 C.2     1  UNL1        0.2483
      3 N          10.2658   76.6259   26.0358 N.am    1  UNL1       -0.2945
      4 H          10.1353   75.6035   25.8641 H       1  UNL1        0.1501
      5 C           8.2066   77.0881   24.6276 C.ar    1  UNL1        0.0808
      6 C           7.1792   76.4340   25.3277 C.ar    1  UNL1        0.0080
      7 C           6.0360   75.9885   24.6594 C.ar    1  UNL1        0.0148
      8 C           5.9030   76.1771   23.2747 C.ar    1  UNL1        0.0502
      9 C           6.9359   76.8138   22.5704 C.ar    1  UNL1        0.0443
     10 C           8.0808   77.2632   23.2357 C.ar    1  UNL1        0.1457
     11 F           9.0794   77.8241   22.5078 F       1  UNL1       -0.2040
     12 N           4.7262   75.7211   22.5797 N.pl3   1  UNL1       -0.3034
     13 C           3.4177   76.3182   22.8631 C.3     1  UNL1        0.1123
     14 C           2.5940   76.4244   21.5789 C.3     1  UNL1        0.1142
     15 N           2.6312   75.1599   20.8275 N.pl3   1  UNL1       -0.2829
     16 C           3.9328   74.5184   20.5837 C.3     1  UNL1        0.1469
     17 I           5.0104   75.6020   19.0768 I       1  UNL1       -0.0512
     18 C           4.7441   74.4331   21.8791 C.3     1  UNL1        0.1216
     19 C           1.4777   74.7099   20.0869 C.ar    1  UNL1        0.1323
     20 C           1.1047   73.3559   20.0675 C.ar    1  UNL1        0.0343
     21 C          -0.0216   72.9611   19.3441 C.ar    1  UNL1        0.0083
     22 C          -0.7915   73.9130   18.6592 C.ar    1  UNL1        0.0906
     23 C          -0.3752   75.2529   18.6888 C.ar    1  UNL1        0.1041
     24 N           0.7268   75.6134   19.3981 N.ar    1  UNL1       -0.2292
     25 C          -1.9812   73.4932   17.8342 C.3     1  UNL1        0.4200
     26 F          -2.1681   72.1237   17.9081 F       1  UNL1       -0.1658
     27 F          -3.1125   74.1289   18.3106 F       1  UNL1       -0.1658
     28 F          -1.7981   73.8341   16.5051 F       1  UNL1       -0.1658
     29 C          11.3439   77.0745   26.9247 C.3     1  UNL1        0.1535
     30 C          12.3028   77.9473   26.1621 C.2     1  UNL1        0.2443
     31 O          11.9530   79.1128   25.8289 O.2     1  UNL1       -0.2730
     32 N          13.6351   77.4829   25.8949 N.am    1  UNL1       -0.2825
     33 H          13.9936   76.6802   26.4604 H       1  UNL1        0.1549
     34 C          14.5359   78.1136   24.9687 C.ar    1  UNL1        0.0535
     35 C          14.9119   77.4341   23.8019 C.ar    1  UNL1        0.0353
     36 C          15.7686   78.0517   22.8876 C.ar    1  UNL1        0.1002
     37 N          16.2215   79.3117   23.1211 N.ar    1  UNL1       -0.2422
     38 C          15.8591   80.0036   24.2335 C.ar    1  UNL1        0.1002
     39 C          15.0049   79.4225   25.1742 C.ar    1  UNL1        0.0353
     40 C          10.7835   77.8496   28.1304 C.3     1  UNL1        0.0569
     41 C           9.5634   77.1770   28.6899 C.ar    1  UNL1       -0.0017
     42 C           9.5005   75.9105   29.2637 C.ar    1  UNL1        0.0681
     43 N           8.2512   75.6600   29.7181 N.ar    1  UNL1       -0.3523
     44 C           7.5285   76.7601   29.4443 C.ar    1  UNL1        0.0563
     45 C           6.1841   76.9834   29.7389 C.ar    1  UNL1        0.0170
     46 C           5.6283   78.2235   29.3743 C.ar    1  UNL1        0.0015
     47 C           6.4201   79.2022   28.7331 C.ar    1  UNL1        0.0001
     48 C           7.7747   78.9497   28.4497 C.ar    1  UNL1        0.0012
     49 C           8.2960   77.7098   28.8201 C.ar    1  UNL1        0.0131
     50 H           7.9224   74.7915   30.1955 H       1  UNL1        0.1660
@<TRIPOS>BOND
     1     1     2    2
     2     2     3   am
     3     3    29    1
     4    29    40    1
     5    40    41    1
     6    41    42   ar
     7    42    43   ar
     8    43    44   ar
     9    44    45   ar
    10    45    46   ar
    11    46    47   ar
    12    47    48   ar
    13    48    49   ar
    14    29    30    1
    15    30    31    2
    16    30    32   am
    17    32    34    1
    18    34    35   ar
    19    35    36   ar
    20    36    37   ar
    21    37    38   ar
    22    38    39   ar
    23     2     5    1
    24     5     6   ar
    25     6     7   ar
    26     7     8   ar
    27     8    12    1
    28    12    13    1
    29    13    14    1
    30    14    15    1
    31    15    19    1
    32    19    20   ar
    33    20    21   ar
    34    21    22   ar
    35    22    25    1
    36    25    26    1
    37    25    27    1
    38    25    28    1
    39    22    23   ar
    40    23    24   ar
    41    15    16    1
    42    16    17    1
    43    16    18    1
    44     8     9   ar
    45     9    10   ar
    46    10    11    1
    47    49    41   ar
    48    39    34   ar
    49    10     5   ar
    50    49    44   ar
    51    18    12    1
    52    24    19   ar
    53     3     4    1
    54    43    50    1
    55    32    33    1
@<TRIPOS>MOLECULE
*****
 50 55 0 0 0
SMALL
GASTEIGER

@<TRIPOS>ATOM
      1 O          15.0568   82.0661   24.4264 O.2     1  UNL1       -0.2701
      2 C          13.8503   82.4091   24.5615 C.2     1  UNL1        0.2483
      3 N          13.4766   83.7853   24.3888 N.am    1  UNL1       -0.2945
      4 H          12.5241   84.0893   24.6923 H       1  UNL1        0.1501
      5 C          12.8438   81.3884   24.9288 C.ar    1  UNL1        0.0808
      6 C          13.2236   80.0384   25.0104 C.ar    1  UNL1        0.0080
      7 C          12.2917   79.0581   25.3603 C.ar    1  UNL1        0.0148
      8 C          10.9577   79.4069   25.6235 C.ar    1  UNL1        0.0502
      9 C          10.5718   80.7521   25.5248 C.ar    1  UNL1        0.0443
     10 C          11.5018   81.7368   25.1770 C.ar    1  UNL1        0.1457
     11 F          11.0741   83.0173   25.0392 F       1  UNL1       -0.2040
     12 N           9.9920   78.4009   25.9860 N.pl3   1  UNL1       -0.3034
     13 C          10.3998   77.0015   26.1427 C.3     1  UNL1        0.1123
     14 C           9.6316   76.3513   27.2942 C.3     1  UNL1        0.1142
     15 N           8.1936   76.6478   27.1971 N.pl3   1  UNL1       -0.2829
     16 C           7.7702   78.0407   26.9829 C.3     1  UNL1        0.1469
     17 I           8.0178   79.1661   28.7935 I       1  UNL1       -0.0512
     18 C           8.5594   78.6747   25.8346 C.3     1  UNL1        0.1216
     19 C           7.2120   75.6702   27.5996 C.ar    1  UNL1        0.1323
     20 C           6.5541   74.8642   26.6559 C.ar    1  UNL1        0.0343
     21 C           5.6152   73.9255   27.0857 C.ar    1  UNL1        0.0083
     22 C           5.3459   73.7699   28.4536 C.ar    1  UNL1        0.0906
     23 C           6.0112   74.6066   29.3630 C.ar    1  UNL1        0.1041
     24 N           6.9198   75.5155   28.9207 N.ar    1  UNL1       -0.2292
     25 C           4.2986   72.7946   28.9271 C.3     1  UNL1        0.4200
     26 F           3.0605   73.1108   28.3949 F       1  UNL1       -0.1658
     27 F           4.6495   71.5193   28.5252 F       1  UNL1       -0.1658
     28 F           4.1960   72.8205   30.3073 F       1  UNL1       -0.1658
     29 C          14.4075   84.7776   23.8390 C.3     1  UNL1        0.1535
     30 C          14.5598   84.5671   22.3574 C.2     1  UNL1        0.2443
     31 O          15.3701   83.6983   21.9324 O.2     1  UNL1       -0.2730
     32 N          13.7231   85.2914   21.4422 N.am    1  UNL1       -0.2825
     33 H          12.8562   85.7352   21.8220 H       1  UNL1        0.1549
     34 C          13.9536   85.3610   20.0248 C.ar    1  UNL1        0.0535
     35 C          14.5966   84.2966   19.3781 C.ar    1  UNL1        0.0353
     36 C          14.8023   84.3489   17.9975 C.ar    1  UNL1        0.1002
     37 N          14.3657   85.4196   17.2830 N.ar    1  UNL1       -0.2422
     38 C          13.7217   86.4578   17.8786 C.ar    1  UNL1        0.1002
     39 C          13.4965   86.4462   19.2575 C.ar    1  UNL1        0.0353
     40 C          13.9168   86.2106   24.1116 C.3     1  UNL1        0.0569
     41 C          14.9921   87.0415   24.7497 C.ar    1  UNL1       -0.0017
     42 C          16.1327   87.5448   24.1308 C.ar    1  UNL1        0.0681
     43 N          16.8428   88.3043   24.9961 N.ar    1  UNL1       -0.3523
     44 C          16.1560   88.2920   26.1518 C.ar    1  UNL1        0.0563
     45 C          16.4845   88.9478   27.3375 C.ar    1  UNL1        0.0170
     46 C          15.6078   88.8106   28.4294 C.ar    1  UNL1        0.0015
     47 C          14.4348   88.0319   28.3124 C.ar    1  UNL1        0.0001
     48 C          14.1280   87.3825   27.1027 C.ar    1  UNL1        0.0012
     49 C          15.0182   87.5346   26.0394 C.ar    1  UNL1        0.0131
     50 H          17.7365   88.8069   24.7984 H       1  UNL1        0.1660
@<TRIPOS>BOND
     1     1     2    2
     2     2     3   am
     3     3    29    1
     4    29    40    1
     5    40    41    1
     6    41    42   ar
     7    42    43   ar
     8    43    44   ar
     9    44    45   ar
    10    45    46   ar
    11    46    47   ar
    12    47    48   ar
    13    48    49   ar
    14    29    30    1
    15    30    31    2
    16    30    32   am
    17    32    34    1
    18    34    35   ar
    19    35    36   ar
    20    36    37   ar
    21    37    38   ar
    22    38    39   ar
    23     2     5    1
    24     5     6   ar
    25     6     7   ar
    26     7     8   ar
    27     8    12    1
    28    12    13    1
    29    13    14    1
    30    14    15    1
    31    15    19    1
    32    19    20   ar
    33    20    21   ar
    34    21    22   ar
    35    22    25    1
    36    25    26    1
    37    25    27    1
    38    25    28    1
    39    22    23   ar
    40    23    24   ar
    41    15    16    1
    42    16    17    1
    43    16    18    1
    44     8     9   ar
    45     9    10   ar
    46    10    11    1
    47    49    41   ar
    48    39    34   ar
    49    10     5   ar
    50    49    44   ar
    51    18    12    1
    52    24    19   ar
    53     3     4    1
    54    43    50    1
    55    32    33    1
@<TRIPOS>MOLECULE
*****
 50 55 0 0 0
SMALL
GASTEIGER

@<TRIPOS>ATOM
      1 O          14.3206   82.7733   23.9571 O.2     1  UNL1       -0.2701
      2 C          13.2495   83.1676   24.4947 C.2     1  UNL1        0.2483
      3 N          13.0097   84.5744   24.6584 N.am    1  UNL1       -0.2945
      4 H          12.2230   84.8820   25.2735 H       1  UNL1        0.1501
      5 C          12.2708   82.1685   24.9779 C.ar    1  UNL1        0.0808
      6 C          11.5116   81.4368   24.0496 C.ar    1  UNL1        0.0080
      7 C          10.5853   80.4847   24.4824 C.ar    1  UNL1        0.0148
      8 C          10.3906   80.2541   25.8534 C.ar    1  UNL1        0.0502
      9 C          11.1345   80.9965   26.7827 C.ar    1  UNL1        0.0443
     10 C          12.0642   81.9489   26.3537 C.ar    1  UNL1        0.1457
     11 F          12.7221   82.6833   27.2862 F       1  UNL1       -0.2040
     12 N           9.4378   79.2728   26.3064 N.pl3   1  UNL1       -0.3034
     13 C           8.4447   78.7189   25.3812 C.3     1  UNL1        0.1123
     14 C           8.2093   77.2377   25.6807 C.3     1  UNL1        0.1142
     15 N           8.0109   77.0206   27.1224 N.pl3   1  UNL1       -0.2829
     16 C           8.9677   77.6180   28.0672 C.3     1  UNL1        0.1469
     17 I          10.8168   76.5296   28.0205 I       1  UNL1       -0.0512
     18 C           9.1968   79.0962   27.7420 C.3     1  UNL1        0.1216
     19 C           7.0958   76.0104   27.5953 C.ar    1  UNL1        0.1323
     20 C           7.5593   74.7906   28.1150 C.ar    1  UNL1        0.0343
     21 C           6.6424   73.8411   28.5682 C.ar    1  UNL1        0.0083
     22 C           5.2664   74.1113   28.5277 C.ar    1  UNL1        0.0906
     23 C           4.8433   75.3344   27.9848 C.ar    1  UNL1        0.1041
     24 N           5.7548   76.2426   27.5472 N.ar    1  UNL1       -0.2292
     25 C           4.2641   73.0751   28.9680 C.3     1  UNL1        0.4200
     26 F           4.2283   72.9859   30.3488 F       1  UNL1       -0.1658
     27 F           3.0102   73.4300   28.5066 F       1  UNL1       -0.1658
     28 F           4.5951   71.8299   28.4621 F       1  UNL1       -0.1658
     29 C          13.8622   85.5848   24.0210 C.3     1  UNL1        0.1535
     30 C          13.0795   86.3209   22.9683 C.2     1  UNL1        0.2443
     31 O          11.8394   86.4947   23.1227 O.2     1  UNL1       -0.2730
     32 N          13.7600   86.8945   21.8413 N.am    1  UNL1       -0.2825
     33 H          14.7947   87.0254   21.9122 H       1  UNL1        0.1549
     34 C          13.0949   87.3863   20.6654 C.ar    1  UNL1        0.0535
     35 C          13.6221   87.0904   19.4009 C.ar    1  UNL1        0.0353
     36 C          12.9670   87.5462   18.2545 C.ar    1  UNL1        0.1002
     37 N          11.8150   88.2590   18.3652 N.ar    1  UNL1       -0.2422
     38 C          11.2687   88.5450   19.5764 C.ar    1  UNL1        0.1002
     39 C          11.8924   88.1091   20.7483 C.ar    1  UNL1        0.0353
     40 C          14.4073   86.5848   25.0562 C.3     1  UNL1        0.0569
     41 C          15.7934   87.0369   24.6981 C.ar    1  UNL1       -0.0017
     42 C          16.4817   86.7583   23.5208 C.ar    1  UNL1        0.0681
     43 N          17.6808   87.3846   23.5158 N.ar    1  UNL1       -0.3523
     44 C          17.7509   88.0624   24.6747 C.ar    1  UNL1        0.0563
     45 C          18.7942   88.8747   25.1172 C.ar    1  UNL1        0.0170
     46 C          18.6506   89.5076   26.3657 C.ar    1  UNL1        0.0015
     47 C          17.4800   89.3187   27.1337 C.ar    1  UNL1        0.0001
     48 C          16.4426   88.4944   26.6611 C.ar    1  UNL1        0.0012
     49 C          16.6157   87.8779   25.4217 C.ar    1  UNL1        0.0131
     50 H          18.3981   87.3548   22.7576 H       1  UNL1        0.1660
@<TRIPOS>BOND
     1     1     2    2
     2     2     3   am
     3     3    29    1
     4    29    40    1
     5    40    41    1
     6    41    42   ar
     7    42    43   ar
     8    43    44   ar
     9    44    45   ar
    10    45    46   ar
    11    46    47   ar
    12    47    48   ar
    13    48    49   ar
    14    29    30    1
    15    30    31    2
    16    30    32   am
    17    32    34    1
    18    34    35   ar
    19    35    36   ar
    20    36    37   ar
    21    37    38   ar
    22    38    39   ar
    23     2     5    1
    24     5     6   ar
    25     6     7   ar
    26     7     8   ar
    27     8    12    1
    28    12    13    1
    29    13    14    1
    30    14    15    1
    31    15    19    1
    32    19    20   ar
    33    20    21   ar
    34    21    22   ar
    35    22    25    1
    36    25    26    1
    37    25    27    1
    38    25    28    1
    39    22    23   ar
    40    23    24   ar
    41    15    16    1
    42    16    17    1
    43    16    18    1
    44     8     9   ar
    45     9    10   ar
    46    10    11    1
    47    49    41   ar
    48    39    34   ar
    49    10     5   ar
    50    49    44   ar
    51    18    12    1
    52    24    19   ar
    53     3     4    1
    54    43    50    1
    55    32    33    1
@<TRIPOS>MOLECULE
*****
 50 55 0 0 0
SMALL
GASTEIGER

@<TRIPOS>ATOM
      1 O          10.0795   78.7126   24.9750 O.2     1  UNL1       -0.2701
      2 C           9.4403   77.7297   25.4408 C.2     1  UNL1        0.2483
      3 N           9.9044   77.0782   26.6339 N.am    1  UNL1       -0.2945
      4 H           9.4883   76.1566   26.8976 H       1  UNL1        0.1501
      5 C           8.2378   77.2441   24.7281 C.ar    1  UNL1        0.0808
      6 C           8.3163   76.9507   23.3565 C.ar    1  UNL1        0.0080
      7 C           7.1953   76.4862   22.6641 C.ar    1  UNL1        0.0148
      8 C           5.9695   76.3176   23.3271 C.ar    1  UNL1        0.0502
      9 C           5.8841   76.6274   24.6927 C.ar    1  UNL1        0.0443
     10 C           7.0042   77.0906   25.3901 C.ar    1  UNL1        0.1457
     11 F           6.8637   77.4307   26.6963 F       1  UNL1       -0.2040
     12 N           4.8100   75.8378   22.6191 N.pl3   1  UNL1       -0.3034
     13 C           3.4698   76.3063   22.9844 C.3     1  UNL1        0.1123
     14 C           2.6042   76.4643   21.7334 C.3     1  UNL1        0.1142
     15 N           2.7127   75.2785   20.8690 N.pl3   1  UNL1       -0.2829
     16 C           4.0505   74.7620   20.5393 C.3     1  UNL1        0.1469
     17 I           5.0020   76.0546   19.1147 I       1  UNL1       -0.0512
     18 C           4.9025   74.6228   21.8035 C.3     1  UNL1        0.1216
     19 C           1.5747   74.8106   20.1157 C.ar    1  UNL1        0.1323
     20 C           0.8332   75.6787   19.2975 C.ar    1  UNL1        0.0343
     21 C          -0.2575   75.1863   18.5796 C.ar    1  UNL1        0.0083
     22 C          -0.5984   73.8276   18.6549 C.ar    1  UNL1        0.0906
     23 C           0.1565   72.9970   19.4974 C.ar    1  UNL1        0.1041
     24 N           1.2131   73.4997   20.1890 N.ar    1  UNL1       -0.2292
     25 C          -1.8035   73.2935   17.9236 C.3     1  UNL1        0.4200
     26 F          -1.8595   71.9136   18.0170 F       1  UNL1       -0.1658
     27 F          -2.9489   73.8299   18.4813 F       1  UNL1       -0.1658
     28 F          -1.7518   73.6350   16.5831 F       1  UNL1       -0.1658
     29 C          10.9708   77.6502   27.4641 C.3     1  UNL1        0.1535
     30 C          12.2811   77.5816   26.7286 C.2     1  UNL1        0.2443
     31 O          13.2332   76.9116   27.2148 O.2     1  UNL1       -0.2730
     32 N          12.4122   78.2044   25.4413 N.am    1  UNL1       -0.2825
     33 H          11.5356   78.4509   24.9280 H       1  UNL1        0.1549
     34 C          13.6687   78.4200   24.7766 C.ar    1  UNL1        0.0535
     35 C          14.3865   79.5980   25.0251 C.ar    1  UNL1        0.0353
     36 C          15.6188   79.8020   24.3996 C.ar    1  UNL1        0.1002
     37 N          16.1262   78.8548   23.5672 N.ar    1  UNL1       -0.2422
     38 C          15.4631   77.6940   23.3218 C.ar    1  UNL1        0.1002
     39 C          14.2270   77.4505   23.9259 C.ar    1  UNL1        0.0353
     40 C          10.6612   79.1108   27.8373 C.3     1  UNL1        0.0569
     41 C           9.9486   79.1959   29.1560 C.ar    1  UNL1       -0.0017
     42 C           9.3937   78.1390   29.8720 C.ar    1  UNL1        0.0681
     43 N           8.8912   78.5787   31.0485 N.ar    1  UNL1       -0.3523
     44 C           9.1321   79.9008   31.0848 C.ar    1  UNL1        0.0563
     45 C           8.8120   80.7906   32.1094 C.ar    1  UNL1        0.0170
     46 C           9.1745   82.1402   31.9453 C.ar    1  UNL1        0.0015
     47 C           9.8433   82.5648   30.7756 C.ar    1  UNL1        0.0001
     48 C          10.1549   81.6441   29.7586 C.ar    1  UNL1        0.0012
     49 C           9.7795   80.3140   29.9487 C.ar    1  UNL1        0.0131
     50 H           8.4230   78.0020   31.7824 H       1  UNL1        0.1660
@<TRIPOS>BOND
     1     1     2    2
     2     2     3   am
     3     3    29    1
     4    29    40    1
     5    40    41    1
     6    41    42   ar
     7    42    43   ar
     8    43    44   ar
     9    44    45   ar
    10    45    46   ar
    11    46    47   ar
    12    47    48   ar
    13    48    49   ar
    14    29    30    1
    15    30    31    2
    16    30    32   am
    17    32    34    1
    18    34    35   ar
    19    35    36   ar
    20    36    37   ar
    21    37    38   ar
    22    38    39   ar
    23     2     5    1
    24     5     6   ar
    25     6     7   ar
    26     7     8   ar
    27     8    12    1
    28    12    13    1
    29    13    14    1
    30    14    15    1
    31    15    19    1
    32    19    20   ar
    33    20    21   ar
    34    21    22   ar
    35    22    25    1
    36    25    26    1
    37    25    27    1
    38    25    28    1
    39    22    23   ar
    40    23    24   ar
    41    15    16    1
    42    16    17    1
    43    16    18    1
    44     8     9   ar
    45     9    10   ar
    46    10    11    1
    47    49    41   ar
    48    39    34   ar
    49    10     5   ar
    50    49    44   ar
    51    18    12    1
    52    24    19   ar
    53     3     4    1
    54    43    50    1
    55    32    33    1
@<TRIPOS>MOLECULE
*****
 50 55 0 0 0
SMALL
GASTEIGER

@<TRIPOS>ATOM
      1 O          14.6051   82.7553   23.9263 O.2     1  UNL1       -0.2701
      2 C          13.4508   83.0600   24.3343 C.2     1  UNL1        0.2483
      3 N          13.0168   84.4285   24.2891 N.am    1  UNL1       -0.2945
      4 H          12.1483   84.6977   24.8041 H       1  UNL1        0.1501
      5 C          12.5741   82.0023   24.8842 C.ar    1  UNL1        0.0808
      6 C          11.2565   82.3178   25.2555 C.ar    1  UNL1        0.0080
      7 C          10.4092   81.3345   25.7721 C.ar    1  UNL1        0.0148
      8 C          10.8667   80.0180   25.9396 C.ar    1  UNL1        0.0502
      9 C          12.1879   79.7046   25.5866 C.ar    1  UNL1        0.0443
     10 C          13.0387   80.6853   25.0671 C.ar    1  UNL1        0.1457
     11 F          14.3248   80.3520   24.7907 F       1  UNL1       -0.2040
     12 N           9.9976   78.9989   26.4707 N.pl3   1  UNL1       -0.3034
     13 C           9.0164   79.3265   27.5094 C.3     1  UNL1        0.1123
     14 C           7.7279   78.5320   27.2910 C.3     1  UNL1        0.1142
     15 N           8.0245   77.1128   27.0401 N.pl3   1  UNL1       -0.2829
     16 C           9.0481   76.7688   26.0405 C.3     1  UNL1        0.1469
     17 I           8.2784   77.0968   24.0642 I       1  UNL1       -0.0512
     18 C          10.3236   77.5833   26.2710 C.3     1  UNL1        0.1216
     19 C           7.1411   76.0798   27.5237 C.ar    1  UNL1        0.1323
     20 C           7.1262   75.7062   28.8776 C.ar    1  UNL1        0.0343
     21 C           6.2525   74.7065   29.3076 C.ar    1  UNL1        0.0083
     22 C           5.3768   74.0939   28.3989 C.ar    1  UNL1        0.0906
     23 C           5.4352   74.4831   27.0517 C.ar    1  UNL1        0.1041
     24 N           6.2963   75.4572   26.6558 N.ar    1  UNL1       -0.2292
     25 C           4.4635   72.9790   28.8406 C.3     1  UNL1        0.4200
     26 F           3.1796   73.1818   28.3645 F       1  UNL1       -0.1658
     27 F           4.9414   71.7781   28.3506 F       1  UNL1       -0.1658
     28 F           4.4075   72.9123   30.2221 F       1  UNL1       -0.1658
     29 C          13.7801   85.4601   23.5771 C.3     1  UNL1        0.1535
     30 C          14.5111   86.3263   24.5660 C.2     1  UNL1        0.2443
     31 O          15.7623   86.4589   24.4714 O.2     1  UNL1       -0.2730
     32 N          13.7739   87.0628   25.5540 N.am    1  UNL1       -0.2825
     33 H          12.7491   87.1971   25.3970 H       1  UNL1        0.1549
     34 C          14.3740   87.7062   26.6910 C.ar    1  UNL1        0.0535
     35 C          13.8705   87.4492   27.9736 C.ar    1  UNL1        0.0353
     36 C          14.4647   88.0538   29.0839 C.ar    1  UNL1        0.1002
     37 N          15.5364   88.8739   28.9217 N.ar    1  UNL1       -0.2422
     38 C          16.0595   89.1269   27.6930 C.ar    1  UNL1        0.1002
     39 C          15.4947   88.5436   26.5559 C.ar    1  UNL1        0.0353
     40 C          14.7853   84.8300   22.5968 C.3     1  UNL1        0.0569
     41 C          14.4740   85.2115   21.1785 C.ar    1  UNL1       -0.0017
     42 C          14.9558   84.5969   20.0263 C.ar    1  UNL1        0.0681
     43 N          14.4115   85.1650   18.9258 N.ar    1  UNL1       -0.3523
     44 C          13.5844   86.1256   19.3738 C.ar    1  UNL1        0.0563
     45 C          12.7844   86.9755   18.6112 C.ar    1  UNL1        0.0170
     46 C          11.9760   87.9041   19.2922 C.ar    1  UNL1        0.0015
     47 C          11.9833   87.9602   20.7038 C.ar    1  UNL1        0.0001
     48 C          12.7999   87.0888   21.4476 C.ar    1  UNL1        0.0012
     49 C          13.5926   86.1818   20.7439 C.ar    1  UNL1        0.0131
     50 H          14.5909   84.8994   17.9320 H       1  UNL1        0.1660
@<TRIPOS>BOND
     1     1     2    2
     2     2     3   am
     3     3    29    1
     4    29    40    1
     5    40    41    1
     6    41    42   ar
     7    42    43   ar
     8    43    44   ar
     9    44    45   ar
    10    45    46   ar
    11    46    47   ar
    12    47    48   ar
    13    48    49   ar
    14    29    30    1
    15    30    31    2
    16    30    32   am
    17    32    34    1
    18    34    35   ar
    19    35    36   ar
    20    36    37   ar
    21    37    38   ar
    22    38    39   ar
    23     2     5    1
    24     5     6   ar
    25     6     7   ar
    26     7     8   ar
    27     8    12    1
    28    12    13    1
    29    13    14    1
    30    14    15    1
    31    15    19    1
    32    19    20   ar
    33    20    21   ar
    34    21    22   ar
    35    22    25    1
    36    25    26    1
    37    25    27    1
    38    25    28    1
    39    22    23   ar
    40    23    24   ar
    41    15    16    1
    42    16    17    1
    43    16    18    1
    44     8     9   ar
    45     9    10   ar
    46    10    11    1
    47    49    41   ar
    48    39    34   ar
    49    10     5   ar
    50    49    44   ar
    51    18    12    1
    52    24    19   ar
    53     3     4    1
    54    43    50    1
    55    32    33    1
@<TRIPOS>MOLECULE
*****
 50 55 0 0 0
SMALL
GASTEIGER

@<TRIPOS>ATOM
      1 O          11.0518   75.7476   24.3096 O.2     1  UNL1       -0.2701
      2 C          10.0102   75.5659   24.9978 C.2     1  UNL1        0.2483
      3 N          10.1021   75.5151   26.4304 N.am    1  UNL1       -0.2945
      4 H           9.2789   75.1720   26.9750 H       1  UNL1        0.1501
      5 C           8.7129   75.3753   24.3120 C.ar    1  UNL1        0.0808
      6 C           8.5416   74.2843   23.4437 C.ar    1  UNL1        0.0080
      7 C           7.3241   74.0815   22.7893 C.ar    1  UNL1        0.0148
      8 C           6.2569   74.9731   22.9806 C.ar    1  UNL1        0.0502
      9 C           6.4315   76.0736   23.8331 C.ar    1  UNL1        0.0443
     10 C           7.6478   76.2792   24.4918 C.ar    1  UNL1        0.1457
     11 F           7.7917   77.3860   25.2637 F       1  UNL1       -0.2040
     12 N           4.9982   74.7690   22.3096 N.pl3   1  UNL1       -0.3034
     13 C           3.7726   75.3864   22.8252 C.3     1  UNL1        0.1123
     14 C           2.8762   75.8312   21.6687 C.3     1  UNL1        0.1142
     15 N           2.7454   74.7615   20.6668 N.pl3   1  UNL1       -0.2829
     16 C           3.9628   74.0929   20.1811 C.3     1  UNL1        0.1469
     17 I           5.0296   75.3947   18.8495 I       1  UNL1       -0.0512
     18 C           4.8497   73.6669   21.3539 C.3     1  UNL1        0.1216
     19 C           1.5074   74.5715   19.9508 C.ar    1  UNL1        0.1323
     20 C           0.9010   75.6253   19.2475 C.ar    1  UNL1        0.0343
     21 C          -0.2934   75.3998   18.5620 C.ar    1  UNL1        0.0083
     22 C          -0.8741   74.1229   18.5544 C.ar    1  UNL1        0.0906
     23 C          -0.2465   73.1012   19.2838 C.ar    1  UNL1        0.1041
     24 N           0.9150   73.3452   19.9461 N.ar    1  UNL1       -0.2292
     25 C          -2.1890   73.8780   17.8593 C.3     1  UNL1        0.4200
     26 F          -3.1610   74.7412   18.3347 F       1  UNL1       -0.1658
     27 F          -2.0307   74.0817   16.5012 F       1  UNL1       -0.1658
     28 F          -2.6202   72.5802   18.0736 F       1  UNL1       -0.1658
     29 C          11.3295   75.8908   27.1418 C.3     1  UNL1        0.1535
     30 C          11.8426   77.2027   26.6141 C.2     1  UNL1        0.2443
     31 O          13.0502   77.5181   26.7991 O.2     1  UNL1       -0.2730
     32 N          10.9821   78.0448   25.8316 N.am    1  UNL1       -0.2825
     33 H          10.1228   77.6147   25.4201 H       1  UNL1        0.1549
     34 C          11.2789   79.4121   25.5010 C.ar    1  UNL1        0.0535
     35 C          12.5552   79.7449   25.0268 C.ar    1  UNL1        0.0353
     36 C          12.8417   81.0680   24.6822 C.ar    1  UNL1        0.1002
     37 N          11.8819   82.0241   24.7908 N.ar    1  UNL1       -0.2422
     38 C          10.6295   81.7289   25.2286 C.ar    1  UNL1        0.1002
     39 C          10.3012   80.4183   25.5849 C.ar    1  UNL1        0.0353
     40 C          11.0816   76.0023   28.6566 C.3     1  UNL1        0.0569
     41 C           9.6136   75.9835   28.9703 C.ar    1  UNL1       -0.0017
     42 C           8.8850   74.9129   29.4806 C.ar    1  UNL1        0.0681
     43 N           7.6011   75.2780   29.7002 N.ar    1  UNL1       -0.3523
     44 C           7.5157   76.5709   29.3419 C.ar    1  UNL1        0.0563
     45 C           6.3912   77.3929   29.4038 C.ar    1  UNL1        0.0170
     46 C           6.5310   78.7305   28.9901 C.ar    1  UNL1        0.0015
     47 C           7.7775   79.2116   28.5315 C.ar    1  UNL1        0.0001
     48 C           8.8958   78.3594   28.4812 C.ar    1  UNL1        0.0012
     49 C           8.7251   77.0380   28.8946 C.ar    1  UNL1        0.0131
     50 H           6.8374   74.6772   30.0827 H       1  UNL1        0.1660
@<TRIPOS>BOND
     1     1     2    2
     2     2     3   am
     3     3    29    1
     4    29    40    1
     5    40    41    1
     6    41    42   ar
     7    42    43   ar
     8    43    44   ar
     9    44    45   ar
    10    45    46   ar
    11    46    47   ar
    12    47    48   ar
    13    48    49   ar
    14    29    30    1
    15    30    31    2
    16    30    32   am
    17    32    34    1
    18    34    35   ar
    19    35    36   ar
    20    36    37   ar
    21    37    38   ar
    22    38    39   ar
    23     2     5    1
    24     5     6   ar
    25     6     7   ar
    26     7     8   ar
    27     8    12    1
    28    12    13    1
    29    13    14    1
    30    14    15    1
    31    15    19    1
    32    19    20   ar
    33    20    21   ar
    34    21    22   ar
    35    22    25    1
    36    25    26    1
    37    25    27    1
    38    25    28    1
    39    22    23   ar
    40    23    24   ar
    41    15    16    1
    42    16    17    1
    43    16    18    1
    44     8     9   ar
    45     9    10   ar
    46    10    11    1
    47    49    41   ar
    48    39    34   ar
    49    10     5   ar
    50    49    44   ar
    51    18    12    1
    52    24    19   ar
    53     3     4    1
    54    43    50    1
    55    32    33    1
