@<TRIPOS>MOLECULE
*****
 52 57 0 0 0
SMALL
GASTEIGER

@<TRIPOS>ATOM
      1 N           7.7949   75.3544   25.5007 N.am    1  UNL1       -0.2945
      2 C           8.9606   75.7196   26.2629 C.2     1  UNL1        0.2483
      3 O           9.3800   74.9532   27.1727 O.2     1  UNL1       -0.2701
      4 H           7.6931   75.7491   24.5390 H       1  UNL1        0.1501
      5 C           9.6990   76.9771   25.9843 C.ar    1  UNL1        0.0808
      6 C          11.1036   76.9550   25.9322 C.ar    1  UNL1        0.0080
      7 C          11.8288   78.1262   25.7032 C.ar    1  UNL1        0.0148
      8 C          11.1686   79.3527   25.5253 C.ar    1  UNL1        0.0502
      9 C           9.7651   79.3803   25.5901 C.ar    1  UNL1        0.0443
     10 C           9.0348   78.2101   25.8187 C.ar    1  UNL1        0.1457
     11 F           7.6862   78.3062   25.9293 F       1  UNL1       -0.2040
     12 N          11.9204   80.5660   25.3005 N.pl3   1  UNL1       -0.3040
     13 C          13.3323   80.4810   24.8951 C.3     1  UNL1        0.1123
     14 C          14.0719   81.7992   25.1425 C.3     1  UNL1        0.1136
     15 N          13.3269   82.9256   24.5619 N.pl3   1  UNL1       -0.2897
     16 C          11.8566   82.9476   24.6454 C.3     1  UNL1        0.1136
     17 C          11.3220   81.8745   25.6001 C.3     1  UNL1        0.1123
     18 C          14.0472   84.0647   24.0385 C.ar    1  UNL1        0.1318
     19 C          14.0868   85.2879   24.7305 C.ar    1  UNL1        0.0343
     20 C          14.7937   86.3642   24.1920 C.ar    1  UNL1        0.0083
     21 C          15.4447   86.2360   22.9564 C.ar    1  UNL1        0.0906
     22 C          15.4010   84.9934   22.3067 C.ar    1  UNL1        0.1041
     23 N          14.7085   83.9588   22.8515 N.ar    1  UNL1       -0.2292
     24 C          16.2527   87.3751   22.3889 C.3     1  UNL1        0.4200
     25 F          15.6149   88.5836   22.6097 F       1  UNL1       -0.1658
     26 F          17.5021   87.4303   22.9821 F       1  UNL1       -0.1658
     27 F          16.4078   87.1895   21.0280 F       1  UNL1       -0.1658
     28 C           6.7573   74.4095   25.9471 C.3     1  UNL1        0.1535
     29 N           5.8755   76.3030   27.4276 N.am    1  UNL1       -0.2827
     30 C           6.0291   74.8961   27.1830 C.2     1  UNL1        0.2443
     31 O           5.4413   74.0672   27.9310 O.2     1  UNL1       -0.2730
     32 H           6.0204   76.9576   26.6278 H       1  UNL1        0.1549
     33 C           6.4519   77.2925   29.6298 C.ar    1  UNL1        0.0399
     34 C           6.0254   77.7512   30.8871 C.ar    1  UNL1        0.0982
     35 N           4.7036   77.7776   31.1989 N.ar    1  UNL1       -0.2425
     36 C           3.7554   77.3583   30.3234 C.ar    1  UNL1        0.1001
     37 C           4.1251   76.8791   29.0674 C.ar    1  UNL1        0.0351
     38 C           5.4820   76.8439   28.7033 C.ar    1  UNL1        0.0517
     39 C           7.9239   77.2619   29.3121 C.3     1  UNL1        0.1715
     40 C           9.7689   78.6299   29.4770 C.3     1  UNL1        0.1746
     41 O           8.3914   78.5872   29.1807 O.3     1  UNL1       -0.3462
     42 C           5.8284   73.9902   24.7793 C.3     1  UNL1        0.0569
     43 C           5.4313   75.1120   23.8578 C.ar    1  UNL1       -0.0017
     44 C           5.9785   75.3984   22.6094 C.ar    1  UNL1        0.0681
     45 N           5.3509   76.4562   22.0480 N.ar    1  UNL1       -0.3523
     46 C           4.4173   76.8472   22.9319 C.ar    1  UNL1        0.0563
     47 C           3.5047   77.8915   22.7891 C.ar    1  UNL1        0.0170
     48 C           2.5977   78.1208   23.8396 C.ar    1  UNL1        0.0015
     49 C           2.6271   77.3149   24.9987 C.ar    1  UNL1        0.0001
     50 C           3.5627   76.2718   25.1173 C.ar    1  UNL1        0.0012
     51 C           4.4421   76.0594   24.0545 C.ar    1  UNL1        0.0131
     52 H           5.5524   76.8786   21.1145 H       1  UNL1        0.1660
@<TRIPOS>BOND
     1    40    41    1
     2    41    39    1
     3    39    33    1
     4    33    34   ar
     5    34    35   ar
     6    35    36   ar
     7    36    37   ar
     8    37    38   ar
     9    38    29    1
    10    29    30   am
    11    30    31    2
    12    30    28    1
    13    28    42    1
    14    42    43    1
    15    43    44   ar
    16    44    45   ar
    17    45    46   ar
    18    46    47   ar
    19    47    48   ar
    20    48    49   ar
    21    49    50   ar
    22    50    51   ar
    23    28     1    1
    24     1     2   am
    25     2     3    2
    26     2     5    1
    27     5     6   ar
    28     6     7   ar
    29     7     8   ar
    30     8    12    1
    31    12    13    1
    32    13    14    1
    33    14    15    1
    34    15    18    1
    35    18    19   ar
    36    19    20   ar
    37    20    21   ar
    38    21    24    1
    39    24    25    1
    40    24    26    1
    41    24    27    1
    42    21    22   ar
    43    22    23   ar
    44    15    16    1
    45    16    17    1
    46     8     9   ar
    47     9    10   ar
    48    10    11    1
    49    38    33   ar
    50    51    43   ar
    51    10     5   ar
    52    51    46   ar
    53    17    12    1
    54    23    18   ar
    55    29    32    1
    56    45    52    1
    57     1     4    1
@<TRIPOS>MOLECULE
*****
 52 57 0 0 0
SMALL
GASTEIGER

@<TRIPOS>ATOM
      1 N           8.2246   74.8818   24.5782 N.am    1  UNL1       -0.2945
      2 C           8.8788   75.5264   25.6870 C.2     1  UNL1        0.2483
      3 O           8.8324   75.0018   26.8332 O.2     1  UNL1       -0.2701
      4 H           8.5834   75.0745   23.6163 H       1  UNL1        0.1501
      5 C           9.6319   76.7929   25.5053 C.ar    1  UNL1        0.0808
      6 C          10.9393   76.8963   26.0112 C.ar    1  UNL1        0.0080
      7 C          11.6629   78.0840   25.8843 C.ar    1  UNL1        0.0148
      8 C          11.0960   79.2024   25.2521 C.ar    1  UNL1        0.0502
      9 C           9.7843   79.1063   24.7571 C.ar    1  UNL1        0.0443
     10 C           9.0563   77.9191   24.8816 C.ar    1  UNL1        0.1457
     11 F           7.7746   77.9023   24.4375 F       1  UNL1       -0.2040
     12 N          11.8410   80.4347   25.1319 N.pl3   1  UNL1       -0.3040
     13 C          13.2853   80.3861   24.8551 C.3     1  UNL1        0.1123
     14 C          13.9732   81.7086   25.2069 C.3     1  UNL1        0.1136
     15 N          13.2620   82.8393   24.5933 N.pl3   1  UNL1       -0.2897
     16 C          11.7900   82.8337   24.5425 C.3     1  UNL1        0.1136
     17 C          11.1922   81.7231   25.4131 C.3     1  UNL1        0.1123
     18 C          14.0042   84.0059   24.1709 C.ar    1  UNL1        0.1318
     19 C          14.0515   85.1694   24.9586 C.ar    1  UNL1        0.0343
     20 C          14.7797   86.2748   24.5160 C.ar    1  UNL1        0.0083
     21 C          15.4446   86.2360   23.2819 C.ar    1  UNL1        0.0906
     22 C          15.3925   85.0498   22.5347 C.ar    1  UNL1        0.1041
     23 N          14.6792   83.9853   22.9870 N.ar    1  UNL1       -0.2292
     24 C          16.2752   87.4049   22.8166 C.3     1  UNL1        0.4200
     25 F          15.7138   88.5994   23.2337 F       1  UNL1       -0.1658
     26 F          17.5583   87.3270   23.3299 F       1  UNL1       -0.1658
     27 F          16.3409   87.3957   21.4360 F       1  UNL1       -0.1658
     28 C           7.1214   73.9134   24.6968 C.3     1  UNL1        0.1535
     29 N           6.5050   73.6690   27.1696 N.am    1  UNL1       -0.2827
     30 C           6.2155   74.2144   25.8729 C.2     1  UNL1        0.2443
     31 O           5.2801   75.0515   25.7451 O.2     1  UNL1       -0.2730
     32 H           7.4682   73.3076   27.3448 H       1  UNL1        0.1549
     33 C           5.5940   74.6186   29.2742 C.ar    1  UNL1        0.0399
     34 C           4.6841   74.5191   30.3398 C.ar    1  UNL1        0.0982
     35 N           3.7688   73.5160   30.3729 N.ar    1  UNL1       -0.2425
     36 C           3.7039   72.5767   29.3957 C.ar    1  UNL1        0.1001
     37 C           4.5934   72.6198   28.3229 C.ar    1  UNL1        0.0351
     38 C           5.5498   73.6468   28.2476 C.ar    1  UNL1        0.0517
     39 C           6.6071   75.7330   29.2663 C.3     1  UNL1        0.1715
     40 C           6.9792   77.7987   28.3190 C.3     1  UNL1        0.1746
     41 O           6.4049   76.5273   28.1171 O.3     1  UNL1       -0.3462
     42 C           6.3803   73.7263   23.3484 C.3     1  UNL1        0.0569
     43 C           6.0013   75.0077   22.6560 C.ar    1  UNL1       -0.0017
     44 C           4.7207   75.5414   22.5331 C.ar    1  UNL1        0.0681
     45 N           4.7608   76.7249   21.8805 N.ar    1  UNL1       -0.3523
     46 C           6.0530   76.9416   21.5820 C.ar    1  UNL1        0.0563
     47 C           6.5935   78.0460   20.9245 C.ar    1  UNL1        0.0170
     48 C           7.9859   78.0772   20.7267 C.ar    1  UNL1        0.0015
     49 C           8.7967   77.0133   21.1792 C.ar    1  UNL1        0.0001
     50 C           8.2228   75.9095   21.8345 C.ar    1  UNL1        0.0012
     51 C           6.8406   75.9110   22.0280 C.ar    1  UNL1        0.0131
     52 H           3.9494   77.3434   21.6582 H       1  UNL1        0.1660
@<TRIPOS>BOND
     1    40    41    1
     2    41    39    1
     3    39    33    1
     4    33    34   ar
     5    34    35   ar
     6    35    36   ar
     7    36    37   ar
     8    37    38   ar
     9    38    29    1
    10    29    30   am
    11    30    31    2
    12    30    28    1
    13    28    42    1
    14    42    43    1
    15    43    44   ar
    16    44    45   ar
    17    45    46   ar
    18    46    47   ar
    19    47    48   ar
    20    48    49   ar
    21    49    50   ar
    22    50    51   ar
    23    28     1    1
    24     1     2   am
    25     2     3    2
    26     2     5    1
    27     5     6   ar
    28     6     7   ar
    29     7     8   ar
    30     8    12    1
    31    12    13    1
    32    13    14    1
    33    14    15    1
    34    15    18    1
    35    18    19   ar
    36    19    20   ar
    37    20    21   ar
    38    21    24    1
    39    24    25    1
    40    24    26    1
    41    24    27    1
    42    21    22   ar
    43    22    23   ar
    44    15    16    1
    45    16    17    1
    46     8     9   ar
    47     9    10   ar
    48    10    11    1
    49    38    33   ar
    50    51    43   ar
    51    10     5   ar
    52    51    46   ar
    53    17    12    1
    54    23    18   ar
    55    29    32    1
    56    45    52    1
    57     1     4    1
@<TRIPOS>MOLECULE
*****
 52 57 0 0 0
SMALL
GASTEIGER

@<TRIPOS>ATOM
      1 N           8.1226   74.8511   24.5157 N.am    1  UNL1       -0.2945
      2 C           8.8347   75.4483   25.6154 C.2     1  UNL1        0.2483
      3 O           8.8304   74.8856   26.7443 O.2     1  UNL1       -0.2701
      4 H           8.4419   75.0715   23.5459 H       1  UNL1        0.1501
      5 C           9.5987   76.7095   25.4430 C.ar    1  UNL1        0.0808
      6 C          10.7745   76.9106   26.1867 C.ar    1  UNL1        0.0080
      7 C          11.4991   78.0988   26.0707 C.ar    1  UNL1        0.0148
      8 C          11.0640   79.1205   25.2112 C.ar    1  UNL1        0.0502
      9 C           9.8818   78.9277   24.4764 C.ar    1  UNL1        0.0443
     10 C           9.1534   77.7396   24.5890 C.ar    1  UNL1        0.1457
     11 F           7.9895   77.6324   23.9005 F       1  UNL1       -0.2040
     12 N          11.8079   80.3543   25.1009 N.pl3   1  UNL1       -0.3040
     13 C          13.2491   80.3099   24.8079 C.3     1  UNL1        0.1123
     14 C          13.9409   81.6272   25.1715 C.3     1  UNL1        0.1136
     15 N          13.2232   82.7667   24.5821 N.pl3   1  UNL1       -0.2897
     16 C          11.7508   82.7617   24.5472 C.3     1  UNL1        0.1136
     17 C          11.1623   81.6385   25.4079 C.3     1  UNL1        0.1123
     18 C          13.9610   83.9393   24.1688 C.ar    1  UNL1        0.1318
     19 C          14.0200   85.0899   24.9746 C.ar    1  UNL1        0.0343
     20 C          14.7434   86.2017   24.5402 C.ar    1  UNL1        0.0083
     21 C          15.3918   86.1823   23.2969 C.ar    1  UNL1        0.0906
     22 C          15.3285   85.0084   22.5313 C.ar    1  UNL1        0.1041
     23 N          14.6202   83.9373   22.9759 N.ar    1  UNL1       -0.2292
     24 C          16.2173   87.3579   22.8395 C.3     1  UNL1        0.4200
     25 F          15.4980   88.5347   22.9567 F       1  UNL1       -0.1658
     26 F          17.3657   87.4745   23.6034 F       1  UNL1       -0.1658
     27 F          16.5729   87.1771   21.5161 F       1  UNL1       -0.1658
     28 C           7.0107   73.8949   24.6506 C.3     1  UNL1        0.1535
     29 N           6.4589   73.6450   27.1381 N.am    1  UNL1       -0.2827
     30 C           6.1366   74.1944   25.8509 C.2     1  UNL1        0.2443
     31 O           5.1998   75.0337   25.7499 O.2     1  UNL1       -0.2730
     32 H           7.4256   73.2813   27.2870 H       1  UNL1        0.1549
     33 C           5.6278   74.5687   29.2869 C.ar    1  UNL1        0.0399
     34 C           4.7442   74.4673   30.3742 C.ar    1  UNL1        0.0982
     35 N           3.8053   73.4864   30.4098 N.ar    1  UNL1       -0.2425
     36 C           3.6911   72.5713   29.4143 C.ar    1  UNL1        0.1001
     37 C           4.5528   72.6170   28.3192 C.ar    1  UNL1        0.0351
     38 C           5.5322   73.6218   28.2407 C.ar    1  UNL1        0.0517
     39 C           6.6680   75.6580   29.2761 C.3     1  UNL1        0.1715
     40 C           7.0498   77.7258   28.3375 C.3     1  UNL1        0.1746
     41 O           6.4885   76.4508   28.1221 O.3     1  UNL1       -0.3462
     42 C           6.2358   73.7307   23.3183 C.3     1  UNL1        0.0569
     43 C           6.3298   74.9091   22.3868 C.ar    1  UNL1       -0.0017
     44 C           7.3398   75.1617   21.4616 C.ar    1  UNL1        0.0681
     45 N           7.0774   76.2938   20.7705 N.ar    1  UNL1       -0.3523
     46 C           5.9156   76.7645   21.2545 C.ar    1  UNL1        0.0563
     47 C           5.2290   77.9051   20.8401 C.ar    1  UNL1        0.0170
     48 C           4.0124   78.2086   21.4779 C.ar    1  UNL1        0.0015
     49 C           3.5185   77.3788   22.5081 C.ar    1  UNL1        0.0001
     50 C           4.2357   76.2376   22.9090 C.ar    1  UNL1        0.0012
     51 C           5.4331   75.9541   22.2504 C.ar    1  UNL1        0.0131
     52 H           7.6612   76.7122   20.0125 H       1  UNL1        0.1660
@<TRIPOS>BOND
     1    40    41    1
     2    41    39    1
     3    39    33    1
     4    33    34   ar
     5    34    35   ar
     6    35    36   ar
     7    36    37   ar
     8    37    38   ar
     9    38    29    1
    10    29    30   am
    11    30    31    2
    12    30    28    1
    13    28    42    1
    14    42    43    1
    15    43    44   ar
    16    44    45   ar
    17    45    46   ar
    18    46    47   ar
    19    47    48   ar
    20    48    49   ar
    21    49    50   ar
    22    50    51   ar
    23    28     1    1
    24     1     2   am
    25     2     3    2
    26     2     5    1
    27     5     6   ar
    28     6     7   ar
    29     7     8   ar
    30     8    12    1
    31    12    13    1
    32    13    14    1
    33    14    15    1
    34    15    18    1
    35    18    19   ar
    36    19    20   ar
    37    20    21   ar
    38    21    24    1
    39    24    25    1
    40    24    26    1
    41    24    27    1
    42    21    22   ar
    43    22    23   ar
    44    15    16    1
    45    16    17    1
    46     8     9   ar
    47     9    10   ar
    48    10    11    1
    49    38    33   ar
    50    51    43   ar
    51    10     5   ar
    52    51    46   ar
    53    17    12    1
    54    23    18   ar
    55    29    32    1
    56    45    52    1
    57     1     4    1
@<TRIPOS>MOLECULE
*****
 52 57 0 0 0
SMALL
GASTEIGER

@<TRIPOS>ATOM
      1 N          13.0600   84.2421   24.8782 N.am    1  UNL1       -0.2945
      2 C          13.4854   82.8910   24.6199 C.2     1  UNL1        0.2483
      3 O          14.6350   82.6753   24.1480 O.2     1  UNL1       -0.2701
      4 H          12.3259   84.3957   25.6053 H       1  UNL1        0.1501
      5 C          12.6025   81.7359   24.9204 C.ar    1  UNL1        0.0808
      6 C          11.2378   81.9585   25.1735 C.ar    1  UNL1        0.0080
      7 C          10.3871   80.8971   25.4898 C.ar    1  UNL1        0.0148
      8 C          10.8799   79.5844   25.5666 C.ar    1  UNL1        0.0502
      9 C          12.2463   79.3605   25.3273 C.ar    1  UNL1        0.0443
     10 C          13.1017   80.4199   25.0098 C.ar    1  UNL1        0.1457
     11 F          14.4215   80.1528   24.8463 F       1  UNL1       -0.2040
     12 N          10.0014   78.4885   25.9058 N.pl3   1  UNL1       -0.3040
     13 C          10.2544   77.7055   27.1256 C.3     1  UNL1        0.1123
     14 C           9.5374   76.3525   27.0880 C.3     1  UNL1        0.1136
     15 N           8.1182   76.5300   26.7484 N.pl3   1  UNL1       -0.2897
     16 C           7.7294   77.5312   25.7407 C.3     1  UNL1        0.1136
     17 C           8.9418   78.0732   24.9758 C.3     1  UNL1        0.1123
     18 C           7.1328   75.6289   27.3027 C.ar    1  UNL1        0.1318
     19 C           6.7294   74.4710   26.6150 C.ar    1  UNL1        0.0343
     20 C           5.7755   73.6260   27.1842 C.ar    1  UNL1        0.0083
     21 C           5.2045   73.9385   28.4263 C.ar    1  UNL1        0.0906
     22 C           5.6487   75.0906   29.0922 C.ar    1  UNL1        0.1041
     23 N           6.5805   75.8972   28.5195 N.ar    1  UNL1       -0.2292
     24 C           4.2107   73.0081   29.0740 C.3     1  UNL1        0.4200
     25 F           4.5259   71.6887   28.7987 F       1  UNL1       -0.1658
     26 F           4.2093   73.1754   30.4480 F       1  UNL1       -0.1658
     27 F           2.9467   73.2807   28.5856 F       1  UNL1       -0.1658
     28 C          13.6277   85.4417   24.2399 C.3     1  UNL1        0.1535
     29 N          15.0703   87.4905   24.7651 N.am    1  UNL1       -0.2827
     30 C          14.4551   86.2687   25.2023 C.2     1  UNL1        0.2443
     31 O          14.4955   85.9545   26.4237 O.2     1  UNL1       -0.2730
     32 H          14.7183   87.9285   23.8857 H       1  UNL1        0.1549
     33 C          17.4328   88.2085   25.0180 C.ar    1  UNL1        0.0399
     34 C          18.4237   88.8168   25.8063 C.ar    1  UNL1        0.0982
     35 N          18.1080   89.3639   27.0088 N.ar    1  UNL1       -0.2425
     36 C          16.8413   89.3364   27.4948 C.ar    1  UNL1        0.1001
     37 C          15.8224   88.7316   26.7599 C.ar    1  UNL1        0.0351
     38 C          16.1066   88.1618   25.5070 C.ar    1  UNL1        0.0517
     39 C          17.8102   87.5986   23.6936 C.3     1  UNL1        0.1715
     40 C          17.3140   88.6635   21.7130 C.3     1  UNL1        0.1746
     41 O          16.7909   87.8729   22.7563 O.3     1  UNL1       -0.3462
     42 C          14.3470   85.0938   22.9118 C.3     1  UNL1        0.0569
     43 C          13.9197   85.9215   21.7296 C.ar    1  UNL1       -0.0017
     44 C          13.2562   87.1456   21.7654 C.ar    1  UNL1        0.0681
     45 N          13.0655   87.6183   20.5131 N.ar    1  UNL1       -0.3523
     46 C          13.5945   86.7019   19.6847 C.ar    1  UNL1        0.0563
     47 C          13.6546   86.7572   18.2929 C.ar    1  UNL1        0.0170
     48 C          14.2707   85.6876   17.6180 C.ar    1  UNL1        0.0015
     49 C          14.8009   84.5964   18.3406 C.ar    1  UNL1        0.0001
     50 C          14.7209   84.5654   19.7441 C.ar    1  UNL1        0.0012
     51 C          14.1154   85.6457   20.3878 C.ar    1  UNL1        0.0131
     52 H          12.6028   88.5162   20.2481 H       1  UNL1        0.1660
@<TRIPOS>BOND
     1    40    41    1
     2    41    39    1
     3    39    33    1
     4    33    34   ar
     5    34    35   ar
     6    35    36   ar
     7    36    37   ar
     8    37    38   ar
     9    38    29    1
    10    29    30   am
    11    30    31    2
    12    30    28    1
    13    28    42    1
    14    42    43    1
    15    43    44   ar
    16    44    45   ar
    17    45    46   ar
    18    46    47   ar
    19    47    48   ar
    20    48    49   ar
    21    49    50   ar
    22    50    51   ar
    23    28     1    1
    24     1     2   am
    25     2     3    2
    26     2     5    1
    27     5     6   ar
    28     6     7   ar
    29     7     8   ar
    30     8    12    1
    31    12    13    1
    32    13    14    1
    33    14    15    1
    34    15    18    1
    35    18    19   ar
    36    19    20   ar
    37    20    21   ar
    38    21    24    1
    39    24    25    1
    40    24    26    1
    41    24    27    1
    42    21    22   ar
    43    22    23   ar
    44    15    16    1
    45    16    17    1
    46     8     9   ar
    47     9    10   ar
    48    10    11    1
    49    38    33   ar
    50    51    43   ar
    51    10     5   ar
    52    51    46   ar
    53    17    12    1
    54    23    18   ar
    55    29    32    1
    56    45    52    1
    57     1     4    1
@<TRIPOS>MOLECULE
*****
 52 57 0 0 0
SMALL
GASTEIGER

@<TRIPOS>ATOM
      1 N           7.7831   75.3088   25.5859 N.am    1  UNL1       -0.2945
      2 C           9.0003   75.6412   26.2794 C.2     1  UNL1        0.2483
      3 O           9.4763   74.8399   27.1293 O.2     1  UNL1       -0.2701
      4 H           7.6182   75.7395   24.6486 H       1  UNL1        0.1501
      5 C           9.7255   76.9057   25.9976 C.ar    1  UNL1        0.0808
      6 C          11.1286   76.8918   25.9127 C.ar    1  UNL1        0.0080
      7 C          11.8423   78.0694   25.6799 C.ar    1  UNL1        0.0148
      8 C          11.1717   79.2941   25.5308 C.ar    1  UNL1        0.0502
      9 C           9.7700   79.3133   25.6284 C.ar    1  UNL1        0.0443
     10 C           9.0513   78.1368   25.8609 C.ar    1  UNL1        0.1457
     11 F           7.7051   78.2243   26.0037 F       1  UNL1       -0.2040
     12 N          11.9118   80.5139   25.3020 N.pl3   1  UNL1       -0.3040
     13 C          13.3307   80.4416   24.9195 C.3     1  UNL1        0.1123
     14 C          14.0500   81.7721   25.1613 C.3     1  UNL1        0.1136
     15 N          13.3001   82.8816   24.5549 N.pl3   1  UNL1       -0.2897
     16 C          11.8286   82.8860   24.6154 C.3     1  UNL1        0.1136
     17 C          11.2926   81.8184   25.5755 C.3     1  UNL1        0.1123
     18 C          14.0143   84.0229   24.0280 C.ar    1  UNL1        0.1318
     19 C          14.0427   85.2501   24.7135 C.ar    1  UNL1        0.0343
     20 C          14.7439   86.3284   24.1719 C.ar    1  UNL1        0.0083
     21 C          15.4003   86.1983   22.9394 C.ar    1  UNL1        0.0906
     22 C          15.3678   84.9520   22.2962 C.ar    1  UNL1        0.1041
     23 N          14.6806   83.9154   22.8440 N.ar    1  UNL1       -0.2292
     24 C          16.2023   87.3401   22.3687 C.3     1  UNL1        0.4200
     25 F          17.4367   87.4276   22.9889 F       1  UNL1       -0.1658
     26 F          16.4109   87.1600   21.0123 F       1  UNL1       -0.1658
     27 F          15.5143   88.5227   22.5656 F       1  UNL1       -0.1658
     28 C           6.7728   74.3515   26.0670 C.3     1  UNL1        0.1535
     29 N           5.8821   76.2536   27.5310 N.am    1  UNL1       -0.2827
     30 C           6.0559   74.8457   27.3065 C.2     1  UNL1        0.2443
     31 O           5.4944   74.0193   28.0770 O.2     1  UNL1       -0.2730
     32 H           6.0030   76.8974   26.7186 H       1  UNL1        0.1549
     33 C           6.4785   77.2311   29.7332 C.ar    1  UNL1        0.0399
     34 C           6.0607   77.7047   30.9880 C.ar    1  UNL1        0.0982
     35 N           4.7391   77.7697   31.2947 N.ar    1  UNL1       -0.2425
     36 C           3.7824   77.3758   30.4166 C.ar    1  UNL1        0.1001
     37 C           4.1429   76.8835   29.1629 C.ar    1  UNL1        0.0351
     38 C           5.4995   76.8084   28.8040 C.ar    1  UNL1        0.0517
     39 C           7.9501   77.1575   29.4212 C.3     1  UNL1        0.1715
     40 C           9.7805   78.5540   29.4652 C.3     1  UNL1        0.1746
     41 O           8.6259   78.1489   30.1649 O.3     1  UNL1       -0.3462
     42 C           5.8328   73.8925   24.9232 C.3     1  UNL1        0.0569
     43 C           6.5034   73.7281   23.5859 C.ar    1  UNL1       -0.0017
     44 C           7.8116   73.3092   23.3554 C.ar    1  UNL1        0.0681
     45 N           8.0611   73.2422   22.0282 N.ar    1  UNL1       -0.3523
     46 C           6.9265   73.6224   21.4165 C.ar    1  UNL1        0.0563
     47 C           6.6913   73.6955   20.0442 C.ar    1  UNL1        0.0170
     48 C           5.4162   74.1077   19.6164 C.ar    1  UNL1        0.0015
     49 C           4.4184   74.4399   20.5587 C.ar    1  UNL1        0.0001
     50 C           4.6862   74.3619   21.9370 C.ar    1  UNL1        0.0012
     51 C           5.9558   73.9382   22.3326 C.ar    1  UNL1        0.0131
     52 H           8.9554   72.9507   21.5747 H       1  UNL1        0.1660
@<TRIPOS>BOND
     1    40    41    1
     2    41    39    1
     3    39    33    1
     4    33    34   ar
     5    34    35   ar
     6    35    36   ar
     7    36    37   ar
     8    37    38   ar
     9    38    29    1
    10    29    30   am
    11    30    31    2
    12    30    28    1
    13    28    42    1
    14    42    43    1
    15    43    44   ar
    16    44    45   ar
    17    45    46   ar
    18    46    47   ar
    19    47    48   ar
    20    48    49   ar
    21    49    50   ar
    22    50    51   ar
    23    28     1    1
    24     1     2   am
    25     2     3    2
    26     2     5    1
    27     5     6   ar
    28     6     7   ar
    29     7     8   ar
    30     8    12    1
    31    12    13    1
    32    13    14    1
    33    14    15    1
    34    15    18    1
    35    18    19   ar
    36    19    20   ar
    37    20    21   ar
    38    21    24    1
    39    24    25    1
    40    24    26    1
    41    24    27    1
    42    21    22   ar
    43    22    23   ar
    44    15    16    1
    45    16    17    1
    46     8     9   ar
    47     9    10   ar
    48    10    11    1
    49    38    33   ar
    50    51    43   ar
    51    10     5   ar
    52    51    46   ar
    53    17    12    1
    54    23    18   ar
    55    29    32    1
    56    45    52    1
    57     1     4    1
@<TRIPOS>MOLECULE
*****
 52 57 0 0 0
SMALL
GASTEIGER

@<TRIPOS>ATOM
      1 N           9.9264   75.2426   26.6275 N.am    1  UNL1       -0.2945
      2 C          10.0122   75.1350   25.1942 C.2     1  UNL1        0.2483
      3 O          11.1421   75.0764   24.6367 O.2     1  UNL1       -0.2701
      4 H           9.0593   74.8955   27.0953 H       1  UNL1        0.1501
      5 C           8.7905   75.0679   24.3533 C.ar    1  UNL1        0.0808
      6 C           8.8747   75.3911   22.9878 C.ar    1  UNL1        0.0080
      7 C           7.7382   75.3680   22.1765 C.ar    1  UNL1        0.0148
      8 C           6.4854   75.0260   22.7106 C.ar    1  UNL1        0.0502
      9 C           6.3957   74.7154   24.0782 C.ar    1  UNL1        0.0443
     10 C           7.5309   74.7367   24.8942 C.ar    1  UNL1        0.1457
     11 F           7.3749   74.4851   26.2180 F       1  UNL1       -0.2040
     12 N           5.3080   75.0142   21.8730 N.pl3   1  UNL1       -0.3040
     13 C           5.0565   73.8646   20.9898 C.3     1  UNL1        0.1123
     14 C           4.0583   74.2112   19.8810 C.3     1  UNL1        0.1136
     15 N           2.8530   74.8330   20.4477 N.pl3   1  UNL1       -0.2897
     16 C           2.9797   75.7826   21.5664 C.3     1  UNL1        0.1136
     17 C           4.4365   76.1956   21.8035 C.3     1  UNL1        0.1123
     18 C           1.5714   74.6145   19.8151 C.ar    1  UNL1        0.1318
     19 C           0.8497   75.6731   19.2364 C.ar    1  UNL1        0.0343
     20 C          -0.3841   75.4209   18.6346 C.ar    1  UNL1        0.0083
     21 C          -0.9143   74.1226   18.6245 C.ar    1  UNL1        0.0906
     22 C          -0.1546   73.0889   19.1924 C.ar    1  UNL1        0.1041
     23 N           1.0455   73.3579   19.7705 N.ar    1  UNL1       -0.2292
     24 C          -2.2218   73.8292   17.9340 C.3     1  UNL1        0.4200
     25 F          -2.6470   72.5433   18.2197 F       1  UNL1       -0.1658
     26 F          -3.2028   74.7122   18.3508 F       1  UNL1       -0.1658
     27 F          -2.0534   73.9548   16.5678 F       1  UNL1       -0.1658
     28 C          10.9989   75.7479   27.5011 C.3     1  UNL1        0.1535
     29 N          11.8381   77.4737   25.8064 N.am    1  UNL1       -0.2827
     30 C          11.4159   77.1593   27.1427 C.2     1  UNL1        0.2443
     31 O          11.2669   78.0891   27.9826 O.2     1  UNL1       -0.2730
     32 H          11.5925   76.8036   25.0450 H       1  UNL1        0.1549
     33 C          11.8191   79.8525   25.0979 C.ar    1  UNL1        0.0399
     34 C          12.5395   80.9936   24.7079 C.ar    1  UNL1        0.0982
     35 N          13.8977   80.9810   24.6985 N.ar    1  UNL1       -0.2425
     36 C          14.6036   79.8772   25.0514 C.ar    1  UNL1        0.1001
     37 C          13.9381   78.7127   25.4322 C.ar    1  UNL1        0.0351
     38 C          12.5333   78.6878   25.4635 C.ar    1  UNL1        0.0517
     39 C          10.3133   79.8875   25.0888 C.3     1  UNL1        0.1715
     40 C           9.5536   79.1264   23.0526 C.3     1  UNL1        0.1746
     41 O           9.8335   78.7618   24.3851 O.3     1  UNL1       -0.3462
     42 C          10.6583   75.5410   28.9989 C.3     1  UNL1        0.0569
     43 C           9.2100   75.2430   29.2792 C.ar    1  UNL1       -0.0017
     44 C           8.6522   73.9947   29.5446 C.ar    1  UNL1        0.0681
     45 N           7.3268   74.1092   29.7862 N.ar    1  UNL1       -0.3523
     46 C           7.0386   75.4165   29.6685 C.ar    1  UNL1        0.0563
     47 C           5.7978   76.0266   29.8473 C.ar    1  UNL1        0.0170
     48 C           5.7220   77.4223   29.6885 C.ar    1  UNL1        0.0015
     49 C           6.8732   78.1674   29.3520 C.ar    1  UNL1        0.0001
     50 C           8.1107   77.5240   29.1724 C.ar    1  UNL1        0.0012
     51 C           8.1589   76.1403   29.3484 C.ar    1  UNL1        0.0131
     52 H           6.6653   73.3356   30.0197 H       1  UNL1        0.1660
@<TRIPOS>BOND
     1    40    41    1
     2    41    39    1
     3    39    33    1
     4    33    34   ar
     5    34    35   ar
     6    35    36   ar
     7    36    37   ar
     8    37    38   ar
     9    38    29    1
    10    29    30   am
    11    30    31    2
    12    30    28    1
    13    28    42    1
    14    42    43    1
    15    43    44   ar
    16    44    45   ar
    17    45    46   ar
    18    46    47   ar
    19    47    48   ar
    20    48    49   ar
    21    49    50   ar
    22    50    51   ar
    23    28     1    1
    24     1     2   am
    25     2     3    2
    26     2     5    1
    27     5     6   ar
    28     6     7   ar
    29     7     8   ar
    30     8    12    1
    31    12    13    1
    32    13    14    1
    33    14    15    1
    34    15    18    1
    35    18    19   ar
    36    19    20   ar
    37    20    21   ar
    38    21    24    1
    39    24    25    1
    40    24    26    1
    41    24    27    1
    42    21    22   ar
    43    22    23   ar
    44    15    16    1
    45    16    17    1
    46     8     9   ar
    47     9    10   ar
    48    10    11    1
    49    38    33   ar
    50    51    43   ar
    51    10     5   ar
    52    51    46   ar
    53    17    12    1
    54    23    18   ar
    55    29    32    1
    56    45    52    1
    57     1     4    1
@<TRIPOS>MOLECULE
*****
 52 57 0 0 0
SMALL
GASTEIGER

@<TRIPOS>ATOM
      1 N           7.6804   75.4138   25.2999 N.am    1  UNL1       -0.2945
      2 C           8.6252   75.8511   26.2945 C.2     1  UNL1        0.2483
      3 O           8.7463   75.2049   27.3710 O.2     1  UNL1       -0.2701
      4 H           7.8572   75.6773   24.3048 H       1  UNL1        0.1501
      5 C           9.4829   77.0419   26.0697 C.ar    1  UNL1        0.0808
      6 C           9.0254   78.3077   26.4753 C.ar    1  UNL1        0.0080
      7 C           9.7944   79.4515   26.2501 C.ar    1  UNL1        0.0148
      8 C          11.0401   79.3606   25.6083 C.ar    1  UNL1        0.0502
      9 C          11.4941   78.0983   25.1898 C.ar    1  UNL1        0.0443
     10 C          10.7278   76.9503   25.4134 C.ar    1  UNL1        0.1457
     11 F          11.1891   75.7673   24.9362 F       1  UNL1       -0.2040
     12 N          11.8295   80.5461   25.3650 N.pl3   1  UNL1       -0.3040
     13 C          13.1928   80.4132   24.8275 C.3     1  UNL1        0.1123
     14 C          14.0182   81.6825   25.0594 C.3     1  UNL1        0.1136
     15 N          13.2823   82.8681   24.5973 N.pl3   1  UNL1       -0.2897
     16 C          11.8287   82.9555   24.8173 C.3     1  UNL1        0.1136
     17 C          11.3284   81.8663   25.7724 C.3     1  UNL1        0.1123
     18 C          14.0096   83.9947   24.0568 C.ar    1  UNL1        0.1318
     19 C          14.0713   85.2226   24.7387 C.ar    1  UNL1        0.0343
     20 C          14.7843   86.2864   24.1837 C.ar    1  UNL1        0.0083
     21 C          15.4195   86.1412   22.9419 C.ar    1  UNL1        0.0906
     22 C          15.3540   84.8942   22.3024 C.ar    1  UNL1        0.1041
     23 N          14.6559   83.8720   22.8632 N.ar    1  UNL1       -0.2292
     24 C          16.2340   87.2665   22.3563 C.3     1  UNL1        0.4200
     25 F          16.5073   87.0276   21.0206 F       1  UNL1       -0.1658
     26 F          15.5486   88.4654   22.4504 F       1  UNL1       -0.1658
     27 F          17.4260   87.3735   23.0480 F       1  UNL1       -0.1658
     28 C           6.5088   74.5623   25.5664 C.3     1  UNL1        0.1535
     29 N           4.6437   75.7322   24.2598 N.am    1  UNL1       -0.2827
     30 C           5.2097   75.3400   25.5201 C.2     1  UNL1        0.2443
     31 O           4.5547   75.5294   26.5818 O.2     1  UNL1       -0.2730
     32 H           4.9806   75.2469   23.3996 H       1  UNL1        0.1549
     33 C           3.4832   77.5027   22.9637 C.ar    1  UNL1        0.0399
     34 C           2.4938   78.4986   22.9130 C.ar    1  UNL1        0.0982
     35 N           1.6575   78.6931   23.9655 N.ar    1  UNL1       -0.2425
     36 C           1.7493   77.9496   25.0969 C.ar    1  UNL1        0.1001
     37 C           2.7234   76.9580   25.2059 C.ar    1  UNL1        0.0351
     38 C           3.6024   76.7197   24.1355 C.ar    1  UNL1        0.0517
     39 C           4.4061   77.3142   21.7884 C.3     1  UNL1        0.1715
     40 C           6.6345   77.5269   21.2480 C.3     1  UNL1        0.1746
     41 O           5.7268   77.1629   22.2632 O.3     1  UNL1       -0.3462
     42 C           6.5223   73.2843   24.6894 C.3     1  UNL1        0.0569
     43 C           6.9577   73.5033   23.2655 C.ar    1  UNL1       -0.0017
     44 C           8.2670   73.5682   22.7949 C.ar    1  UNL1        0.0681
     45 N           8.2809   73.7385   21.4537 N.ar    1  UNL1       -0.3523
     46 C           6.9935   73.7901   21.0717 C.ar    1  UNL1        0.0563
     47 C           6.5033   73.9370   19.7748 C.ar    1  UNL1        0.0170
     48 C           5.1080   73.9514   19.5966 C.ar    1  UNL1        0.0015
     49 C           4.2439   73.8268   20.7064 C.ar    1  UNL1        0.0001
     50 C           4.7672   73.6854   22.0040 C.ar    1  UNL1        0.0012
     51 C           6.1550   73.6620   22.1496 C.ar    1  UNL1        0.0131
     52 H           9.1241   73.8116   20.8421 H       1  UNL1        0.1660
@<TRIPOS>BOND
     1    40    41    1
     2    41    39    1
     3    39    33    1
     4    33    34   ar
     5    34    35   ar
     6    35    36   ar
     7    36    37   ar
     8    37    38   ar
     9    38    29    1
    10    29    30   am
    11    30    31    2
    12    30    28    1
    13    28    42    1
    14    42    43    1
    15    43    44   ar
    16    44    45   ar
    17    45    46   ar
    18    46    47   ar
    19    47    48   ar
    20    48    49   ar
    21    49    50   ar
    22    50    51   ar
    23    28     1    1
    24     1     2   am
    25     2     3    2
    26     2     5    1
    27     5     6   ar
    28     6     7   ar
    29     7     8   ar
    30     8    12    1
    31    12    13    1
    32    13    14    1
    33    14    15    1
    34    15    18    1
    35    18    19   ar
    36    19    20   ar
    37    20    21   ar
    38    21    24    1
    39    24    25    1
    40    24    26    1
    41    24    27    1
    42    21    22   ar
    43    22    23   ar
    44    15    16    1
    45    16    17    1
    46     8     9   ar
    47     9    10   ar
    48    10    11    1
    49    38    33   ar
    50    51    43   ar
    51    10     5   ar
    52    51    46   ar
    53    17    12    1
    54    23    18   ar
    55    29    32    1
    56    45    52    1
    57     1     4    1
@<TRIPOS>MOLECULE
*****
 52 57 0 0 0
SMALL
GASTEIGER

@<TRIPOS>ATOM
      1 N           8.8808   75.2567   22.9131 N.am    1  UNL1       -0.2945
      2 C          10.0401   75.4048   23.7541 C.2     1  UNL1        0.2483
      3 O          10.5794   74.3846   24.2633 O.2     1  UNL1       -0.2701
      4 H           8.6920   75.9977   22.2015 H       1  UNL1        0.1501
      5 C          10.6328   76.7400   24.0188 C.ar    1  UNL1        0.0808
      6 C          12.0156   76.8474   24.2481 C.ar    1  UNL1        0.0080
      7 C          12.5992   78.0843   24.5308 C.ar    1  UNL1        0.0148
      8 C          11.8143   79.2467   24.5969 C.ar    1  UNL1        0.0502
      9 C          10.4298   79.1405   24.3813 C.ar    1  UNL1        0.0443
     10 C           9.8411   77.9044   24.0975 C.ar    1  UNL1        0.1457
     11 F           8.4930   77.8525   23.9562 F       1  UNL1       -0.2040
     12 N          12.4173   80.5241   24.9013 N.pl3   1  UNL1       -0.3040
     13 C          11.6152   81.7521   24.7848 C.3     1  UNL1        0.1123
     14 C          12.5001   82.9992   24.6971 C.3     1  UNL1        0.1136
     15 N          13.4907   83.0064   25.7832 N.pl3   1  UNL1       -0.2897
     16 C          14.1344   81.7461   26.1912 C.3     1  UNL1        0.1136
     17 C          13.8540   80.6132   25.1978 C.3     1  UNL1        0.1123
     18 C          13.9247   84.2654   26.3461 C.ar    1  UNL1        0.1318
     19 C          14.1468   84.4134   27.7264 C.ar    1  UNL1        0.0343
     20 C          14.5661   85.6453   28.2309 C.ar    1  UNL1        0.0083
     21 C          14.7453   86.7383   27.3706 C.ar    1  UNL1        0.0906
     22 C          14.5352   86.5457   25.9970 C.ar    1  UNL1        0.1041
     23 N          14.1296   85.3363   25.5284 N.ar    1  UNL1       -0.2292
     24 C          15.2458   88.0594   27.8966 C.3     1  UNL1        0.4200
     25 F          15.1273   88.1128   29.2747 F       1  UNL1       -0.1658
     26 F          16.5783   88.2419   27.5692 F       1  UNL1       -0.1658
     27 F          14.5011   89.0824   27.3404 F       1  UNL1       -0.1658
     28 C           7.9675   74.1016   22.9315 C.3     1  UNL1        0.1535
     29 N           6.1841   75.7001   23.8363 N.am    1  UNL1       -0.2827
     30 C           6.7170   74.3697   23.7432 C.2     1  UNL1        0.2443
     31 O           6.0667   73.4040   24.2296 O.2     1  UNL1       -0.2730
     32 H           6.4979   76.4036   23.1322 H       1  UNL1        0.1549
     33 C           3.8837   76.4192   24.4297 C.ar    1  UNL1        0.0399
     34 C           2.9800   76.8580   25.4116 C.ar    1  UNL1        0.0982
     35 N           3.3649   76.9487   26.7110 N.ar    1  UNL1       -0.2425
     36 C           4.6240   76.6326   27.1060 C.ar    1  UNL1        0.1001
     37 C           5.5652   76.2063   26.1699 C.ar    1  UNL1        0.0351
     38 C           5.2037   76.0908   24.8168 C.ar    1  UNL1        0.0517
     39 C           3.4364   76.3383   22.9937 C.3     1  UNL1        0.1715
     40 C           1.8531   77.6711   21.9841 C.3     1  UNL1        0.1746
     41 O           2.0597   76.6423   22.9253 O.3     1  UNL1       -0.3462
     42 C           7.7010   73.5633   21.5026 C.3     1  UNL1        0.0569
     43 C           6.5335   74.2004   20.7982 C.ar    1  UNL1       -0.0017
     44 C           5.3975   73.5546   20.3162 C.ar    1  UNL1        0.0681
     45 N           4.5391   74.4471   19.7733 N.ar    1  UNL1       -0.3523
     46 C           5.1239   75.6503   19.8997 C.ar    1  UNL1        0.0563
     47 C           4.6106   76.8841   19.5021 C.ar    1  UNL1        0.0170
     48 C           5.3897   78.0300   19.7449 C.ar    1  UNL1        0.0015
     49 C           6.6527   77.9176   20.3663 C.ar    1  UNL1        0.0001
     50 C           7.1473   76.6589   20.7516 C.ar    1  UNL1        0.0012
     51 C           6.3476   75.5409   20.5097 C.ar    1  UNL1        0.0131
     52 H           3.6092   74.2391   19.3460 H       1  UNL1        0.1660
@<TRIPOS>BOND
     1    40    41    1
     2    41    39    1
     3    39    33    1
     4    33    34   ar
     5    34    35   ar
     6    35    36   ar
     7    36    37   ar
     8    37    38   ar
     9    38    29    1
    10    29    30   am
    11    30    31    2
    12    30    28    1
    13    28    42    1
    14    42    43    1
    15    43    44   ar
    16    44    45   ar
    17    45    46   ar
    18    46    47   ar
    19    47    48   ar
    20    48    49   ar
    21    49    50   ar
    22    50    51   ar
    23    28     1    1
    24     1     2   am
    25     2     3    2
    26     2     5    1
    27     5     6   ar
    28     6     7   ar
    29     7     8   ar
    30     8    12    1
    31    12    13    1
    32    13    14    1
    33    14    15    1
    34    15    18    1
    35    18    19   ar
    36    19    20   ar
    37    20    21   ar
    38    21    24    1
    39    24    25    1
    40    24    26    1
    41    24    27    1
    42    21    22   ar
    43    22    23   ar
    44    15    16    1
    45    16    17    1
    46     8     9   ar
    47     9    10   ar
    48    10    11    1
    49    38    33   ar
    50    51    43   ar
    51    10     5   ar
    52    51    46   ar
    53    17    12    1
    54    23    18   ar
    55    29    32    1
    56    45    52    1
    57     1     4    1
@<TRIPOS>MOLECULE
*****
 52 57 0 0 0
SMALL
GASTEIGER

@<TRIPOS>ATOM
      1 N           8.9790   74.8040   23.5689 N.am    1  UNL1       -0.2945
      2 C           9.4645   75.4044   24.7842 C.2     1  UNL1        0.2483
      3 O           9.3530   74.7851   25.8773 O.2     1  UNL1       -0.2701
      4 H           9.4113   75.1030   22.6663 H       1  UNL1        0.1501
      5 C          10.1192   76.7369   24.7757 C.ar    1  UNL1        0.0808
      6 C          11.4710   76.8435   25.1463 C.ar    1  UNL1        0.0080
      7 C          12.1073   78.0861   25.1788 C.ar    1  UNL1        0.0148
      8 C          11.4069   79.2569   24.8462 C.ar    1  UNL1        0.0502
      9 C          10.0519   79.1551   24.4882 C.ar    1  UNL1        0.0443
     10 C           9.4107   77.9131   24.4539 C.ar    1  UNL1        0.1457
     11 F           8.0873   77.8816   24.1579 F       1  UNL1       -0.2040
     12 N          12.0630   80.5436   24.8918 N.pl3   1  UNL1       -0.3040
     13 C          13.5308   80.6134   24.8180 C.3     1  UNL1        0.1123
     14 C          14.0592   81.9581   25.3267 C.3     1  UNL1        0.1136
     15 N          13.3520   83.0700   24.6753 N.pl3   1  UNL1       -0.2897
     16 C          11.9057   82.9637   24.4186 C.3     1  UNL1        0.1136
     17 C          11.2834   81.7642   25.1417 C.3     1  UNL1        0.1123
     18 C          14.0515   84.3090   24.4184 C.ar    1  UNL1        0.1318
     19 C          14.6456   84.5703   23.1712 C.ar    1  UNL1        0.0343
     20 C          15.3117   85.7789   22.9625 C.ar    1  UNL1        0.0083
     21 C          15.4084   86.7213   23.9965 C.ar    1  UNL1        0.0906
     22 C          14.7840   86.4341   25.2196 C.ar    1  UNL1        0.1041
     23 N          14.1388   85.2516   25.3989 N.ar    1  UNL1       -0.2292
     24 C          16.0816   88.0506   23.7677 C.3     1  UNL1        0.4200
     25 F          15.2528   88.9017   23.0572 F       1  UNL1       -0.1658
     26 F          16.3914   88.6549   24.9738 F       1  UNL1       -0.1658
     27 F          17.2465   87.8534   23.0502 F       1  UNL1       -0.1658
     28 C           7.9576   73.7453   23.5008 C.3     1  UNL1        0.1535
     29 N           6.1330   75.4438   24.0840 N.am    1  UNL1       -0.2827
     30 C           6.6849   74.1259   24.2288 C.2     1  UNL1        0.2443
     31 O           6.0358   73.2456   24.8578 O.2     1  UNL1       -0.2730
     32 H           6.4544   76.0233   23.2778 H       1  UNL1        0.1549
     33 C           3.8771   76.4100   24.4563 C.ar    1  UNL1        0.0399
     34 C           2.9497   76.9849   25.3409 C.ar    1  UNL1        0.0982
     35 N           3.2421   77.1079   26.6616 N.ar    1  UNL1       -0.2425
     36 C           4.4300   76.6947   27.1710 C.ar    1  UNL1        0.1001
     37 C           5.3924   76.1310   26.3344 C.ar    1  UNL1        0.0351
     38 C           5.1249   75.9782   24.9633 C.ar    1  UNL1        0.0517
     39 C           3.5342   76.2954   22.9942 C.3     1  UNL1        0.1715
     40 C           1.9738   77.0780   21.4924 C.3     1  UNL1        0.1746
     41 O           2.1755   76.6336   22.8148 O.3     1  UNL1       -0.3462
     42 C           7.7419   73.2547   22.0464 C.3     1  UNL1        0.0569
     43 C           6.7667   74.0741   21.2445 C.ar    1  UNL1       -0.0017
     44 C           5.5718   73.6322   20.6818 C.ar    1  UNL1        0.0681
     45 N           4.9341   74.6509   20.0623 N.ar    1  UNL1       -0.3523
     46 C           5.7173   75.7313   20.2205 C.ar    1  UNL1        0.0563
     47 C           5.4691   77.0270   19.7692 C.ar    1  UNL1        0.0170
     48 C           6.4236   78.0188   20.0595 C.ar    1  UNL1        0.0015
     49 C           7.5942   77.6959   20.7800 C.ar    1  UNL1        0.0001
     50 C           7.8204   76.3789   21.2179 C.ar    1  UNL1        0.0012
     51 C           6.8508   75.4182   20.9266 C.ar    1  UNL1        0.0131
     52 H           4.0169   74.6035   19.5653 H       1  UNL1        0.1660
@<TRIPOS>BOND
     1    40    41    1
     2    41    39    1
     3    39    33    1
     4    33    34   ar
     5    34    35   ar
     6    35    36   ar
     7    36    37   ar
     8    37    38   ar
     9    38    29    1
    10    29    30   am
    11    30    31    2
    12    30    28    1
    13    28    42    1
    14    42    43    1
    15    43    44   ar
    16    44    45   ar
    17    45    46   ar
    18    46    47   ar
    19    47    48   ar
    20    48    49   ar
    21    49    50   ar
    22    50    51   ar
    23    28     1    1
    24     1     2   am
    25     2     3    2
    26     2     5    1
    27     5     6   ar
    28     6     7   ar
    29     7     8   ar
    30     8    12    1
    31    12    13    1
    32    13    14    1
    33    14    15    1
    34    15    18    1
    35    18    19   ar
    36    19    20   ar
    37    20    21   ar
    38    21    24    1
    39    24    25    1
    40    24    26    1
    41    24    27    1
    42    21    22   ar
    43    22    23   ar
    44    15    16    1
    45    16    17    1
    46     8     9   ar
    47     9    10   ar
    48    10    11    1
    49    38    33   ar
    50    51    43   ar
    51    10     5   ar
    52    51    46   ar
    53    17    12    1
    54    23    18   ar
    55    29    32    1
    56    45    52    1
    57     1     4    1
