@<TRIPOS>MOLECULE
*****
 33 36 0 0 0
SMALL
GASTEIGER

@<TRIPOS>ATOM
      1 N          46.1199   13.5367  -24.4094 N.ar    1  UNL1       -0.3243
      2 C          46.1590   13.0543  -25.6746 C.ar    1  UNL1        0.0600
      3 C          45.8388   11.7611  -26.1017 C.ar    1  UNL1        0.0177
      4 C          45.9030   11.4796  -27.4757 C.ar    1  UNL1        0.0082
      5 C          46.2677   12.4837  -28.3958 C.ar    1  UNL1        0.0347
      6 BR         46.3083   12.0894  -30.2634 Br      1  UNL1       -0.0490
      7 C          46.5823   13.7791  -27.9495 C.ar    1  UNL1        0.0082
      8 C          46.5351   14.0345  -26.5750 C.ar    1  UNL1        0.0179
      9 C          46.7485   15.1881  -25.8312 C.ar    1  UNL1        0.0239
     10 C          47.1197   16.4989  -26.1864 C.ar    1  UNL1        0.0831
     11 C          47.1767   17.4664  -25.1534 C.ar    1  UNL1        0.0409
     12 BR         47.6978   19.2805  -25.4993 Br      1  UNL1       -0.0488
     13 C          46.8853   17.1069  -23.8220 C.ar    1  UNL1        0.0084
     14 C          46.5358   15.7908  -23.4920 C.ar    1  UNL1        0.0177
     15 C          46.4714   14.8433  -24.5169 C.ar    1  UNL1        0.0602
     16 C          47.4802   16.8596  -27.5666 C.2     1  UNL1        0.3386
     17 O          48.6498   17.2458  -27.8278 O.2     1  UNL1       -0.2451
     18 O          46.5331   16.8026  -28.5846 O.3     1  UNL1       -0.4771
     19 H          45.5894   16.4814  -28.4038 H       1  UNL1        0.2954
     20 C          45.6977   12.8112  -23.2038 C.3     1  UNL1        0.1429
     21 C          46.8772   12.0644  -22.5630 C.3     1  UNL1        0.2027
     22 F          47.5063   11.3043  -23.5346 F       1  UNL1       -0.2334
     23 C          47.8978   13.0274  -21.9430 C.3     1  UNL1        0.1259
     24 N          49.2120   12.8448  -22.5562 N.pl3   1  UNL1       -0.3157
     25 H          49.8177   12.0687  -22.2045 H       1  UNL1        0.1483
     26 C          50.3233   15.7383  -24.5635 C.ar    1  UNL1        0.2261
     27 C          50.4774   15.1755  -25.8332 C.ar    1  UNL1        0.0578
     28 C          50.2155   13.8167  -26.0163 C.ar    1  UNL1        0.0077
     29 C          49.8012   13.0356  -24.9357 C.ar    1  UNL1        0.0343
     30 C          49.6545   13.6281  -23.6746 C.ar    1  UNL1        0.1317
     31 N          49.9187   14.9563  -23.5237 N.ar    1  UNL1       -0.1969
     32 C          51.2060   17.9024  -25.3708 C.3     1  UNL1        0.2542
     33 O          50.5846   17.0983  -24.3758 O.3     1  UNL1       -0.4561
@<TRIPOS>BOND
     1    32    33    1
     2    33    26    1
     3    26    27   ar
     4    27    28   ar
     5    28    29   ar
     6    29    30   ar
     7    30    24    1
     8    24    23    1
     9    23    21    1
    10    21    22    1
    11    21    20    1
    12    20     1    1
    13     1     2   ar
    14     2     3   ar
    15     3     4   ar
    16     4     5   ar
    17     5     6    1
    18     5     7   ar
    19     7     8   ar
    20     8     9   ar
    21     9    10   ar
    22    10    16    1
    23    16    17    2
    24    16    18    1
    25    10    11   ar
    26    11    12    1
    27    11    13   ar
    28    13    14   ar
    29    14    15   ar
    30    30    31   ar
    31    31    26   ar
    32    15     1   ar
    33     8     2   ar
    34    15     9   ar
    35    24    25    1
    36    18    19    1
@<TRIPOS>MOLECULE
*****
 33 36 0 0 0
SMALL
GASTEIGER

@<TRIPOS>ATOM
      1 N          47.3436   12.3919  -25.9534 N.ar    1  UNL1       -0.3243
      2 C          46.9923   12.2570  -27.2547 C.ar    1  UNL1        0.0600
      3 C          47.0111   11.0885  -28.0238 C.ar    1  UNL1        0.0177
      4 C          46.5594   11.1587  -29.3512 C.ar    1  UNL1        0.0082
      5 C          46.0870   12.3760  -29.8831 C.ar    1  UNL1        0.0347
      6 BR         45.4388   12.4388  -31.6779 Br      1  UNL1       -0.0490
      7 C          46.0712   13.5398  -29.0948 C.ar    1  UNL1        0.0082
      8 C          46.5467   13.4555  -27.7820 C.ar    1  UNL1        0.0179
      9 C          46.6308   14.3894  -26.7571 C.ar    1  UNL1        0.0239
     10 C          46.3019   15.7562  -26.6804 C.ar    1  UNL1        0.0831
     11 C          46.4531   16.3971  -25.4264 C.ar    1  UNL1        0.0409
     12 BR         46.0681   18.2627  -25.1953 Br      1  UNL1       -0.0488
     13 C          46.9328   15.6802  -24.3117 C.ar    1  UNL1        0.0084
     14 C          47.2704   14.3246  -24.4189 C.ar    1  UNL1        0.0177
     15 C          47.1094   13.6953  -25.6560 C.ar    1  UNL1        0.0602
     16 C          45.8567   16.5175  -27.8582 C.2     1  UNL1        0.3386
     17 O          44.6319   16.7594  -28.0211 O.2     1  UNL1       -0.2451
     18 O          46.7745   16.9525  -28.8095 O.3     1  UNL1       -0.4771
     19 H          47.7668   16.7836  -28.6948 H       1  UNL1        0.2954
     20 C          47.7937   11.3257  -25.0485 C.3     1  UNL1        0.1429
     21 C          49.2984   11.0607  -25.2070 C.3     1  UNL1        0.2027
     22 F          49.5904   10.9317  -26.5544 F       1  UNL1       -0.2334
     23 C          50.1463   12.1953  -24.6180 C.3     1  UNL1        0.1259
     24 N          50.5219   13.1481  -25.6609 N.pl3   1  UNL1       -0.3157
     25 H          50.8056   12.7725  -26.5943 H       1  UNL1        0.1483
     26 C          49.8696   16.7168  -26.3509 C.ar    1  UNL1        0.2261
     27 C          50.2633   17.3256  -25.1564 C.ar    1  UNL1        0.0578
     28 C          50.7424   16.5350  -24.1103 C.ar    1  UNL1        0.0077
     29 C          50.8264   15.1501  -24.2662 C.ar    1  UNL1        0.0343
     30 C          50.4254   14.5683  -25.4760 C.ar    1  UNL1        0.1317
     31 N          49.9599   15.3634  -26.4799 N.ar    1  UNL1       -0.1969
     32 C          49.2489   18.9159  -27.2956 C.3     1  UNL1        0.2542
     33 O          49.3894   17.5045  -27.4006 O.3     1  UNL1       -0.4561
@<TRIPOS>BOND
     1    32    33    1
     2    33    26    1
     3    26    27   ar
     4    27    28   ar
     5    28    29   ar
     6    29    30   ar
     7    30    24    1
     8    24    23    1
     9    23    21    1
    10    21    22    1
    11    21    20    1
    12    20     1    1
    13     1     2   ar
    14     2     3   ar
    15     3     4   ar
    16     4     5   ar
    17     5     6    1
    18     5     7   ar
    19     7     8   ar
    20     8     9   ar
    21     9    10   ar
    22    10    16    1
    23    16    17    2
    24    16    18    1
    25    10    11   ar
    26    11    12    1
    27    11    13   ar
    28    13    14   ar
    29    14    15   ar
    30    30    31   ar
    31    31    26   ar
    32    15     1   ar
    33     8     2   ar
    34    15     9   ar
    35    24    25    1
    36    18    19    1
@<TRIPOS>MOLECULE
*****
 33 36 0 0 0
SMALL
GASTEIGER

@<TRIPOS>ATOM
      1 N          47.6200   13.3320  -26.2487 N.ar    1  UNL1       -0.3243
      2 C          48.8390   12.9238  -25.8216 C.ar    1  UNL1        0.0600
      3 C          49.2477   11.6153  -25.5423 C.ar    1  UNL1        0.0177
      4 C          50.5798   11.4035  -25.1526 C.ar    1  UNL1        0.0082
      5 C          51.4794   12.4852  -25.0615 C.ar    1  UNL1        0.0347
      6 BR         53.2968   12.1685  -24.5696 Br      1  UNL1       -0.0490
      7 C          51.0528   13.7933  -25.3499 C.ar    1  UNL1        0.0082
      8 C          49.7163   13.9876  -25.7141 C.ar    1  UNL1        0.0179
      9 C          49.0050   15.1208  -26.0875 C.ar    1  UNL1        0.0239
     10 C          49.3611   16.4782  -26.2008 C.ar    1  UNL1        0.0831
     11 C          48.3798   17.3744  -26.6909 C.ar    1  UNL1        0.0409
     12 BR         48.7278   19.2534  -26.8646 Br      1  UNL1       -0.0488
     13 C          47.0940   16.9080  -27.0317 C.ar    1  UNL1        0.0084
     14 C          46.7591   15.5546  -26.8926 C.ar    1  UNL1        0.0177
     15 C          47.7346   14.6738  -26.4182 C.ar    1  UNL1        0.0602
     16 C          50.6844   16.9734  -25.7899 C.2     1  UNL1        0.3386
     17 O          50.9880   17.0092  -24.5685 O.2     1  UNL1       -0.2451
     18 O          51.5970   17.4273  -26.7373 O.3     1  UNL1       -0.4771
     19 H          51.3830   17.3956  -27.7271 H       1  UNL1        0.2954
     20 C          46.4609   12.4798  -26.5460 C.3     1  UNL1        0.1429
     21 C          45.4755   12.4512  -25.3681 C.3     1  UNL1        0.2027
     22 F          44.3504   11.7365  -25.7433 F       1  UNL1       -0.2334
     23 C          46.0890   11.7998  -24.1220 C.3     1  UNL1        0.1259
     24 N          46.0717   12.7318  -22.9961 N.pl3   1  UNL1       -0.3157
     25 H          45.2954   12.6519  -22.3005 H       1  UNL1        0.1483
     26 C          47.9383   15.9174  -22.9247 C.ar    1  UNL1        0.2261
     27 C          49.1602   15.5316  -22.3673 C.ar    1  UNL1        0.0578
     28 C          49.3571   14.1978  -22.0055 C.ar    1  UNL1        0.0077
     29 C          48.3380   13.2645  -22.2049 C.ar    1  UNL1        0.0343
     30 C          47.1240   13.6808  -22.7669 C.ar    1  UNL1        0.1317
     31 N          46.9580   14.9892  -23.1092 N.ar    1  UNL1       -0.1969
     32 C          46.4493   17.8556  -23.2993 C.3     1  UNL1        0.2542
     33 O          47.7369   17.2517  -23.2882 O.3     1  UNL1       -0.4561
@<TRIPOS>BOND
     1    32    33    1
     2    33    26    1
     3    26    27   ar
     4    27    28   ar
     5    28    29   ar
     6    29    30   ar
     7    30    24    1
     8    24    23    1
     9    23    21    1
    10    21    22    1
    11    21    20    1
    12    20     1    1
    13     1     2   ar
    14     2     3   ar
    15     3     4   ar
    16     4     5   ar
    17     5     6    1
    18     5     7   ar
    19     7     8   ar
    20     8     9   ar
    21     9    10   ar
    22    10    16    1
    23    16    17    2
    24    16    18    1
    25    10    11   ar
    26    11    12    1
    27    11    13   ar
    28    13    14   ar
    29    14    15   ar
    30    30    31   ar
    31    31    26   ar
    32    15     1   ar
    33     8     2   ar
    34    15     9   ar
    35    24    25    1
    36    18    19    1
@<TRIPOS>MOLECULE
*****
 33 36 0 0 0
SMALL
GASTEIGER

@<TRIPOS>ATOM
      1 N          47.2207   12.5361  -24.9735 N.ar    1  UNL1       -0.3243
      2 C          47.0947   13.7875  -24.4705 C.ar    1  UNL1        0.0600
      3 C          47.3931   14.2162  -23.1727 C.ar    1  UNL1        0.0177
      4 C          47.2327   15.5775  -22.8686 C.ar    1  UNL1        0.0082
      5 C          46.7956   16.4846  -23.8554 C.ar    1  UNL1        0.0347
      6 BR         46.6244   18.3382  -23.4308 Br      1  UNL1       -0.0490
      7 C          46.5042   16.0373  -25.1559 C.ar    1  UNL1        0.0082
      8 C          46.6478   14.6739  -25.4337 C.ar    1  UNL1        0.0179
      9 C          46.4796   13.9349  -26.5978 C.ar    1  UNL1        0.0239
     10 C          46.0742   14.2829  -27.9004 C.ar    1  UNL1        0.0831
     11 C          46.0842   13.2638  -28.8840 C.ar    1  UNL1        0.0409
     12 BR         45.5263   13.5998  -30.6889 Br      1  UNL1       -0.0488
     13 C          46.4728   11.9513  -28.5479 C.ar    1  UNL1        0.0084
     14 C          46.8548   11.6267  -27.2395 C.ar    1  UNL1        0.0177
     15 C          46.8527   12.6385  -26.2760 C.ar    1  UNL1        0.0602
     16 C          45.6133   15.6393  -28.2365 C.2     1  UNL1        0.3386
     17 O          44.4589   16.0102  -27.8972 O.2     1  UNL1       -0.2451
     18 O          46.4320   16.5100  -28.9491 O.3     1  UNL1       -0.4771
     19 H          47.3702   16.2413  -29.2212 H       1  UNL1        0.2954
     20 C          47.7335   11.3526  -24.2703 C.3     1  UNL1        0.1429
     21 C          49.2590   11.4221  -24.1048 C.3     1  UNL1        0.2027
     22 F          49.6928   10.2718  -23.4676 F       1  UNL1       -0.2334
     23 C          49.9777   11.5475  -25.4543 C.3     1  UNL1        0.1259
     24 N          51.0206   12.5694  -25.3857 N.pl3   1  UNL1       -0.3157
     25 H          52.0114   12.2754  -25.5432 H       1  UNL1        0.1483
     26 C          49.9311   16.0238  -26.1046 C.ar    1  UNL1        0.2261
     27 C          50.1708   16.6685  -24.8882 C.ar    1  UNL1        0.0578
     28 C          50.6928   15.9397  -23.8182 C.ar    1  UNL1        0.0077
     29 C          50.9723   14.5804  -23.9718 C.ar    1  UNL1        0.0343
     30 C          50.7225   13.9616  -25.2038 C.ar    1  UNL1        0.1317
     31 N          50.2109   14.6963  -26.2310 N.ar    1  UNL1       -0.1969
     32 C          48.9940   18.1047  -27.0563 C.3     1  UNL1        0.2542
     33 O          49.4086   16.7497  -27.1784 O.3     1  UNL1       -0.4561
@<TRIPOS>BOND
     1    32    33    1
     2    33    26    1
     3    26    27   ar
     4    27    28   ar
     5    28    29   ar
     6    29    30   ar
     7    30    24    1
     8    24    23    1
     9    23    21    1
    10    21    22    1
    11    21    20    1
    12    20     1    1
    13     1     2   ar
    14     2     3   ar
    15     3     4   ar
    16     4     5   ar
    17     5     6    1
    18     5     7   ar
    19     7     8   ar
    20     8     9   ar
    21     9    10   ar
    22    10    16    1
    23    16    17    2
    24    16    18    1
    25    10    11   ar
    26    11    12    1
    27    11    13   ar
    28    13    14   ar
    29    14    15   ar
    30    30    31   ar
    31    31    26   ar
    32    15     1   ar
    33     8     2   ar
    34    15     9   ar
    35    24    25    1
    36    18    19    1
@<TRIPOS>MOLECULE
*****
 33 36 0 0 0
SMALL
GASTEIGER

@<TRIPOS>ATOM
      1 N          47.2599   13.4813  -25.9081 N.ar    1  UNL1       -0.3243
      2 C          48.5174   12.9942  -25.7801 C.ar    1  UNL1        0.0600
      3 C          48.9130   11.6523  -25.7753 C.ar    1  UNL1        0.0177
      4 C          50.2834   11.3633  -25.6761 C.ar    1  UNL1        0.0082
      5 C          51.2307   12.4046  -25.5984 C.ar    1  UNL1        0.0347
      6 BR         53.0918   11.9888  -25.5060 Br      1  UNL1       -0.0490
      7 C          50.8158   13.7477  -25.6088 C.ar    1  UNL1        0.0082
      8 C          49.4450   14.0157  -25.6848 C.ar    1  UNL1        0.0179
      9 C          48.7275   15.2034  -25.7501 C.ar    1  UNL1        0.0239
     10 C          49.1155   16.5565  -25.7293 C.ar    1  UNL1        0.0831
     11 C          48.1011   17.5316  -25.8919 C.ar    1  UNL1        0.0409
     12 BR         48.4929   19.4096  -25.8525 Br      1  UNL1       -0.0488
     13 C          46.7558   17.1423  -26.0507 C.ar    1  UNL1        0.0084
     14 C          46.3934   15.7888  -26.0498 C.ar    1  UNL1        0.0177
     15 C          47.3998   14.8313  -25.8991 C.ar    1  UNL1        0.0602
     16 C          50.5118   16.9632  -25.5052 C.2     1  UNL1        0.3386
     17 O          50.9894   16.9468  -24.3404 O.2     1  UNL1       -0.2451
     18 O          51.3045   17.3909  -26.5659 O.3     1  UNL1       -0.4771
     19 H          50.9489   17.3997  -27.5145 H       1  UNL1        0.2954
     20 C          46.0302   12.7020  -26.1044 C.3     1  UNL1        0.1429
     21 C          45.1064   12.8041  -24.8814 C.3     1  UNL1        0.2027
     22 F          43.9481   12.0889  -25.1348 F       1  UNL1       -0.2334
     23 C          45.7689   12.2501  -23.6136 C.3     1  UNL1        0.1259
     24 N          46.3856   13.3295  -22.8449 N.pl3   1  UNL1       -0.3157
     25 H          45.7662   14.0792  -22.4611 H       1  UNL1        0.1483
     26 C          49.8055   12.1456  -22.1101 C.ar    1  UNL1        0.2261
     27 C          50.4872   13.3415  -21.8703 C.ar    1  UNL1        0.0578
     28 C          49.7990   14.5525  -21.9633 C.ar    1  UNL1        0.0077
     29 C          48.4418   14.5588  -22.2910 C.ar    1  UNL1        0.0343
     30 C          47.7848   13.3436  -22.5248 C.ar    1  UNL1        0.1317
     31 N          48.4812   12.1764  -22.4290 N.ar    1  UNL1       -0.1969
     32 C          49.8574    9.6769  -22.2395 C.3     1  UNL1        0.2542
     33 O          50.4906   10.9310  -22.0180 O.3     1  UNL1       -0.4561
@<TRIPOS>BOND
     1    32    33    1
     2    33    26    1
     3    26    27   ar
     4    27    28   ar
     5    28    29   ar
     6    29    30   ar
     7    30    24    1
     8    24    23    1
     9    23    21    1
    10    21    22    1
    11    21    20    1
    12    20     1    1
    13     1     2   ar
    14     2     3   ar
    15     3     4   ar
    16     4     5   ar
    17     5     6    1
    18     5     7   ar
    19     7     8   ar
    20     8     9   ar
    21     9    10   ar
    22    10    16    1
    23    16    17    2
    24    16    18    1
    25    10    11   ar
    26    11    12    1
    27    11    13   ar
    28    13    14   ar
    29    14    15   ar
    30    30    31   ar
    31    31    26   ar
    32    15     1   ar
    33     8     2   ar
    34    15     9   ar
    35    24    25    1
    36    18    19    1
@<TRIPOS>MOLECULE
*****
 33 36 0 0 0
SMALL
GASTEIGER

@<TRIPOS>ATOM
      1 N          49.1970   13.6361  -22.6069 N.ar    1  UNL1       -0.3243
      2 C          50.0433   13.0672  -23.4985 C.ar    1  UNL1        0.0600
      3 C          50.6602   11.8150  -23.4056 C.ar    1  UNL1        0.0177
      4 C          51.4719   11.3929  -24.4706 C.ar    1  UNL1        0.0082
      5 C          51.6440   12.2097  -25.6068 C.ar    1  UNL1        0.0347
      6 BR         52.7190   11.5976  -27.0610 Br      1  UNL1       -0.0490
      7 C          51.0132   13.4636  -25.6852 C.ar    1  UNL1        0.0082
      8 C          50.2270   13.8770  -24.6046 C.ar    1  UNL1        0.0179
      9 C          49.4598   15.0146  -24.3887 C.ar    1  UNL1        0.0239
     10 C          49.2250   16.1693  -25.1593 C.ar    1  UNL1        0.0831
     11 C          48.3072   17.1208  -24.6510 C.ar    1  UNL1        0.0409
     12 BR         47.9218   18.7500  -25.5886 Br      1  UNL1       -0.0488
     13 C          47.6747   16.9097  -23.4092 C.ar    1  UNL1        0.0084
     14 C          47.9394   15.7602  -22.6529 C.ar    1  UNL1        0.0177
     15 C          48.8380   14.8204  -23.1644 C.ar    1  UNL1        0.0602
     16 C          49.9296   16.4161  -26.4272 C.2     1  UNL1        0.3386
     17 O          49.4673   15.9498  -27.5015 O.2     1  UNL1       -0.2451
     18 O          51.1180   17.1398  -26.4487 O.3     1  UNL1       -0.4771
     19 H          51.5034   17.5381  -25.6006 H       1  UNL1        0.2954
     20 C          48.7119   13.0443  -21.3529 C.3     1  UNL1        0.1429
     21 C          47.7092   11.9125  -21.6240 C.3     1  UNL1        0.2027
     22 F          47.7724   11.0003  -20.5841 F       1  UNL1       -0.2334
     23 C          46.2720   12.4353  -21.7439 C.3     1  UNL1        0.1259
     24 N          45.6895   12.0419  -23.0255 N.pl3   1  UNL1       -0.3157
     25 H          44.8673   11.3964  -23.0172 H       1  UNL1        0.1483
     26 C          46.1280   14.3505  -25.8743 C.ar    1  UNL1        0.2261
     27 C          46.9864   13.6302  -26.7090 C.ar    1  UNL1        0.0578
     28 C          47.4278   12.3670  -26.3114 C.ar    1  UNL1        0.0077
     29 C          47.0080   11.8351  -25.0906 C.ar    1  UNL1        0.0343
     30 C          46.1460   12.5803  -24.2754 C.ar    1  UNL1        0.1317
     31 N          45.7321   13.8114  -24.6872 N.ar    1  UNL1       -0.1969
     32 C          45.6739   16.0335  -27.6279 C.3     1  UNL1        0.2542
     33 O          45.6837   15.6155  -26.2685 O.3     1  UNL1       -0.4561
@<TRIPOS>BOND
     1    32    33    1
     2    33    26    1
     3    26    27   ar
     4    27    28   ar
     5    28    29   ar
     6    29    30   ar
     7    30    24    1
     8    24    23    1
     9    23    21    1
    10    21    22    1
    11    21    20    1
    12    20     1    1
    13     1     2   ar
    14     2     3   ar
    15     3     4   ar
    16     4     5   ar
    17     5     6    1
    18     5     7   ar
    19     7     8   ar
    20     8     9   ar
    21     9    10   ar
    22    10    16    1
    23    16    17    2
    24    16    18    1
    25    10    11   ar
    26    11    12    1
    27    11    13   ar
    28    13    14   ar
    29    14    15   ar
    30    30    31   ar
    31    31    26   ar
    32    15     1   ar
    33     8     2   ar
    34    15     9   ar
    35    24    25    1
    36    18    19    1
@<TRIPOS>MOLECULE
*****
 33 36 0 0 0
SMALL
GASTEIGER

@<TRIPOS>ATOM
      1 N          47.2650   13.6383  -24.0888 N.ar    1  UNL1       -0.3243
      2 C          48.4240   13.0850  -24.5195 C.ar    1  UNL1        0.0600
      3 C          48.7732   11.7303  -24.5136 C.ar    1  UNL1        0.0177
      4 C          50.0160   11.3615  -25.0528 C.ar    1  UNL1        0.0082
      5 C          50.8775   12.3358  -25.5972 C.ar    1  UNL1        0.0347
      6 BR         52.5446   11.8065  -26.3625 Br      1  UNL1       -0.0490
      7 C          50.5088   13.6923  -25.5987 C.ar    1  UNL1        0.0082
      8 C          49.2770   14.0433  -25.0364 C.ar    1  UNL1        0.0179
      9 C          48.6179   15.2601  -24.9155 C.ar    1  UNL1        0.0239
     10 C          48.9638   16.5747  -25.2822 C.ar    1  UNL1        0.0831
     11 C          47.9987   17.5895  -25.0701 C.ar    1  UNL1        0.0409
     12 BR         48.3561   19.4255  -25.4984 Br      1  UNL1       -0.0488
     13 C          46.7496   17.2778  -24.4963 C.ar    1  UNL1        0.0084
     14 C          46.4367   15.9639  -24.1235 C.ar    1  UNL1        0.0177
     15 C          47.3889   14.9656  -24.3445 C.ar    1  UNL1        0.0602
     16 C          50.2894   16.9082  -25.8270 C.2     1  UNL1        0.3386
     17 O          50.5319   16.7135  -27.0470 O.2     1  UNL1       -0.2451
     18 O          51.2885   17.4142  -25.0010 O.3     1  UNL1       -0.4771
     19 H          51.1146   17.5937  -24.0192 H       1  UNL1        0.2954
     20 C          46.0988   12.9279  -23.5471 C.3     1  UNL1        0.1429
     21 C          45.0122   12.7463  -24.6176 C.3     1  UNL1        0.2027
     22 F          44.6570   13.9908  -25.1100 F       1  UNL1       -0.2334
     23 C          45.4923   11.8673  -25.7795 C.3     1  UNL1        0.1259
     24 N          46.0799   12.6901  -26.8351 N.pl3   1  UNL1       -0.3157
     25 H          46.4668   13.6257  -26.5746 H       1  UNL1        0.1483
     26 C          46.0459   12.6321  -30.5273 C.ar    1  UNL1        0.2261
     27 C          46.4627   11.3279  -30.8063 C.ar    1  UNL1        0.0578
     28 C          46.7650   10.4651  -29.7513 C.ar    1  UNL1        0.0077
     29 C          46.6465   10.9091  -28.4329 C.ar    1  UNL1        0.0343
     30 C          46.2250   12.2219  -28.1842 C.ar    1  UNL1        0.1317
     31 N          45.9383   13.0434  -29.2328 N.ar    1  UNL1       -0.1969
     32 C          45.5025   13.0393  -32.9049 C.3     1  UNL1        0.2542
     33 O          45.7424   13.4990  -31.5805 O.3     1  UNL1       -0.4561
@<TRIPOS>BOND
     1    32    33    1
     2    33    26    1
     3    26    27   ar
     4    27    28   ar
     5    28    29   ar
     6    29    30   ar
     7    30    24    1
     8    24    23    1
     9    23    21    1
    10    21    22    1
    11    21    20    1
    12    20     1    1
    13     1     2   ar
    14     2     3   ar
    15     3     4   ar
    16     4     5   ar
    17     5     6    1
    18     5     7   ar
    19     7     8   ar
    20     8     9   ar
    21     9    10   ar
    22    10    16    1
    23    16    17    2
    24    16    18    1
    25    10    11   ar
    26    11    12    1
    27    11    13   ar
    28    13    14   ar
    29    14    15   ar
    30    30    31   ar
    31    31    26   ar
    32    15     1   ar
    33     8     2   ar
    34    15     9   ar
    35    24    25    1
    36    18    19    1
@<TRIPOS>MOLECULE
*****
 33 36 0 0 0
SMALL
GASTEIGER

@<TRIPOS>ATOM
      1 N          49.2385   10.3013  -22.4659 N.ar    1  UNL1       -0.3243
      2 C          49.9702   10.1625  -23.5975 C.ar    1  UNL1        0.0600
      3 C          51.1874    9.4889  -23.7457 C.ar    1  UNL1        0.0177
      4 C          51.7604    9.4247  -25.0258 C.ar    1  UNL1        0.0082
      5 C          51.1122   10.0141  -26.1305 C.ar    1  UNL1        0.0347
      6 BR         51.8892    9.8787  -27.8692 Br      1  UNL1       -0.0490
      7 C          49.8873   10.6836  -25.9642 C.ar    1  UNL1        0.0082
      8 C          49.3434   10.7571  -24.6776 C.ar    1  UNL1        0.0179
      9 C          48.1609   11.3017  -24.1928 C.ar    1  UNL1        0.0239
     10 C          47.1069   12.0007  -24.8112 C.ar    1  UNL1        0.0831
     11 C          45.9954   12.3549  -24.0079 C.ar    1  UNL1        0.0409
     12 BR         44.5077   13.3347  -24.7213 Br      1  UNL1       -0.0488
     13 C          45.9712   12.0255  -22.6376 C.ar    1  UNL1        0.0084
     14 C          47.0415   11.3449  -22.0422 C.ar    1  UNL1        0.0177
     15 C          48.1306   10.9893  -22.8420 C.ar    1  UNL1        0.0602
     16 C          47.1590   12.3951  -26.2279 C.2     1  UNL1        0.3386
     17 O          46.7969   11.5815  -27.1180 O.2     1  UNL1       -0.2451
     18 O          47.6292   13.6517  -26.5971 O.3     1  UNL1       -0.4771
     19 H          47.9128   14.3298  -25.8999 H       1  UNL1        0.2954
     20 C          49.5491    9.7425  -21.1433 C.3     1  UNL1        0.1429
     21 C          49.4212   10.8092  -20.0454 C.3     1  UNL1        0.2027
     22 F          49.4412   10.1843  -18.8099 F       1  UNL1       -0.2334
     23 C          50.5607   11.8345  -20.1056 C.3     1  UNL1        0.1259
     24 N          50.0595   13.1310  -20.5576 N.pl3   1  UNL1       -0.3157
     25 H          49.6702   13.7868  -19.8426 H       1  UNL1        0.1483
     26 C          49.2068   14.6677  -23.8055 C.ar    1  UNL1        0.2261
     27 C          50.3392   14.3838  -24.5732 C.ar    1  UNL1        0.0578
     28 C          51.3985   13.6805  -23.9970 C.ar    1  UNL1        0.0077
     29 C          51.3172   13.2663  -22.6661 C.ar    1  UNL1        0.0343
     30 C          50.1684   13.5646  -21.9216 C.ar    1  UNL1        0.1317
     31 N          49.1501   14.2541  -22.5085 N.ar    1  UNL1       -0.1969
     32 C          47.1613   16.0414  -23.5984 C.3     1  UNL1        0.2542
     33 O          48.1441   15.3717  -24.3784 O.3     1  UNL1       -0.4561
@<TRIPOS>BOND
     1    32    33    1
     2    33    26    1
     3    26    27   ar
     4    27    28   ar
     5    28    29   ar
     6    29    30   ar
     7    30    24    1
     8    24    23    1
     9    23    21    1
    10    21    22    1
    11    21    20    1
    12    20     1    1
    13     1     2   ar
    14     2     3   ar
    15     3     4   ar
    16     4     5   ar
    17     5     6    1
    18     5     7   ar
    19     7     8   ar
    20     8     9   ar
    21     9    10   ar
    22    10    16    1
    23    16    17    2
    24    16    18    1
    25    10    11   ar
    26    11    12    1
    27    11    13   ar
    28    13    14   ar
    29    14    15   ar
    30    30    31   ar
    31    31    26   ar
    32    15     1   ar
    33     8     2   ar
    34    15     9   ar
    35    24    25    1
    36    18    19    1
@<TRIPOS>MOLECULE
*****
 33 36 0 0 0
SMALL
GASTEIGER

@<TRIPOS>ATOM
      1 N          46.9949   11.1744  -22.4262 N.ar    1  UNL1       -0.3243
      2 C          46.6324   11.9679  -23.4626 C.ar    1  UNL1        0.0600
      3 C          45.4996   12.7838  -23.5531 C.ar    1  UNL1        0.0177
      4 C          45.3347   13.5673  -24.7064 C.ar    1  UNL1        0.0082
      5 C          46.2978   13.5375  -25.7356 C.ar    1  UNL1        0.0347
      6 BR         46.0738   14.6425  -27.2764 Br      1  UNL1       -0.0490
      7 C          47.4325   12.7149  -25.6263 C.ar    1  UNL1        0.0082
      8 C          47.5679   11.9241  -24.4804 C.ar    1  UNL1        0.0179
      9 C          48.5638   11.0519  -24.0596 C.ar    1  UNL1        0.0239
     10 C          49.7711   10.6260  -24.6454 C.ar    1  UNL1        0.0831
     11 C          50.5993    9.7636  -23.8860 C.ar    1  UNL1        0.0409
     12 BR         52.2554    9.0875  -24.5804 Br      1  UNL1       -0.0488
     13 C          50.2043    9.3448  -22.5995 C.ar    1  UNL1        0.0084
     14 C          48.9888    9.7689  -22.0462 C.ar    1  UNL1        0.0177
     15 C          48.1808   10.6275  -22.7961 C.ar    1  UNL1        0.0602
     16 C          50.1549   11.0170  -26.0110 C.2     1  UNL1        0.3386
     17 O          50.8970   12.0182  -26.1903 O.2     1  UNL1       -0.2451
     18 O          49.6848   10.3055  -27.1107 O.3     1  UNL1       -0.4771
     19 H          49.0984    9.4878  -26.9930 H       1  UNL1        0.2954
     20 C          46.2894   11.0210  -21.1469 C.3     1  UNL1        0.1429
     21 C          46.5315   12.2296  -20.2303 C.3     1  UNL1        0.2027
     22 F          45.4862   12.3226  -19.3270 F       1  UNL1       -0.2334
     23 C          47.8511   12.1087  -19.4573 C.3     1  UNL1        0.1259
     24 N          48.6767   13.2968  -19.6651 N.pl3   1  UNL1       -0.3157
     25 H          48.8987   13.8951  -18.8371 H       1  UNL1        0.1483
     26 C          49.1301   14.7522  -23.0286 C.ar    1  UNL1        0.2261
     27 C          50.3584   14.2135  -23.4207 C.ar    1  UNL1        0.0578
     28 C          51.0429   13.3641  -22.5497 C.ar    1  UNL1        0.0077
     29 C          50.4965   13.0592  -21.3016 C.ar    1  UNL1        0.0343
     30 C          49.2625   13.6135  -20.9367 C.ar    1  UNL1        0.1317
     31 N          48.6167   14.4410  -21.8055 N.ar    1  UNL1       -0.1969
     32 C          47.4156   16.4824  -23.4537 C.3     1  UNL1        0.2542
     33 O          48.4416   15.6030  -23.8975 O.3     1  UNL1       -0.4561
@<TRIPOS>BOND
     1    32    33    1
     2    33    26    1
     3    26    27   ar
     4    27    28   ar
     5    28    29   ar
     6    29    30   ar
     7    30    24    1
     8    24    23    1
     9    23    21    1
    10    21    22    1
    11    21    20    1
    12    20     1    1
    13     1     2   ar
    14     2     3   ar
    15     3     4   ar
    16     4     5   ar
    17     5     6    1
    18     5     7   ar
    19     7     8   ar
    20     8     9   ar
    21     9    10   ar
    22    10    16    1
    23    16    17    2
    24    16    18    1
    25    10    11   ar
    26    11    12    1
    27    11    13   ar
    28    13    14   ar
    29    14    15   ar
    30    30    31   ar
    31    31    26   ar
    32    15     1   ar
    33     8     2   ar
    34    15     9   ar
    35    24    25    1
    36    18    19    1
