@<TRIPOS>MOLECULE
*****
 31 33 0 0 0
SMALL
GASTEIGER

@<TRIPOS>ATOM
      1 C          46.9553   15.0175  -26.6384 C.2     1  UNL1       -0.0222
      2 C          48.0455   15.4192  -25.9261 C.2     1  UNL1       -0.0042
      3 C          48.8342   16.6169  -26.2949 C.ar    1  UNL1       -0.0003
      4 C          48.2061   17.8640  -26.4491 C.ar    1  UNL1       -0.0000
      5 C          48.9617   18.9990  -26.7584 C.ar    1  UNL1       -0.0000
      6 C          50.3487   18.9002  -26.8981 C.ar    1  UNL1       -0.0000
      7 C          50.9833   17.6678  -26.7204 C.ar    1  UNL1       -0.0000
      8 C          50.2313   16.5306  -26.4105 C.ar    1  UNL1       -0.0000
      9 C          48.5104   14.6744  -24.7289 C.ar    1  UNL1       -0.0017
     10 C          49.0544   13.3950  -24.9154 C.ar    1  UNL1        0.0029
     11 C          49.5261   12.6557  -23.8311 C.ar    1  UNL1        0.0369
     12 C          49.4602   13.1837  -22.5310 C.ar    1  UNL1        0.1384
     13 C          48.8779   14.4396  -22.3351 C.ar    1  UNL1        0.0350
     14 C          48.3912   15.1943  -23.4154 C.ar    1  UNL1        0.0100
     15 C          47.7438   16.5244  -23.1168 C.3     1  UNL1        0.1637
     16 O          46.3517   16.3906  -23.1807 O.3     1  UNL1       -0.3772
     17 H          45.9779   17.2848  -22.9675 H       1  UNL1        0.2109
     18 O          49.9396   12.4967  -21.4039 O.3     1  UNL1       -0.4740
     19 C          49.1588   11.7011  -20.5096 C.3     1  UNL1        0.2226
     20 C          49.7148   10.2748  -20.4192 C.3     1  UNL1        0.1201
     21 N          48.9499    9.3511  -21.2844 N.3     1  UNL1       -0.2672
     22 C          47.6147    9.8960  -21.5745 C.3     1  UNL1        0.0898
     23 C          49.6648    9.0969  -22.5472 C.3     1  UNL1        0.0898
     24 C          46.0765   13.9227  -26.1415 C.ar    1  UNL1       -0.0040
     25 C          46.1477   12.6384  -26.7116 C.ar    1  UNL1       -0.0003
     26 C          45.3313   11.6079  -26.2368 C.ar    1  UNL1       -0.0000
     27 C          44.4450   11.8451  -25.1840 C.ar    1  UNL1       -0.0000
     28 C          44.3819   13.1106  -24.5963 C.ar    1  UNL1       -0.0000
     29 C          45.1994   14.1433  -25.0651 C.ar    1  UNL1       -0.0003
     30 C          45.1647   16.1997  -27.9723 C.3     1  UNL1        0.0050
     31 C          46.5906   15.6489  -27.9709 C.3     1  UNL1        0.0264
@<TRIPOS>BOND
     1    30    31    1
     2    31     1    1
     3     1     2    2
     4     2     3    1
     5     3     4   ar
     6     4     5   ar
     7     5     6   ar
     8     6     7   ar
     9     7     8   ar
    10     2     9    1
    11     9    10   ar
    12    10    11   ar
    13    11    12   ar
    14    12    18    1
    15    18    19    1
    16    19    20    1
    17    20    21    1
    18    21    22    1
    19    21    23    1
    20    12    13   ar
    21    13    14   ar
    22    14    15    1
    23    15    16    1
    24     1    24    1
    25    24    25   ar
    26    25    26   ar
    27    26    27   ar
    28    27    28   ar
    29    28    29   ar
    30     8     3   ar
    31    14     9   ar
    32    29    24   ar
    33    16    17    1
@<TRIPOS>MOLECULE
*****
 31 33 0 0 0
SMALL
GASTEIGER

@<TRIPOS>ATOM
      1 C          47.0549   14.9826  -26.3654 C.2     1  UNL1       -0.0222
      2 C          48.0942   15.3967  -25.5872 C.2     1  UNL1       -0.0042
      3 C          48.8843   16.6088  -25.9018 C.ar    1  UNL1       -0.0003
      4 C          48.3676   17.8867  -25.6306 C.ar    1  UNL1       -0.0000
      5 C          49.1341   19.0261  -25.8932 C.ar    1  UNL1       -0.0000
      6 C          50.4260   18.8970  -26.4105 C.ar    1  UNL1       -0.0000
      7 C          50.9564   17.6279  -26.6583 C.ar    1  UNL1       -0.0000
      8 C          50.1931   16.4861  -26.3966 C.ar    1  UNL1       -0.0000
      9 C          48.4985   14.6518  -24.3683 C.ar    1  UNL1       -0.0017
     10 C          48.0820   15.1447  -23.1228 C.ar    1  UNL1        0.0029
     11 C          48.4141   14.4769  -21.9444 C.ar    1  UNL1        0.0369
     12 C          49.1759   13.2976  -21.9887 C.ar    1  UNL1        0.1384
     13 C          49.6311   12.8273  -23.2242 C.ar    1  UNL1        0.0350
     14 C          49.3119   13.4918  -24.4200 C.ar    1  UNL1        0.0100
     15 C          49.8720   12.9412  -25.7086 C.3     1  UNL1        0.1637
     16 O          51.2274   13.2771  -25.8094 O.3     1  UNL1       -0.3772
     17 H          51.5468   12.8848  -26.6631 H       1  UNL1        0.2109
     18 O          49.5215   12.5696  -20.8386 O.3     1  UNL1       -0.4740
     19 C          48.7310   11.5534  -20.2182 C.3     1  UNL1        0.2226
     20 C          49.4440   10.1968  -20.2722 C.3     1  UNL1        0.1201
     21 N          48.8051    9.3004  -21.2597 N.3     1  UNL1       -0.2672
     22 C          47.4885    9.8208  -21.6592 C.3     1  UNL1        0.0898
     23 C          49.6547    9.1380  -22.4523 C.3     1  UNL1        0.0898
     24 C          46.1655   13.8713  -25.9277 C.ar    1  UNL1       -0.0040
     25 C          45.2151   14.0782  -24.9111 C.ar    1  UNL1       -0.0003
     26 C          44.3722   13.0383  -24.5090 C.ar    1  UNL1       -0.0000
     27 C          44.4617   11.7870  -25.1226 C.ar    1  UNL1       -0.0000
     28 C          45.3868   11.5769  -26.1478 C.ar    1  UNL1       -0.0000
     29 C          46.2291   12.6153  -26.5562 C.ar    1  UNL1       -0.0003
     30 C          45.3309   16.1520  -27.7949 C.3     1  UNL1        0.0050
     31 C          46.7604   15.6165  -27.7140 C.3     1  UNL1        0.0264
@<TRIPOS>BOND
     1    30    31    1
     2    31     1    1
     3     1     2    2
     4     2     3    1
     5     3     4   ar
     6     4     5   ar
     7     5     6   ar
     8     6     7   ar
     9     7     8   ar
    10     2     9    1
    11     9    10   ar
    12    10    11   ar
    13    11    12   ar
    14    12    18    1
    15    18    19    1
    16    19    20    1
    17    20    21    1
    18    21    22    1
    19    21    23    1
    20    12    13   ar
    21    13    14   ar
    22    14    15    1
    23    15    16    1
    24     1    24    1
    25    24    25   ar
    26    25    26   ar
    27    26    27   ar
    28    27    28   ar
    29    28    29   ar
    30     8     3   ar
    31    14     9   ar
    32    29    24   ar
    33    16    17    1
@<TRIPOS>MOLECULE
*****
 31 33 0 0 0
SMALL
GASTEIGER

@<TRIPOS>ATOM
      1 C          46.5859   14.7680  -27.0024 C.2     1  UNL1       -0.0222
      2 C          46.7481   13.4157  -27.0501 C.2     1  UNL1       -0.0042
      3 C          46.4905   12.6307  -28.2790 C.ar    1  UNL1       -0.0003
      4 C          46.0923   13.2719  -29.4638 C.ar    1  UNL1       -0.0000
      5 C          45.8889   12.5300  -30.6313 C.ar    1  UNL1       -0.0000
      6 C          46.0985   11.1482  -30.6284 C.ar    1  UNL1       -0.0000
      7 C          46.5198   10.5074  -29.4600 C.ar    1  UNL1       -0.0000
      8 C          46.7247   11.2459  -28.2907 C.ar    1  UNL1       -0.0000
      9 C          47.1966   12.6436  -25.8641 C.ar    1  UNL1       -0.0017
     10 C          48.5531   12.2979  -25.7737 C.ar    1  UNL1        0.0029
     11 C          49.0369   11.5905  -24.6735 C.ar    1  UNL1        0.0369
     12 C          48.1679   11.2106  -23.6373 C.ar    1  UNL1        0.1384
     13 C          46.8072   11.5139  -23.7445 C.ar    1  UNL1        0.0350
     14 C          46.3021   12.2193  -24.8493 C.ar    1  UNL1        0.0100
     15 C          44.8161   12.4755  -24.9081 C.3     1  UNL1        0.1637
     16 O          44.1933   11.4470  -25.6253 O.3     1  UNL1       -0.3772
     17 H          43.2235   11.6574  -25.6247 H       1  UNL1        0.2109
     18 O          48.6005   10.5180  -22.4949 O.3     1  UNL1       -0.4740
     19 C          47.8008   10.1937  -21.3557 C.3     1  UNL1        0.2226
     20 C          48.6816    9.8059  -20.1618 C.3     1  UNL1        0.1201
     21 N          48.3644   10.6326  -18.9774 N.3     1  UNL1       -0.2672
     22 C          49.5703   11.3120  -18.4793 C.3     1  UNL1        0.0898
     23 C          47.3292   11.6322  -19.2934 C.3     1  UNL1        0.0898
     24 C          47.0264   15.5509  -25.8148 C.ar    1  UNL1       -0.0040
     25 C          46.1813   15.6866  -24.6981 C.ar    1  UNL1       -0.0003
     26 C          46.5999   16.4113  -23.5786 C.ar    1  UNL1       -0.0000
     27 C          47.8670   16.9981  -23.5577 C.ar    1  UNL1       -0.0000
     28 C          48.7224   16.8513  -24.6522 C.ar    1  UNL1       -0.0000
     29 C          48.3096   16.1238  -25.7724 C.ar    1  UNL1       -0.0003
     30 C          44.7985   16.4309  -27.6531 C.3     1  UNL1        0.0050
     31 C          45.9401   15.5389  -28.1408 C.3     1  UNL1        0.0264
@<TRIPOS>BOND
     1    30    31    1
     2    31     1    1
     3     1     2    2
     4     2     3    1
     5     3     4   ar
     6     4     5   ar
     7     5     6   ar
     8     6     7   ar
     9     7     8   ar
    10     2     9    1
    11     9    10   ar
    12    10    11   ar
    13    11    12   ar
    14    12    18    1
    15    18    19    1
    16    19    20    1
    17    20    21    1
    18    21    22    1
    19    21    23    1
    20    12    13   ar
    21    13    14   ar
    22    14    15    1
    23    15    16    1
    24     1    24    1
    25    24    25   ar
    26    25    26   ar
    27    26    27   ar
    28    27    28   ar
    29    28    29   ar
    30     8     3   ar
    31    14     9   ar
    32    29    24   ar
    33    16    17    1
@<TRIPOS>MOLECULE
*****
 31 33 0 0 0
SMALL
GASTEIGER

@<TRIPOS>ATOM
      1 C          46.9604   15.0365  -26.6932 C.2     1  UNL1       -0.0222
      2 C          48.0754   15.4102  -26.0045 C.2     1  UNL1       -0.0042
      3 C          48.8512   16.6225  -26.3524 C.ar    1  UNL1       -0.0003
      4 C          48.2077   17.8627  -26.4987 C.ar    1  UNL1       -0.0000
      5 C          48.9506   19.0111  -26.7883 C.ar    1  UNL1       -0.0000
      6 C          50.3401   18.9326  -26.9158 C.ar    1  UNL1       -0.0000
      7 C          50.9897   17.7069  -26.7458 C.ar    1  UNL1       -0.0000
      8 C          50.2503   16.5563  -26.4557 C.ar    1  UNL1       -0.0000
      9 C          48.5820   14.6182  -24.8554 C.ar    1  UNL1       -0.0017
     10 C          49.1191   13.3481  -25.1126 C.ar    1  UNL1        0.0029
     11 C          49.6286   12.5663  -24.0762 C.ar    1  UNL1        0.0369
     12 C          49.6083   13.0411  -22.7543 C.ar    1  UNL1        0.1384
     13 C          49.0334   14.2873  -22.4875 C.ar    1  UNL1        0.0350
     14 C          48.5090   15.0844  -23.5186 C.ar    1  UNL1        0.0100
     15 C          47.8726   16.4004  -23.1438 C.3     1  UNL1        0.1637
     16 O          46.4792   16.2655  -23.1573 O.3     1  UNL1       -0.3772
     17 H          46.1132   17.1499  -22.8954 H       1  UNL1        0.2109
     18 O          50.1271   12.3098  -21.6735 O.3     1  UNL1       -0.4740
     19 C          49.7096   12.4141  -20.3107 C.3     1  UNL1        0.2226
     20 C          50.1659   11.1924  -19.5040 C.3     1  UNL1        0.1201
     21 N          50.8813   11.6036  -18.2768 N.3     1  UNL1       -0.2672
     22 C          51.9109   12.6075  -18.5868 C.3     1  UNL1        0.0898
     23 C          49.9455   12.1481  -17.2777 C.3     1  UNL1        0.0898
     24 C          46.0992   13.9219  -26.2100 C.ar    1  UNL1       -0.0040
     25 C          46.1841   12.6484  -26.8021 C.ar    1  UNL1       -0.0003
     26 C          45.3844   11.5993  -26.3402 C.ar    1  UNL1       -0.0000
     27 C          44.5011   11.8067  -25.2786 C.ar    1  UNL1       -0.0000
     28 C          44.4245   13.0613  -24.6693 C.ar    1  UNL1       -0.0000
     29 C          45.2255   14.1125  -25.1251 C.ar    1  UNL1       -0.0003
     30 C          45.1170   16.2516  -27.9215 C.3     1  UNL1        0.0050
     31 C          46.5490   15.7208  -27.9854 C.3     1  UNL1        0.0264
@<TRIPOS>BOND
     1    30    31    1
     2    31     1    1
     3     1     2    2
     4     2     3    1
     5     3     4   ar
     6     4     5   ar
     7     5     6   ar
     8     6     7   ar
     9     7     8   ar
    10     2     9    1
    11     9    10   ar
    12    10    11   ar
    13    11    12   ar
    14    12    18    1
    15    18    19    1
    16    19    20    1
    17    20    21    1
    18    21    22    1
    19    21    23    1
    20    12    13   ar
    21    13    14   ar
    22    14    15    1
    23    15    16    1
    24     1    24    1
    25    24    25   ar
    26    25    26   ar
    27    26    27   ar
    28    27    28   ar
    29    28    29   ar
    30     8     3   ar
    31    14     9   ar
    32    29    24   ar
    33    16    17    1
@<TRIPOS>MOLECULE
*****
 31 33 0 0 0
SMALL
GASTEIGER

@<TRIPOS>ATOM
      1 C          47.6329   15.6938  -26.3785 C.2     1  UNL1       -0.0222
      2 C          47.4982   14.7067  -25.4486 C.2     1  UNL1       -0.0042
      3 C          46.5096   13.6137  -25.5924 C.ar    1  UNL1       -0.0003
      4 C          46.7061   12.5952  -26.5398 C.ar    1  UNL1       -0.0000
      5 C          45.7896   11.5445  -26.6438 C.ar    1  UNL1       -0.0000
      6 C          44.6825   11.4941  -25.7923 C.ar    1  UNL1       -0.0000
      7 C          44.4947   12.4900  -24.8299 C.ar    1  UNL1       -0.0000
      8 C          45.4092   13.5420  -24.7225 C.ar    1  UNL1       -0.0000
      9 C          48.3413   14.6681  -24.2272 C.ar    1  UNL1       -0.0017
     10 C          47.9839   15.4925  -23.1500 C.ar    1  UNL1        0.0029
     11 C          48.7260   15.4846  -21.9693 C.ar    1  UNL1        0.0369
     12 C          49.8482   14.6492  -21.8431 C.ar    1  UNL1        0.1384
     13 C          50.2343   13.8592  -22.9301 C.ar    1  UNL1        0.0350
     14 C          49.5024   13.8606  -24.1291 C.ar    1  UNL1        0.0100
     15 C          50.0054   13.0078  -25.2680 C.3     1  UNL1        0.1637
     16 O          51.3080   13.3969  -25.6024 O.3     1  UNL1       -0.3772
     17 H          51.5927   12.8019  -26.3437 H       1  UNL1        0.2109
     18 O          50.6201   14.5810  -20.6719 O.3     1  UNL1       -0.4740
     19 C          51.0577   13.3857  -20.0223 C.3     1  UNL1        0.2226
     20 C          49.8711   12.6278  -19.4145 C.3     1  UNL1        0.1201
     21 N          49.4220   11.5394  -20.3093 N.3     1  UNL1       -0.2672
     22 C          49.7360   10.2252  -19.7278 C.3     1  UNL1        0.0898
     23 C          47.9745   11.6321  -20.5678 C.3     1  UNL1        0.0898
     24 C          48.7535   16.6714  -26.3011 C.ar    1  UNL1       -0.0040
     25 C          50.0325   16.3274  -26.7756 C.ar    1  UNL1       -0.0003
     26 C          51.0811   17.2495  -26.7139 C.ar    1  UNL1       -0.0000
     27 C          50.8623   18.5249  -26.1888 C.ar    1  UNL1       -0.0000
     28 C          49.5912   18.8843  -25.7350 C.ar    1  UNL1       -0.0000
     29 C          48.5383   17.9667  -25.7985 C.ar    1  UNL1       -0.0003
     30 C          45.3578   16.5426  -27.0763 C.3     1  UNL1        0.0050
     31 C          46.6484   15.8565  -27.5238 C.3     1  UNL1        0.0264
@<TRIPOS>BOND
     1    30    31    1
     2    31     1    1
     3     1     2    2
     4     2     3    1
     5     3     4   ar
     6     4     5   ar
     7     5     6   ar
     8     6     7   ar
     9     7     8   ar
    10     2     9    1
    11     9    10   ar
    12    10    11   ar
    13    11    12   ar
    14    12    18    1
    15    18    19    1
    16    19    20    1
    17    20    21    1
    18    21    22    1
    19    21    23    1
    20    12    13   ar
    21    13    14   ar
    22    14    15    1
    23    15    16    1
    24     1    24    1
    25    24    25   ar
    26    25    26   ar
    27    26    27   ar
    28    27    28   ar
    29    28    29   ar
    30     8     3   ar
    31    14     9   ar
    32    29    24   ar
    33    16    17    1
@<TRIPOS>MOLECULE
*****
 31 33 0 0 0
SMALL
GASTEIGER

@<TRIPOS>ATOM
      1 C          47.0053   15.0098  -26.5349 C.2     1  UNL1       -0.0222
      2 C          48.0049   15.5396  -25.7750 C.2     1  UNL1       -0.0042
      3 C          48.7841   16.7228  -26.2059 C.ar    1  UNL1       -0.0003
      4 C          48.1707   17.9828  -26.3044 C.ar    1  UNL1       -0.0000
      5 C          48.9205   19.1036  -26.6735 C.ar    1  UNL1       -0.0000
      6 C          50.2888   18.9776  -26.9289 C.ar    1  UNL1       -0.0000
      7 C          50.9110   17.7320  -26.8075 C.ar    1  UNL1       -0.0000
      8 C          50.1646   16.6090  -26.4382 C.ar    1  UNL1       -0.0000
      9 C          48.3743   14.9580  -24.4600 C.ar    1  UNL1       -0.0017
     10 C          47.9480   15.6213  -23.2998 C.ar    1  UNL1        0.0029
     11 C          48.2474   15.1119  -22.0365 C.ar    1  UNL1        0.0369
     12 C          48.9857   13.9237  -21.9082 C.ar    1  UNL1        0.1384
     13 C          49.4508   13.2835  -23.0608 C.ar    1  UNL1        0.0350
     14 C          49.1645   13.7871  -24.3406 C.ar    1  UNL1        0.0100
     15 C          49.7339   13.0583  -25.5331 C.3     1  UNL1        0.1637
     16 O          51.0824   13.4009  -25.6891 O.3     1  UNL1       -0.3772
     17 H          51.4084   12.8898  -26.4747 H       1  UNL1        0.2109
     18 O          49.2978   13.3506  -20.6647 O.3     1  UNL1       -0.4740
     19 C          48.8535   12.0777  -20.1908 C.3     1  UNL1        0.2226
     20 C          50.0448   11.1619  -19.8848 C.3     1  UNL1        0.1201
     21 N          50.5532   11.3920  -18.5153 N.3     1  UNL1       -0.2672
     22 C          51.5746   12.4506  -18.5108 C.3     1  UNL1        0.0898
     23 C          49.4581   11.7582  -17.6004 C.3     1  UNL1        0.0898
     24 C          46.1203   13.9393  -25.9979 C.ar    1  UNL1       -0.0040
     25 C          45.1723   14.2329  -25.0006 C.ar    1  UNL1       -0.0003
     26 C          44.3334   13.2305  -24.5055 C.ar    1  UNL1       -0.0000
     27 C          44.4244   11.9302  -25.0065 C.ar    1  UNL1       -0.0000
     28 C          45.3471   11.6326  -26.0121 C.ar    1  UNL1       -0.0000
     29 C          46.1854   12.6329  -26.5133 C.ar    1  UNL1       -0.0003
     30 C          45.3697   16.0983  -28.1233 C.3     1  UNL1        0.0050
     31 C          46.7529   15.4681  -27.9608 C.3     1  UNL1        0.0264
@<TRIPOS>BOND
     1    30    31    1
     2    31     1    1
     3     1     2    2
     4     2     3    1
     5     3     4   ar
     6     4     5   ar
     7     5     6   ar
     8     6     7   ar
     9     7     8   ar
    10     2     9    1
    11     9    10   ar
    12    10    11   ar
    13    11    12   ar
    14    12    18    1
    15    18    19    1
    16    19    20    1
    17    20    21    1
    18    21    22    1
    19    21    23    1
    20    12    13   ar
    21    13    14   ar
    22    14    15    1
    23    15    16    1
    24     1    24    1
    25    24    25   ar
    26    25    26   ar
    27    26    27   ar
    28    27    28   ar
    29    28    29   ar
    30     8     3   ar
    31    14     9   ar
    32    29    24   ar
    33    16    17    1
@<TRIPOS>MOLECULE
*****
 31 33 0 0 0
SMALL
GASTEIGER

@<TRIPOS>ATOM
      1 C          46.2911   15.4229  -26.3883 C.2     1  UNL1       -0.0222
      2 C          47.5125   15.8642  -25.9751 C.2     1  UNL1       -0.0042
      3 C          47.9195   17.2837  -26.0844 C.ar    1  UNL1       -0.0003
      4 C          48.7633   17.7050  -27.1255 C.ar    1  UNL1       -0.0000
      5 C          49.1122   19.0535  -27.2466 C.ar    1  UNL1       -0.0000
      6 C          48.6077   19.9913  -26.3416 C.ar    1  UNL1       -0.0000
      7 C          47.7469   19.5833  -25.3189 C.ar    1  UNL1       -0.0000
      8 C          47.3953   18.2359  -25.1948 C.ar    1  UNL1       -0.0000
      9 C          48.5149   14.9410  -25.3861 C.ar    1  UNL1       -0.0017
     10 C          49.3628   14.2413  -26.2575 C.ar    1  UNL1        0.0029
     11 C          50.3371   13.3754  -25.7619 C.ar    1  UNL1        0.0369
     12 C          50.4818   13.1892  -24.3771 C.ar    1  UNL1        0.1384
     13 C          49.6097   13.8500  -23.5067 C.ar    1  UNL1        0.0350
     14 C          48.6180   14.7200  -23.9895 C.ar    1  UNL1        0.0100
     15 C          47.6929   15.3665  -22.9877 C.3     1  UNL1        0.1637
     16 O          48.3931   16.3416  -22.2674 O.3     1  UNL1       -0.3772
     17 H          47.7406   16.7399  -21.6347 H       1  UNL1        0.2109
     18 O          51.4587   12.3490  -23.8187 O.3     1  UNL1       -0.4740
     19 C          52.5649   11.7691  -24.5132 C.3     1  UNL1        0.2226
     20 C          52.3783   10.2552  -24.6716 C.3     1  UNL1        0.1201
     21 N          50.9527    9.9135  -24.8657 N.3     1  UNL1       -0.2672
     22 C          50.6932    9.5401  -26.2646 C.3     1  UNL1        0.0898
     23 C          50.5486    8.8103  -23.9768 C.3     1  UNL1        0.0898
     24 C          45.8407   14.0333  -26.0991 C.ar    1  UNL1       -0.0040
     25 C          44.9940   13.7722  -25.0062 C.ar    1  UNL1       -0.0003
     26 C          44.5616   12.4695  -24.7422 C.ar    1  UNL1       -0.0000
     27 C          44.9602   11.4179  -25.5701 C.ar    1  UNL1       -0.0000
     28 C          45.7829   11.6691  -26.6705 C.ar    1  UNL1       -0.0000
     29 C          46.2146   12.9711  -26.9409 C.ar    1  UNL1       -0.0003
     30 C          45.4269   16.0586  -28.6757 C.3     1  UNL1        0.0050
     31 C          45.3398   16.3117  -27.1707 C.3     1  UNL1        0.0264
@<TRIPOS>BOND
     1    30    31    1
     2    31     1    1
     3     1     2    2
     4     2     3    1
     5     3     4   ar
     6     4     5   ar
     7     5     6   ar
     8     6     7   ar
     9     7     8   ar
    10     2     9    1
    11     9    10   ar
    12    10    11   ar
    13    11    12   ar
    14    12    18    1
    15    18    19    1
    16    19    20    1
    17    20    21    1
    18    21    22    1
    19    21    23    1
    20    12    13   ar
    21    13    14   ar
    22    14    15    1
    23    15    16    1
    24     1    24    1
    25    24    25   ar
    26    25    26   ar
    27    26    27   ar
    28    27    28   ar
    29    28    29   ar
    30     8     3   ar
    31    14     9   ar
    32    29    24   ar
    33    16    17    1
@<TRIPOS>MOLECULE
*****
 31 33 0 0 0
SMALL
GASTEIGER

@<TRIPOS>ATOM
      1 C          46.9995   14.9764  -26.4093 C.2     1  UNL1       -0.0222
      2 C          48.0311   15.3615  -25.6062 C.2     1  UNL1       -0.0042
      3 C          48.8438   16.5674  -25.8856 C.ar    1  UNL1       -0.0003
      4 C          48.3486   17.8465  -25.5822 C.ar    1  UNL1       -0.0000
      5 C          49.1363   18.9787  -25.8116 C.ar    1  UNL1       -0.0000
      6 C          50.4277   18.8405  -26.3277 C.ar    1  UNL1       -0.0000
      7 C          50.9365   17.5692  -26.6074 C.ar    1  UNL1       -0.0000
      8 C          50.1521   16.4347  -26.3790 C.ar    1  UNL1       -0.0000
      9 C          48.4037   14.5894  -24.3942 C.ar    1  UNL1       -0.0017
     10 C          47.9452   15.0481  -23.1504 C.ar    1  UNL1        0.0029
     11 C          48.2462   14.3536  -21.9791 C.ar    1  UNL1        0.0369
     12 C          49.0184   13.1812  -22.0289 C.ar    1  UNL1        0.1384
     13 C          49.5150   12.7451  -23.2610 C.ar    1  UNL1        0.0350
     14 C          49.2274   13.4369  -24.4494 C.ar    1  UNL1        0.0100
     15 C          49.8313   12.9226  -25.7332 C.3     1  UNL1        0.1637
     16 O          51.2241   13.0538  -25.6791 O.3     1  UNL1       -0.3772
     17 H          51.5692   12.6939  -26.5371 H       1  UNL1        0.2109
     18 O          49.3342   12.4272  -20.8871 O.3     1  UNL1       -0.4740
     19 C          50.1682   12.8489  -19.8058 C.3     1  UNL1        0.2226
     20 C          51.2055   13.8728  -20.2825 C.3     1  UNL1        0.1201
     21 N          52.3859   13.2001  -20.8664 N.3     1  UNL1       -0.2672
     22 C          52.8027   13.8673  -22.1094 C.3     1  UNL1        0.0898
     23 C          53.5095   13.1842  -19.9136 C.3     1  UNL1        0.0898
     24 C          46.0870   13.8707  -26.0067 C.ar    1  UNL1       -0.0040
     25 C          46.1874   12.6069  -26.6167 C.ar    1  UNL1       -0.0003
     26 C          45.3389   11.5657  -26.2300 C.ar    1  UNL1       -0.0000
     27 C          44.3903   11.7713  -25.2259 C.ar    1  UNL1       -0.0000
     28 C          44.2966   13.0157  -24.5985 C.ar    1  UNL1       -0.0000
     29 C          45.1461   14.0589  -24.9791 C.ar    1  UNL1       -0.0003
     30 C          45.3079   16.1692  -27.8581 C.3     1  UNL1        0.0050
     31 C          46.7374   15.6384  -27.7510 C.3     1  UNL1        0.0264
@<TRIPOS>BOND
     1    30    31    1
     2    31     1    1
     3     1     2    2
     4     2     3    1
     5     3     4   ar
     6     4     5   ar
     7     5     6   ar
     8     6     7   ar
     9     7     8   ar
    10     2     9    1
    11     9    10   ar
    12    10    11   ar
    13    11    12   ar
    14    12    18    1
    15    18    19    1
    16    19    20    1
    17    20    21    1
    18    21    22    1
    19    21    23    1
    20    12    13   ar
    21    13    14   ar
    22    14    15    1
    23    15    16    1
    24     1    24    1
    25    24    25   ar
    26    25    26   ar
    27    26    27   ar
    28    27    28   ar
    29    28    29   ar
    30     8     3   ar
    31    14     9   ar
    32    29    24   ar
    33    16    17    1
@<TRIPOS>MOLECULE
*****
 31 33 0 0 0
SMALL
GASTEIGER

@<TRIPOS>ATOM
      1 C          49.0418   13.4841  -23.6466 C.2     1  UNL1       -0.0222
      2 C          49.4950   12.2015  -23.7299 C.2     1  UNL1       -0.0042
      3 C          49.1548   11.1749  -22.7184 C.ar    1  UNL1       -0.0003
      4 C          50.0925   10.7976  -21.7427 C.ar    1  UNL1       -0.0000
      5 C          49.7520    9.8567  -20.7662 C.ar    1  UNL1       -0.0000
      6 C          48.4701    9.3005  -20.7465 C.ar    1  UNL1       -0.0000
      7 C          47.5239    9.6906  -21.6983 C.ar    1  UNL1       -0.0000
      8 C          47.8604   10.6315  -22.6761 C.ar    1  UNL1       -0.0000
      9 C          50.3628   11.7540  -24.8482 C.ar    1  UNL1       -0.0017
     10 C          49.7738   11.0254  -25.8923 C.ar    1  UNL1        0.0029
     11 C          50.5342   10.5956  -26.9793 C.ar    1  UNL1        0.0369
     12 C          51.9073   10.8855  -27.0427 C.ar    1  UNL1        0.1384
     13 C          52.5075   11.5724  -25.9831 C.ar    1  UNL1        0.0350
     14 C          51.7576   12.0061  -24.8772 C.ar    1  UNL1        0.0100
     15 C          52.4862   12.7088  -23.7580 C.3     1  UNL1        0.1637
     16 O          53.6738   12.0247  -23.4724 O.3     1  UNL1       -0.3772
     17 H          54.1158   12.5308  -22.7422 H       1  UNL1        0.2109
     18 O          52.7190   10.4994  -28.1216 O.3     1  UNL1       -0.4740
     19 C          52.6863    9.2355  -28.7878 C.3     1  UNL1        0.2226
     20 C          53.7731    9.1578  -29.8668 C.3     1  UNL1        0.1201
     21 N          54.8748    8.2649  -29.4472 N.3     1  UNL1       -0.2672
     22 C          54.6449    6.8939  -29.9283 C.3     1  UNL1        0.0898
     23 C          56.1707    8.7537  -29.9492 C.3     1  UNL1        0.0898
     24 C          49.2458   14.4428  -24.7677 C.ar    1  UNL1       -0.0040
     25 C          50.3397   15.3276  -24.7577 C.ar    1  UNL1       -0.0003
     26 C          50.5378   16.2190  -25.8159 C.ar    1  UNL1       -0.0000
     27 C          49.6543   16.2297  -26.8974 C.ar    1  UNL1       -0.0000
     28 C          48.5774   15.3407  -26.9278 C.ar    1  UNL1       -0.0000
     29 C          48.3777   14.4445  -25.8736 C.ar    1  UNL1       -0.0003
     30 C          49.3013   14.5357  -21.3641 C.3     1  UNL1        0.0050
     31 C          48.3246   14.0028  -22.4122 C.3     1  UNL1        0.0264
@<TRIPOS>BOND
     1    30    31    1
     2    31     1    1
     3     1     2    2
     4     2     3    1
     5     3     4   ar
     6     4     5   ar
     7     5     6   ar
     8     6     7   ar
     9     7     8   ar
    10     2     9    1
    11     9    10   ar
    12    10    11   ar
    13    11    12   ar
    14    12    18    1
    15    18    19    1
    16    19    20    1
    17    20    21    1
    18    21    22    1
    19    21    23    1
    20    12    13   ar
    21    13    14   ar
    22    14    15    1
    23    15    16    1
    24     1    24    1
    25    24    25   ar
    26    25    26   ar
    27    26    27   ar
    28    27    28   ar
    29    28    29   ar
    30     8     3   ar
    31    14     9   ar
    32    29    24   ar
    33    16    17    1
