@<TRIPOS>MOLECULE
*****
 41 45 0 0 0
SMALL
GASTEIGER

@<TRIPOS>ATOM
      1 C         -26.5312   49.5876   -7.3925 C.ar    1  UNL1        0.0888
      2 C         -25.2165   50.0869   -7.6038 C.ar    1  UNL1        0.0282
      3 C         -24.9274   50.6967   -8.8334 C.ar    1  UNL1        0.0997
      4 N         -23.7593   51.2268   -9.2381 N.ar    1  UNL1       -0.2137
      5 C         -24.0496   51.6608  -10.4946 C.ar    1  UNL1        0.1984
      6 N         -25.3270   51.4140  -10.8857 N.ar    1  UNL1       -0.3255
      7 C         -25.8637   50.8108   -9.8201 C.ar    1  UNL1        0.0755
      8 C         -27.1484   50.3192   -9.6397 C.ar    1  UNL1        0.0325
      9 C         -27.4684   49.7160   -8.4493 C.ar    1  UNL1        0.1401
     10 O         -28.7696   49.2582   -8.4721 O.3     1  UNL1       -0.4824
     11 C         -29.3957   49.5576   -9.7237 C.3     1  UNL1        0.1375
     12 C         -29.8290   48.2468  -10.3934 C.3     1  UNL1        0.0439
     13 C         -30.6119   50.4589   -9.4734 C.3     1  UNL1        0.0439
     14 C         -28.3048   50.2959  -10.5700 C.3     1  UNL1        0.0709
     15 H         -25.7843   51.6250  -11.8004 H       1  UNL1        0.1686
     16 N         -27.5563   49.6514   -5.0773 N.am    1  UNL1       -0.2808
     17 C         -26.8876   48.9263   -6.1194 C.2     1  UNL1        0.2525
     18 O         -26.5802   47.7160   -5.9398 O.2     1  UNL1       -0.2697
     19 H         -27.4260   50.6861   -5.0210 H       1  UNL1        0.1552
     20 C         -26.0076   49.0510   -2.7101 C.3     1  UNL1        0.0323
     21 C         -27.4640   48.6857   -2.8139 C.ar    1  UNL1       -0.0087
     22 C         -28.0952   48.0395   -1.7400 C.ar    1  UNL1        0.0008
     23 C         -29.4527   47.6924   -1.8066 C.ar    1  UNL1        0.0709
     24 C         -30.1738   47.9752   -2.9762 C.ar    1  UNL1        0.0008
     25 C         -29.5706   48.6474   -4.0500 C.ar    1  UNL1       -0.0087
     26 C         -30.3972   48.9767   -5.2651 C.3     1  UNL1        0.0323
     27 C         -28.1998   48.9852   -3.9798 C.ar    1  UNL1        0.0425
     28 C         -30.1040   46.9401   -0.6722 C.3     1  UNL1        0.4186
     29 F         -31.3918   46.5615   -1.0108 F       1  UNL1       -0.1659
     30 F         -30.1530   47.7539    0.4440 F       1  UNL1       -0.1659
     31 F         -29.3856   45.7971   -0.3657 F       1  UNL1       -0.1659
     32 N         -23.0708   52.2880  -11.3324 N.pl3   1  UNL1       -0.2816
     33 H         -23.3477   52.5377  -12.3084 H       1  UNL1        0.1551
     34 C         -21.8173   52.7735  -10.8328 C.ar    1  UNL1        0.0889
     35 C         -20.7336   51.8882  -10.7188 C.ar    1  UNL1        0.1543
     36 F         -20.8673   50.5922  -11.0971 F       1  UNL1       -0.2028
     37 C         -19.5028   52.3398  -10.2336 C.ar    1  UNL1        0.0310
     38 C         -19.3488   53.6723   -9.8456 C.ar    1  UNL1        0.0033
     39 C         -20.4282   54.5549   -9.9310 C.ar    1  UNL1        0.0128
     40 C         -21.6653   54.1130  -10.4155 C.ar    1  UNL1        0.0733
     41 CL        -23.0170   55.2395  -10.4250 Cl      1  UNL1       -0.0809
@<TRIPOS>BOND
     1    20    21    1
     2    21    22   ar
     3    22    23   ar
     4    23    28    1
     5    28    29    1
     6    28    30    1
     7    28    31    1
     8    23    24   ar
     9    24    25   ar
    10    25    26    1
    11    25    27   ar
    12    27    16    1
    13    16    17   am
    14    17    18    2
    15    17     1    1
    16     1     2   ar
    17     2     3   ar
    18     3     4   ar
    19     4     5   ar
    20     5    32    1
    21    32    34    1
    22    34    35   ar
    23    35    36    1
    24    35    37   ar
    25    37    38   ar
    26    38    39   ar
    27    39    40   ar
    28    40    41    1
    29     5     6   ar
    30     6     7   ar
    31     7     8   ar
    32     8     9   ar
    33     9    10    1
    34    10    11    1
    35    11    12    1
    36    11    13    1
    37    11    14    1
    38    27    21   ar
    39     9     1   ar
    40     7     3   ar
    41    14     8    1
    42    40    34   ar
    43    16    19    1
    44    32    33    1
    45     6    15    1
@<TRIPOS>MOLECULE
*****
 41 45 0 0 0
SMALL
GASTEIGER

@<TRIPOS>ATOM
      1 C         -27.1540   50.6766   -7.1925 C.ar    1  UNL1        0.0888
      2 C         -25.7786   51.0171   -7.3144 C.ar    1  UNL1        0.0282
      3 C         -25.2346   51.1320   -8.6020 C.ar    1  UNL1        0.0997
      4 N         -23.9688   51.4370   -8.9398 N.ar    1  UNL1       -0.2137
      5 C         -24.0071   51.3999  -10.2994 C.ar    1  UNL1        0.1984
      6 N         -25.2231   51.0765  -10.8118 N.ar    1  UNL1       -0.3255
      7 C         -25.9830   50.9179   -9.7234 C.ar    1  UNL1        0.0755
      8 C         -27.3232   50.5724   -9.6270 C.ar    1  UNL1        0.0325
      9 C         -27.8906   50.4506   -8.3833 C.ar    1  UNL1        0.1401
     10 O         -29.2106   50.0640   -8.4884 O.3     1  UNL1       -0.4824
     11 C         -29.5930   49.9156   -9.8595 C.3     1  UNL1        0.1375
     12 C         -30.0433   48.4688  -10.1004 C.3     1  UNL1        0.0439
     13 C         -30.7358   50.8912  -10.1701 C.3     1  UNL1        0.0439
     14 C         -28.3106   50.2586  -10.6897 C.3     1  UNL1        0.0709
     15 H         -25.5029   50.9608  -11.8111 H       1  UNL1        0.1686
     16 N         -28.6388   49.4227   -5.5682 N.am    1  UNL1       -0.2808
     17 C         -27.7764   50.5319   -5.8595 C.2     1  UNL1        0.2525
     18 O         -27.5634   51.4062   -4.9753 O.2     1  UNL1       -0.2697
     19 H         -29.1558   48.9677   -6.3535 H       1  UNL1        0.1552
     20 C         -31.2326   50.2132   -4.5633 C.3     1  UNL1        0.0323
     21 C         -30.2582   49.4431   -3.7132 C.ar    1  UNL1       -0.0087
     22 C         -30.6086   49.0937   -2.4000 C.ar    1  UNL1        0.0008
     23 C         -29.7227   48.3713   -1.5869 C.ar    1  UNL1        0.0709
     24 C         -28.4621   48.0209   -2.0927 C.ar    1  UNL1        0.0008
     25 C         -28.1027   48.3337   -3.4125 C.ar    1  UNL1       -0.0087
     26 C         -26.7590   47.8920   -3.9298 C.3     1  UNL1        0.0323
     27 C         -28.9964   49.0704   -4.2227 C.ar    1  UNL1        0.0425
     28 C         -30.0844   48.0578   -0.1558 C.3     1  UNL1        0.4186
     29 F         -29.9651   46.7015    0.0939 F       1  UNL1       -0.1659
     30 F         -31.3903   48.4454    0.0784 F       1  UNL1       -0.1659
     31 F         -29.2502   48.7319    0.7195 F       1  UNL1       -0.1659
     32 N         -22.8474   51.6465  -11.1043 N.pl3   1  UNL1       -0.2816
     33 H         -22.8161   51.2280  -12.0611 H       1  UNL1        0.1551
     34 C         -21.8401   52.6011  -10.7430 C.ar    1  UNL1        0.0889
     35 C         -22.2099   53.9352  -10.5091 C.ar    1  UNL1        0.1543
     36 F         -23.5101   54.3107  -10.6043 F       1  UNL1       -0.2028
     37 C         -21.2443   54.8826  -10.1564 C.ar    1  UNL1        0.0310
     38 C         -19.9030   54.5096  -10.0492 C.ar    1  UNL1        0.0033
     39 C         -19.5212   53.1905  -10.3051 C.ar    1  UNL1        0.0128
     40 C         -20.4802   52.2336  -10.6589 C.ar    1  UNL1        0.0733
     41 CL        -19.9401   50.6061  -11.0535 Cl      1  UNL1       -0.0809
@<TRIPOS>BOND
     1    20    21    1
     2    21    22   ar
     3    22    23   ar
     4    23    28    1
     5    28    29    1
     6    28    30    1
     7    28    31    1
     8    23    24   ar
     9    24    25   ar
    10    25    26    1
    11    25    27   ar
    12    27    16    1
    13    16    17   am
    14    17    18    2
    15    17     1    1
    16     1     2   ar
    17     2     3   ar
    18     3     4   ar
    19     4     5   ar
    20     5    32    1
    21    32    34    1
    22    34    35   ar
    23    35    36    1
    24    35    37   ar
    25    37    38   ar
    26    38    39   ar
    27    39    40   ar
    28    40    41    1
    29     5     6   ar
    30     6     7   ar
    31     7     8   ar
    32     8     9   ar
    33     9    10    1
    34    10    11    1
    35    11    12    1
    36    11    13    1
    37    11    14    1
    38    27    21   ar
    39     9     1   ar
    40     7     3   ar
    41    14     8    1
    42    40    34   ar
    43    16    19    1
    44    32    33    1
    45     6    15    1
@<TRIPOS>MOLECULE
*****
 41 45 0 0 0
SMALL
GASTEIGER

@<TRIPOS>ATOM
      1 C         -26.0420   49.9613   -7.3580 C.ar    1  UNL1        0.0888
      2 C         -24.6634   50.2937   -7.2502 C.ar    1  UNL1        0.0282
      3 C         -24.0631   50.9888   -8.3103 C.ar    1  UNL1        0.0997
      4 N         -22.7844   51.3930   -8.4140 N.ar    1  UNL1       -0.2137
      5 C         -22.7622   51.9984   -9.6324 C.ar    1  UNL1        0.1984
      6 N         -23.9534   51.9756  -10.2852 N.ar    1  UNL1       -0.3255
      7 C         -24.7605   51.3393   -9.4302 C.ar    1  UNL1        0.0755
      8 C         -26.1027   51.0138   -9.5613 C.ar    1  UNL1        0.0325
      9 C         -26.7244   50.3336   -8.5442 C.ar    1  UNL1        0.1401
     10 O         -28.0375   50.0661   -8.8716 O.3     1  UNL1       -0.4824
     11 C         -28.3583   50.5849  -10.1662 C.3     1  UNL1        0.1375
     12 C         -28.7937   49.4285  -11.0758 C.3     1  UNL1        0.0439
     13 C         -29.4887   51.6132  -10.0286 C.3     1  UNL1        0.0439
     14 C         -27.0413   51.2533  -10.6859 C.3     1  UNL1        0.0709
     15 H         -24.1884   52.3471  -11.2323 H       1  UNL1        0.1686
     16 N         -27.0487   49.8654   -5.0358 N.am    1  UNL1       -0.2808
     17 C         -26.7224   49.2200   -6.2751 C.2     1  UNL1        0.2525
     18 O         -26.9995   47.9997   -6.4354 O.2     1  UNL1       -0.2697
     19 H         -26.4719   50.6788   -4.7251 H       1  UNL1        0.1552
     20 C         -26.0203   48.4046   -2.7618 C.3     1  UNL1        0.0323
     21 C         -27.4985   48.5799   -2.9841 C.ar    1  UNL1       -0.0087
     22 C         -28.4079   48.0263   -2.0700 C.ar    1  UNL1        0.0008
     23 C         -29.7909   48.1787   -2.2489 C.ar    1  UNL1        0.0709
     24 C         -30.2621   48.8727   -3.3733 C.ar    1  UNL1        0.0008
     25 C         -29.3704   49.4599   -4.2837 C.ar    1  UNL1       -0.0087
     26 C         -29.9211   50.2402   -5.4483 C.3     1  UNL1        0.0323
     27 C         -27.9785   49.2938   -4.1025 C.ar    1  UNL1        0.0425
     28 C         -30.7599   47.5241   -1.2952 C.3     1  UNL1        0.4186
     29 F         -30.0824   46.8157   -0.3178 F       1  UNL1       -0.1659
     30 F         -31.5731   46.6554   -1.9986 F       1  UNL1       -0.1659
     31 F         -31.5493   48.4739   -0.6698 F       1  UNL1       -0.1659
     32 N         -21.5686   52.5721  -10.1798 N.pl3   1  UNL1       -0.2816
     33 H         -21.3204   52.3388  -11.1675 H       1  UNL1        0.1551
     34 C         -20.8266   53.6031   -9.5144 C.ar    1  UNL1        0.0889
     35 C         -21.1162   54.9481   -9.7943 C.ar    1  UNL1        0.1543
     36 F         -22.1021   55.2669  -10.6702 F       1  UNL1       -0.2028
     37 C         -20.4049   55.9693   -9.1577 C.ar    1  UNL1        0.0310
     38 C         -19.3913   55.6564   -8.2498 C.ar    1  UNL1        0.0033
     39 C         -19.0780   54.3214   -7.9837 C.ar    1  UNL1        0.0128
     40 C         -19.7843   53.2908   -8.6158 C.ar    1  UNL1        0.0733
     41 CL        -19.2974   51.6272   -8.3128 Cl      1  UNL1       -0.0809
@<TRIPOS>BOND
     1    20    21    1
     2    21    22   ar
     3    22    23   ar
     4    23    28    1
     5    28    29    1
     6    28    30    1
     7    28    31    1
     8    23    24   ar
     9    24    25   ar
    10    25    26    1
    11    25    27   ar
    12    27    16    1
    13    16    17   am
    14    17    18    2
    15    17     1    1
    16     1     2   ar
    17     2     3   ar
    18     3     4   ar
    19     4     5   ar
    20     5    32    1
    21    32    34    1
    22    34    35   ar
    23    35    36    1
    24    35    37   ar
    25    37    38   ar
    26    38    39   ar
    27    39    40   ar
    28    40    41    1
    29     5     6   ar
    30     6     7   ar
    31     7     8   ar
    32     8     9   ar
    33     9    10    1
    34    10    11    1
    35    11    12    1
    36    11    13    1
    37    11    14    1
    38    27    21   ar
    39     9     1   ar
    40     7     3   ar
    41    14     8    1
    42    40    34   ar
    43    16    19    1
    44    32    33    1
    45     6    15    1
@<TRIPOS>MOLECULE
*****
 41 45 0 0 0
SMALL
GASTEIGER

@<TRIPOS>ATOM
      1 C         -28.8744   48.5370   -3.7771 C.ar    1  UNL1        0.0888
      2 C         -29.8290   49.1479   -2.9181 C.ar    1  UNL1        0.0282
      3 C         -30.0995   48.5370   -1.6849 C.ar    1  UNL1        0.0997
      4 N         -30.9612   48.9409   -0.7342 N.ar    1  UNL1       -0.2137
      5 C         -30.8200   47.9825    0.2212 C.ar    1  UNL1        0.1984
      6 N         -29.9291   47.0077   -0.0979 N.ar    1  UNL1       -0.3255
      7 C         -29.4828   47.3811   -1.3014 C.ar    1  UNL1        0.0755
      8 C         -28.5579   46.7618   -2.1295 C.ar    1  UNL1        0.0325
      9 C         -28.2674   47.3304   -3.3443 C.ar    1  UNL1        0.1401
     10 O         -27.3623   46.5547   -4.0386 O.3     1  UNL1       -0.4824
     11 C         -26.9923   45.3981   -3.2814 C.3     1  UNL1        0.1375
     12 C         -27.3743   44.1391   -4.0708 C.3     1  UNL1        0.0439
     13 C         -25.4803   45.4302   -3.0228 C.3     1  UNL1        0.0439
     14 C         -27.8006   45.4988   -1.9442 C.3     1  UNL1        0.0709
     15 H         -29.6626   46.1594    0.4495 H       1  UNL1        0.1686
     16 N         -27.2873   49.7526   -5.3322 N.am    1  UNL1       -0.2808
     17 C         -28.5588   49.1324   -5.0928 C.2     1  UNL1        0.2525
     18 O         -29.4267   49.1135   -6.0083 O.2     1  UNL1       -0.2697
     19 H         -26.7641   50.1560   -4.5233 H       1  UNL1        0.1552
     20 C         -25.9719   47.6663   -6.8422 C.3     1  UNL1        0.0323
     21 C         -26.1810   49.0425   -7.4146 C.ar    1  UNL1       -0.0087
     22 C         -25.7319   49.3294   -8.7127 C.ar    1  UNL1        0.0008
     23 C         -25.9182   50.6014   -9.2739 C.ar    1  UNL1        0.0709
     24 C         -26.5391   51.6010   -8.5102 C.ar    1  UNL1        0.0008
     25 C         -27.0226   51.3277   -7.2216 C.ar    1  UNL1       -0.0087
     26 C         -27.7290   52.4169   -6.4582 C.3     1  UNL1        0.0323
     27 C         -26.8224   50.0465   -6.6588 C.ar    1  UNL1        0.0425
     28 C         -25.3736   50.9172  -10.6453 C.3     1  UNL1        0.4186
     29 F         -24.2040   51.6516  -10.5509 F       1  UNL1       -0.1659
     30 F         -26.3104   51.6511  -11.3485 F       1  UNL1       -0.1659
     31 F         -25.0965   49.7537  -11.3424 F       1  UNL1       -0.1659
     32 N         -31.5801   47.9956    1.4360 N.pl3   1  UNL1       -0.2816
     33 H         -32.3864   47.3363    1.5175 H       1  UNL1        0.1551
     34 C         -31.1608   48.7098    2.6067 C.ar    1  UNL1        0.0889
     35 C         -30.8502   47.9940    3.7739 C.ar    1  UNL1        0.1543
     36 F         -30.9269   46.6395    3.7857 F       1  UNL1       -0.2028
     37 C         -30.4400   48.6699    4.9268 C.ar    1  UNL1        0.0310
     38 C         -30.3512   50.0634    4.9279 C.ar    1  UNL1        0.0033
     39 C         -30.6827   50.7864    3.7796 C.ar    1  UNL1        0.0128
     40 C         -31.0946   50.1194    2.6195 C.ar    1  UNL1        0.0733
     41 CL        -31.5823   51.0768    1.2259 Cl      1  UNL1       -0.0809
@<TRIPOS>BOND
     1    20    21    1
     2    21    22   ar
     3    22    23   ar
     4    23    28    1
     5    28    29    1
     6    28    30    1
     7    28    31    1
     8    23    24   ar
     9    24    25   ar
    10    25    26    1
    11    25    27   ar
    12    27    16    1
    13    16    17   am
    14    17    18    2
    15    17     1    1
    16     1     2   ar
    17     2     3   ar
    18     3     4   ar
    19     4     5   ar
    20     5    32    1
    21    32    34    1
    22    34    35   ar
    23    35    36    1
    24    35    37   ar
    25    37    38   ar
    26    38    39   ar
    27    39    40   ar
    28    40    41    1
    29     5     6   ar
    30     6     7   ar
    31     7     8   ar
    32     8     9   ar
    33     9    10    1
    34    10    11    1
    35    11    12    1
    36    11    13    1
    37    11    14    1
    38    27    21   ar
    39     9     1   ar
    40     7     3   ar
    41    14     8    1
    42    40    34   ar
    43    16    19    1
    44    32    33    1
    45     6    15    1
@<TRIPOS>MOLECULE
*****
 41 45 0 0 0
SMALL
GASTEIGER

@<TRIPOS>ATOM
      1 C         -28.6590   48.4308   -3.6653 C.ar    1  UNL1        0.0888
      2 C         -29.6865   48.9460   -2.8278 C.ar    1  UNL1        0.0282
      3 C         -29.9637   48.2752   -1.6276 C.ar    1  UNL1        0.0997
      4 N         -30.8880   48.5871   -0.7014 N.ar    1  UNL1       -0.2137
      5 C         -30.7201   47.6071    0.2274 C.ar    1  UNL1        0.1984
      6 N         -29.7529   46.7058   -0.0854 N.ar    1  UNL1       -0.3255
      7 C         -29.2854   47.1503   -1.2563 C.ar    1  UNL1        0.0755
      8 C         -28.2883   46.6236   -2.0644 C.ar    1  UNL1        0.0325
      9 C         -27.9890   47.2528   -3.2468 C.ar    1  UNL1        0.1401
     10 O         -27.0063   46.5642   -3.9272 O.3     1  UNL1       -0.4824
     11 C         -26.5889   45.4088   -3.1931 C.3     1  UNL1        0.1375
     12 C         -26.8526   44.1557   -4.0384 C.3     1  UNL1        0.0439
     13 C         -25.0941   45.5325   -2.8702 C.3     1  UNL1        0.0439
     14 C         -27.4547   45.4081   -1.8886 C.3     1  UNL1        0.0709
     15 H         -29.4513   45.8583    0.4449 H       1  UNL1        0.1686
     16 N         -26.9873   49.4920   -5.2445 N.am    1  UNL1       -0.2808
     17 C         -28.3326   49.0919   -4.9465 C.2     1  UNL1        0.2525
     18 O         -29.2524   49.3260   -5.7777 O.2     1  UNL1       -0.2697
     19 H         -26.3398   49.7077   -4.4539 H       1  UNL1        0.1552
     20 C         -27.3055   52.2203   -6.1490 C.3     1  UNL1        0.0323
     21 C         -26.7156   51.1582   -7.0374 C.ar    1  UNL1       -0.0087
     22 C         -26.3053   51.4907   -8.3375 C.ar    1  UNL1        0.0008
     23 C         -25.7469   50.5227   -9.1854 C.ar    1  UNL1        0.0709
     24 C         -25.6256   49.2020   -8.7283 C.ar    1  UNL1        0.0008
     25 C         -26.0017   48.8540   -7.4221 C.ar    1  UNL1       -0.0087
     26 C         -25.8050   47.4351   -6.9569 C.3     1  UNL1        0.0323
     27 C         -26.5727   49.8324   -6.5767 C.ar    1  UNL1        0.0425
     28 C         -25.3694   50.8769  -10.6028 C.3     1  UNL1        0.4186
     29 F         -24.0805   51.3792  -10.6556 F       1  UNL1       -0.1659
     30 F         -26.2452   51.8335  -11.0809 F       1  UNL1       -0.1659
     31 F         -25.4306   49.7611  -11.4198 F       1  UNL1       -0.1659
     32 N         -31.5270   47.5267    1.4089 N.pl3   1  UNL1       -0.2816
     33 H         -32.2870   46.8103    1.4362 H       1  UNL1        0.1551
     34 C         -31.2067   48.2290    2.6174 C.ar    1  UNL1        0.0889
     35 C         -30.8307   49.5800    2.5481 C.ar    1  UNL1        0.1543
     36 F         -30.7913   50.2178    1.3514 F       1  UNL1       -0.2028
     37 C         -30.5136   50.2838    3.7136 C.ar    1  UNL1        0.0310
     38 C         -30.5550   49.6419    4.9529 C.ar    1  UNL1        0.0033
     39 C         -30.9029   48.2913    5.0300 C.ar    1  UNL1        0.0128
     40 C         -31.2224   47.5770    3.8688 C.ar    1  UNL1        0.0733
     41 CL        -31.5720   45.8580    4.0071 Cl      1  UNL1       -0.0809
@<TRIPOS>BOND
     1    20    21    1
     2    21    22   ar
     3    22    23   ar
     4    23    28    1
     5    28    29    1
     6    28    30    1
     7    28    31    1
     8    23    24   ar
     9    24    25   ar
    10    25    26    1
    11    25    27   ar
    12    27    16    1
    13    16    17   am
    14    17    18    2
    15    17     1    1
    16     1     2   ar
    17     2     3   ar
    18     3     4   ar
    19     4     5   ar
    20     5    32    1
    21    32    34    1
    22    34    35   ar
    23    35    36    1
    24    35    37   ar
    25    37    38   ar
    26    38    39   ar
    27    39    40   ar
    28    40    41    1
    29     5     6   ar
    30     6     7   ar
    31     7     8   ar
    32     8     9   ar
    33     9    10    1
    34    10    11    1
    35    11    12    1
    36    11    13    1
    37    11    14    1
    38    27    21   ar
    39     9     1   ar
    40     7     3   ar
    41    14     8    1
    42    40    34   ar
    43    16    19    1
    44    32    33    1
    45     6    15    1
@<TRIPOS>MOLECULE
*****
 41 45 0 0 0
SMALL
GASTEIGER

@<TRIPOS>ATOM
      1 C         -26.4800   50.1844   -7.7642 C.ar    1  UNL1        0.0888
      2 C         -25.1099   50.4647   -7.5060 C.ar    1  UNL1        0.0282
      3 C         -24.3724   51.1368   -8.4916 C.ar    1  UNL1        0.0997
      4 N         -23.0758   51.4928   -8.4542 N.ar    1  UNL1       -0.2137
      5 C         -22.8988   52.0970   -9.6604 C.ar    1  UNL1        0.1984
      6 N         -24.0120   52.1190  -10.4388 N.ar    1  UNL1       -0.3255
      7 C         -24.9304   51.5135   -9.6792 C.ar    1  UNL1        0.0755
      8 C         -26.2616   51.2386   -9.9566 C.ar    1  UNL1        0.0325
      9 C         -27.0151   50.5822   -9.0160 C.ar    1  UNL1        0.1401
     10 O         -28.2939   50.3642   -9.4852 O.3     1  UNL1       -0.4824
     11 C         -28.4526   50.8949  -10.8047 C.3     1  UNL1        0.1375
     12 C         -28.8294   49.7557  -11.7610 C.3     1  UNL1        0.0439
     13 C         -29.5520   51.9649  -10.7863 C.3     1  UNL1        0.0439
     14 C         -27.0628   51.5133  -11.1755 C.3     1  UNL1        0.0709
     15 H         -24.1286   52.4992  -11.4043 H       1  UNL1        0.1686
     16 N         -26.7163   48.4795   -5.9061 N.am    1  UNL1       -0.2808
     17 C         -27.3014   49.4690   -6.7647 C.2     1  UNL1        0.2525
     18 O         -28.5356   49.7169   -6.6816 O.2     1  UNL1       -0.2697
     19 H         -25.8672   47.9674   -6.2341 H       1  UNL1        0.1552
     20 C         -28.5061   46.2195   -6.1340 C.3     1  UNL1        0.0323
     21 C         -28.2599   46.9011   -4.8149 C.ar    1  UNL1       -0.0087
     22 C         -28.9086   46.4347   -3.6614 C.ar    1  UNL1        0.0008
     23 C         -28.6937   47.0469   -2.4177 C.ar    1  UNL1        0.0709
     24 C         -27.8379   48.1558   -2.3406 C.ar    1  UNL1        0.0008
     25 C         -27.1559   48.6201   -3.4755 C.ar    1  UNL1       -0.0087
     26 C         -26.2069   49.7811   -3.3356 C.3     1  UNL1        0.0323
     27 C         -27.3850   48.0045   -4.7272 C.ar    1  UNL1        0.0425
     28 C         -29.4462   46.5779   -1.1966 C.3     1  UNL1        0.4186
     29 F         -30.7179   46.1511   -1.5387 F       1  UNL1       -0.1659
     30 F         -29.5489   47.6223   -0.2970 F       1  UNL1       -0.1659
     31 F         -28.7866   45.5231   -0.5896 F       1  UNL1       -0.1659
     32 N         -21.6322   52.6255  -10.0726 N.pl3   1  UNL1       -0.2816
     33 H         -21.6299   53.4469  -10.7184 H       1  UNL1        0.1551
     34 C         -20.3912   52.2190   -9.4802 C.ar    1  UNL1        0.0889
     35 C         -20.1571   52.4881   -8.1223 C.ar    1  UNL1        0.1543
     36 F         -21.1048   53.1081   -7.3752 F       1  UNL1       -0.2028
     37 C         -18.9540   52.1013   -7.5244 C.ar    1  UNL1        0.0310
     38 C         -17.9717   51.4574   -8.2794 C.ar    1  UNL1        0.0033
     39 C         -18.1843   51.2081   -9.6373 C.ar    1  UNL1        0.0128
     40 C         -19.3857   51.5913  -10.2460 C.ar    1  UNL1        0.0733
     41 CL        -19.5730   51.3320  -11.9763 Cl      1  UNL1       -0.0809
@<TRIPOS>BOND
     1    20    21    1
     2    21    22   ar
     3    22    23   ar
     4    23    28    1
     5    28    29    1
     6    28    30    1
     7    28    31    1
     8    23    24   ar
     9    24    25   ar
    10    25    26    1
    11    25    27   ar
    12    27    16    1
    13    16    17   am
    14    17    18    2
    15    17     1    1
    16     1     2   ar
    17     2     3   ar
    18     3     4   ar
    19     4     5   ar
    20     5    32    1
    21    32    34    1
    22    34    35   ar
    23    35    36    1
    24    35    37   ar
    25    37    38   ar
    26    38    39   ar
    27    39    40   ar
    28    40    41    1
    29     5     6   ar
    30     6     7   ar
    31     7     8   ar
    32     8     9   ar
    33     9    10    1
    34    10    11    1
    35    11    12    1
    36    11    13    1
    37    11    14    1
    38    27    21   ar
    39     9     1   ar
    40     7     3   ar
    41    14     8    1
    42    40    34   ar
    43    16    19    1
    44    32    33    1
    45     6    15    1
@<TRIPOS>MOLECULE
*****
 41 45 0 0 0
SMALL
GASTEIGER

@<TRIPOS>ATOM
      1 C         -28.1677   48.2263   -8.4458 C.ar    1  UNL1        0.0888
      2 C         -28.2092   48.1306   -7.0275 C.ar    1  UNL1        0.0282
      3 C         -29.3740   47.6275   -6.4297 C.ar    1  UNL1        0.0997
      4 N         -29.6230   47.4590   -5.1186 N.ar    1  UNL1       -0.2137
      5 C         -30.8870   46.9554   -5.1187 C.ar    1  UNL1        0.1984
      6 N         -31.4298   46.8185   -6.3566 N.ar    1  UNL1       -0.3255
      7 C         -30.4557   47.2427   -7.1681 C.ar    1  UNL1        0.0755
      8 C         -30.4412   47.3397   -8.5519 C.ar    1  UNL1        0.0325
      9 C         -29.3186   47.8275   -9.1726 C.ar    1  UNL1        0.1401
     10 O         -29.5064   47.8866  -10.5379 O.3     1  UNL1       -0.4824
     11 C         -30.8088   47.4141  -10.8965 C.3     1  UNL1        0.1375
     12 C         -31.5726   48.5399  -11.6061 C.3     1  UNL1        0.0439
     13 C         -30.6645   46.1987  -11.8216 C.3     1  UNL1        0.0439
     14 C         -31.4971   47.0226   -9.5458 C.3     1  UNL1        0.0709
     15 H         -32.3819   46.4807   -6.6205 H       1  UNL1        0.1686
     16 N         -26.8142   50.1690   -9.3452 N.am    1  UNL1       -0.2808
     17 C         -26.9693   48.7593   -9.1277 C.2     1  UNL1        0.2525
     18 O         -26.0835   47.9623   -9.5421 O.2     1  UNL1       -0.2697
     19 H         -27.6696   50.7641   -9.4169 H       1  UNL1        0.1552
     20 C         -26.3611   50.9488  -12.0929 C.3     1  UNL1        0.0323
     21 C         -25.3082   51.1398  -11.0345 C.ar    1  UNL1       -0.0087
     22 C         -24.0738   51.7111  -11.3794 C.ar    1  UNL1        0.0008
     23 C         -23.0761   51.9063  -10.4128 C.ar    1  UNL1        0.0709
     24 C         -23.3147   51.4977   -9.0922 C.ar    1  UNL1        0.0008
     25 C         -24.5524   50.9518   -8.7192 C.ar    1  UNL1       -0.0087
     26 C         -24.7825   50.5754   -7.2792 C.3     1  UNL1        0.0323
     27 C         -25.5494   50.7490   -9.7005 C.ar    1  UNL1        0.0425
     28 C         -21.7297   52.4615  -10.8078 C.3     1  UNL1        0.4186
     29 F         -21.8691   53.4455  -11.7715 F       1  UNL1       -0.1659
     30 F         -20.9486   51.4409  -11.3164 F       1  UNL1       -0.1659
     31 F         -21.0888   53.0176   -9.7140 F       1  UNL1       -0.1659
     32 N         -31.5838   46.6376   -3.9076 N.pl3   1  UNL1       -0.2816
     33 H         -32.4640   46.0792   -3.9799 H       1  UNL1        0.1551
     34 C         -31.0240   46.8646   -2.6071 C.ar    1  UNL1        0.0889
     35 C         -30.8167   48.1822   -2.1685 C.ar    1  UNL1        0.1543
     36 F         -31.1621   49.2283   -2.9604 F       1  UNL1       -0.2028
     37 C         -30.2716   48.4267   -0.9047 C.ar    1  UNL1        0.0310
     38 C         -29.9163   47.3601   -0.0765 C.ar    1  UNL1        0.0033
     39 C         -30.0946   46.0455   -0.5138 C.ar    1  UNL1        0.0128
     40 C         -30.6398   45.7894   -1.7778 C.ar    1  UNL1        0.0733
     41 CL        -30.7667   44.1194   -2.3175 Cl      1  UNL1       -0.0809
@<TRIPOS>BOND
     1    20    21    1
     2    21    22   ar
     3    22    23   ar
     4    23    28    1
     5    28    29    1
     6    28    30    1
     7    28    31    1
     8    23    24   ar
     9    24    25   ar
    10    25    26    1
    11    25    27   ar
    12    27    16    1
    13    16    17   am
    14    17    18    2
    15    17     1    1
    16     1     2   ar
    17     2     3   ar
    18     3     4   ar
    19     4     5   ar
    20     5    32    1
    21    32    34    1
    22    34    35   ar
    23    35    36    1
    24    35    37   ar
    25    37    38   ar
    26    38    39   ar
    27    39    40   ar
    28    40    41    1
    29     5     6   ar
    30     6     7   ar
    31     7     8   ar
    32     8     9   ar
    33     9    10    1
    34    10    11    1
    35    11    12    1
    36    11    13    1
    37    11    14    1
    38    27    21   ar
    39     9     1   ar
    40     7     3   ar
    41    14     8    1
    42    40    34   ar
    43    16    19    1
    44    32    33    1
    45     6    15    1
@<TRIPOS>MOLECULE
*****
 41 45 0 0 0
SMALL
GASTEIGER

@<TRIPOS>ATOM
      1 C         -26.4800   50.1317   -7.7919 C.ar    1  UNL1        0.0888
      2 C         -25.1242   50.4570   -7.5117 C.ar    1  UNL1        0.0282
      3 C         -24.4109   51.2045   -8.4602 C.ar    1  UNL1        0.0997
      4 N         -23.1307   51.6124   -8.3975 N.ar    1  UNL1       -0.2137
      5 C         -22.9735   52.2789   -9.5733 C.ar    1  UNL1        0.1984
      6 N         -24.0828   52.2903  -10.3574 N.ar    1  UNL1       -0.3255
      7 C         -24.9785   51.6121   -9.6329 C.ar    1  UNL1        0.0755
      8 C         -26.2956   51.2948   -9.9318 C.ar    1  UNL1        0.0325
      9 C         -27.0252   50.5644   -9.0276 C.ar    1  UNL1        0.1401
     10 O         -28.2914   50.3149   -9.5151 O.3     1  UNL1       -0.4824
     11 C         -28.4659   50.8992  -10.8098 C.3     1  UNL1        0.1375
     12 C         -28.7896   49.7908  -11.8202 C.3     1  UNL1        0.0439
     13 C         -29.6096   51.9201  -10.7496 C.3     1  UNL1        0.0439
     14 C         -27.1017   51.5919  -11.1422 C.3     1  UNL1        0.0709
     15 H         -24.2107   52.7096  -11.3051 H       1  UNL1        0.1686
     16 N         -26.6490   48.3513   -5.9984 N.am    1  UNL1       -0.2808
     17 C         -27.2752   49.3370   -6.8321 C.2     1  UNL1        0.2525
     18 O         -28.5225   49.5131   -6.7617 O.2     1  UNL1       -0.2697
     19 H         -25.7676   47.8990   -6.3294 H       1  UNL1        0.1552
     20 C         -26.2095   49.5777   -3.4166 C.3     1  UNL1        0.0323
     21 C         -27.1104   48.3831   -3.5796 C.ar    1  UNL1       -0.0087
     22 C         -27.7590   47.8452   -2.4575 C.ar    1  UNL1        0.0008
     23 C         -28.6087   46.7359   -2.5806 C.ar    1  UNL1        0.0709
     24 C         -28.7856   46.1471   -3.8416 C.ar    1  UNL1        0.0008
     25 C         -28.1707   46.6866   -4.9816 C.ar    1  UNL1       -0.0087
     26 C         -28.4306   46.0530   -6.3229 C.3     1  UNL1        0.0323
     27 C         -27.3080   47.7984   -4.8484 C.ar    1  UNL1        0.0425
     28 C         -29.2493   46.1265   -1.3577 C.3     1  UNL1        0.4186
     29 F         -28.3376   45.3515   -0.6617 F       1  UNL1       -0.1659
     30 F         -30.3102   45.3313   -1.7488 F       1  UNL1       -0.1659
     31 F         -29.7154   47.1129   -0.5056 F       1  UNL1       -0.1659
     32 N         -21.7283   52.8786   -9.9520 N.pl3   1  UNL1       -0.2816
     33 H         -21.7443   53.8622  -10.3039 H       1  UNL1        0.1551
     34 C         -20.4584   52.2735   -9.6736 C.ar    1  UNL1        0.0889
     35 C         -19.8799   51.4203  -10.6268 C.ar    1  UNL1        0.1543
     36 F         -20.5078   51.1884  -11.8069 F       1  UNL1       -0.2028
     37 C         -18.6429   50.8192  -10.3759 C.ar    1  UNL1        0.0310
     38 C         -17.9824   51.0529   -9.1682 C.ar    1  UNL1        0.0033
     39 C         -18.5616   51.8796   -8.2026 C.ar    1  UNL1        0.0128
     40 C         -19.8001   52.4867   -8.4437 C.ar    1  UNL1        0.0733
     41 CL        -20.5283   53.4511   -7.1646 Cl      1  UNL1       -0.0809
@<TRIPOS>BOND
     1    20    21    1
     2    21    22   ar
     3    22    23   ar
     4    23    28    1
     5    28    29    1
     6    28    30    1
     7    28    31    1
     8    23    24   ar
     9    24    25   ar
    10    25    26    1
    11    25    27   ar
    12    27    16    1
    13    16    17   am
    14    17    18    2
    15    17     1    1
    16     1     2   ar
    17     2     3   ar
    18     3     4   ar
    19     4     5   ar
    20     5    32    1
    21    32    34    1
    22    34    35   ar
    23    35    36    1
    24    35    37   ar
    25    37    38   ar
    26    38    39   ar
    27    39    40   ar
    28    40    41    1
    29     5     6   ar
    30     6     7   ar
    31     7     8   ar
    32     8     9   ar
    33     9    10    1
    34    10    11    1
    35    11    12    1
    36    11    13    1
    37    11    14    1
    38    27    21   ar
    39     9     1   ar
    40     7     3   ar
    41    14     8    1
    42    40    34   ar
    43    16    19    1
    44    32    33    1
    45     6    15    1
@<TRIPOS>MOLECULE
*****
 41 45 0 0 0
SMALL
GASTEIGER

@<TRIPOS>ATOM
      1 C         -27.4951   51.2968  -10.3128 C.ar    1  UNL1        0.0888
      2 C         -27.7569   51.2902  -11.7106 C.ar    1  UNL1        0.0282
      3 C         -29.0131   50.8462  -12.1488 C.ar    1  UNL1        0.0997
      4 N         -29.4621   50.7555  -13.4135 N.ar    1  UNL1       -0.2137
      5 C         -30.7203   50.2648  -13.2474 C.ar    1  UNL1        0.1984
      6 N         -31.0612   50.0383  -11.9520 N.ar    1  UNL1       -0.3255
      7 C         -29.9717   50.4177  -11.2765 C.ar    1  UNL1        0.0755
      8 C         -29.7326   50.4038   -9.9100 C.ar    1  UNL1        0.0325
      9 C         -28.5147   50.8312   -9.4437 C.ar    1  UNL1        0.1401
     10 O         -28.4502   50.7068   -8.0713 O.3     1  UNL1       -0.4824
     11 C         -29.6729   50.1795   -7.5470 C.3     1  UNL1        0.1375
     12 C         -29.3793   48.8599   -6.8214 C.3     1  UNL1        0.0439
     13 C         -30.2844   51.1995   -6.5776 C.3     1  UNL1        0.0439
     14 C         -30.5965   49.9521   -8.7908 C.3     1  UNL1        0.0709
     15 H         -31.9497   49.6473  -11.5674 H       1  UNL1        0.1686
     16 N         -24.9713   51.1055  -10.2192 N.am    1  UNL1       -0.2808
     17 C         -26.1844   51.7446   -9.7965 C.2     1  UNL1        0.2525
     18 O         -26.1348   52.6857   -8.9576 O.2     1  UNL1       -0.2697
     19 H         -25.0102   50.1103  -10.5337 H       1  UNL1        0.1552
     20 C         -23.6562   50.7026   -7.6754 C.3     1  UNL1        0.0323
     21 C         -23.0216   51.5154   -8.7717 C.ar    1  UNL1       -0.0087
     22 C         -21.7603   52.0944   -8.5646 C.ar    1  UNL1        0.0008
     23 C         -21.1424   52.8521   -9.5705 C.ar    1  UNL1        0.0709
     24 C         -21.8134   53.0502  -10.7864 C.ar    1  UNL1        0.0008
     25 C         -23.0617   52.4559  -11.0259 C.ar    1  UNL1       -0.0087
     26 C         -23.7217   52.6529  -12.3652 C.3     1  UNL1        0.0323
     27 C         -23.6827   51.7020  -10.0041 C.ar    1  UNL1        0.0425
     28 C         -19.8156   53.5234   -9.3134 C.3     1  UNL1        0.4186
     29 F         -19.4269   53.3518   -7.9959 F       1  UNL1       -0.1659
     30 F         -19.9320   54.8755   -9.5758 F       1  UNL1       -0.1659
     31 F         -18.8305   52.9895  -10.1262 F       1  UNL1       -0.1659
     32 N         -31.5836   49.9824  -14.3558 N.pl3   1  UNL1       -0.2816
     33 H         -32.4773   50.5185  -14.4307 H       1  UNL1        0.1551
     34 C         -31.1834   49.1637  -15.4630 C.ar    1  UNL1        0.0889
     35 C         -31.2064   49.7020  -16.7595 C.ar    1  UNL1        0.1543
     36 F         -31.5840   50.9899  -16.9581 F       1  UNL1       -0.2028
     37 C         -30.8210   48.9216  -17.8534 C.ar    1  UNL1        0.0310
     38 C         -30.4248   47.5962  -17.6637 C.ar    1  UNL1        0.0033
     39 C         -30.4231   47.0433  -16.3809 C.ar    1  UNL1        0.0128
     40 C         -30.8071   47.8162  -15.2783 C.ar    1  UNL1        0.0733
     41 CL        -30.8696   47.0515  -13.6947 Cl      1  UNL1       -0.0809
@<TRIPOS>BOND
     1    20    21    1
     2    21    22   ar
     3    22    23   ar
     4    23    28    1
     5    28    29    1
     6    28    30    1
     7    28    31    1
     8    23    24   ar
     9    24    25   ar
    10    25    26    1
    11    25    27   ar
    12    27    16    1
    13    16    17   am
    14    17    18    2
    15    17     1    1
    16     1     2   ar
    17     2     3   ar
    18     3     4   ar
    19     4     5   ar
    20     5    32    1
    21    32    34    1
    22    34    35   ar
    23    35    36    1
    24    35    37   ar
    25    37    38   ar
    26    38    39   ar
    27    39    40   ar
    28    40    41    1
    29     5     6   ar
    30     6     7   ar
    31     7     8   ar
    32     8     9   ar
    33     9    10    1
    34    10    11    1
    35    11    12    1
    36    11    13    1
    37    11    14    1
    38    27    21   ar
    39     9     1   ar
    40     7     3   ar
    41    14     8    1
    42    40    34   ar
    43    16    19    1
    44    32    33    1
    45     6    15    1
