@<TRIPOS>MOLECULE
*****
 43 47 0 0 0
SMALL
GASTEIGER

@<TRIPOS>ATOM
      1 C          48.7824    6.9682  -31.8649 C.3     1  UNL1        0.0323
      2 C          49.3172    7.6197  -30.6185 C.ar    1  UNL1       -0.0083
      3 C          50.5673    7.2260  -30.1151 C.ar    1  UNL1       -0.0018
      4 C          51.0838    7.8107  -28.9577 C.ar    1  UNL1        0.0144
      5 C          50.3617    8.8068  -28.2829 C.ar    1  UNL1        0.0518
      6 C          49.1325    9.2310  -28.8046 C.ar    1  UNL1        0.0290
      7 C          48.5891    8.6330  -29.9556 C.ar    1  UNL1        0.0477
      8 N          50.8860    9.4426  -27.1042 N.am    1  UNL1       -0.2803
      9 C          51.6883   10.6354  -27.1328 C.2     1  UNL1        0.2495
     10 O          52.2768   10.9672  -28.1984 O.2     1  UNL1       -0.2698
     11 H          50.7875    8.9391  -26.1939 H       1  UNL1        0.1552
     12 C          51.8770   11.4541  -25.9106 C.ar    1  UNL1        0.0537
     13 C          53.0387   11.3048  -25.1318 C.ar    1  UNL1        0.0042
     14 C          53.2247   12.0730  -23.9792 C.ar    1  UNL1       -0.0028
     15 C          52.2589   13.0116  -23.5895 C.ar    1  UNL1       -0.0061
     16 C          51.1019   13.1700  -24.3663 C.ar    1  UNL1       -0.0028
     17 C          50.9137   12.4016  -25.5187 C.ar    1  UNL1        0.0042
     18 C          52.4572   13.8188  -22.3330 C.3     1  UNL1        0.0992
     19 N          51.9768   13.0696  -21.1539 N.3     1  UNL1       -0.2665
     20 C          52.6616   13.5471  -19.9368 C.3     1  UNL1        0.0899
     21 C          52.1796   12.7574  -18.7158 C.3     1  UNL1        0.0897
     22 N          50.7202   12.9027  -18.5645 N.3     1  UNL1       -0.2691
     23 C          50.2569   12.1473  -17.3911 C.3     1  UNL1        0.0897
     24 C          50.0341   12.4230  -19.7781 C.3     1  UNL1        0.0897
     25 C          50.5142   13.2148  -20.9978 C.3     1  UNL1        0.0899
     26 N          47.3232    9.0822  -30.4734 N.pl3   1  UNL1       -0.2827
     27 H          46.7129    8.3979  -30.9742 H       1  UNL1        0.1551
     28 C          46.8018   10.4000  -30.2510 C.ar    1  UNL1        0.2208
     29 N          46.3964   11.1500  -31.3079 N.ar    1  UNL1       -0.2070
     30 CA         45.8761   12.3955  -31.1399 C.ar    1  UNL1        0.1608
     31 C          45.7378   12.9092  -29.8411 C.ar    1  UNL1        0.0450
     32 C          46.1638   12.1299  -28.7527 C.ar    1  UNL1        0.0874
     33 N          46.6730   10.8922  -28.9912 N.ar    1  UNL1       -0.2135
     34 C          46.0550   12.6080  -27.3495 C.ar    1  UNL1        0.0370
     35 C          45.6043   11.7703  -26.3123 C.ar    1  UNL1        0.0046
     36 C          45.5007   12.2591  -25.0088 C.ar    1  UNL1        0.0207
     37 C          45.8403   13.5857  -24.7458 C.ar    1  UNL1        0.0989
     38 N          46.2623   14.3918  -25.7542 N.ar    1  UNL1       -0.2423
     39 C          46.3722   13.9420  -27.0327 C.ar    1  UNL1        0.1003
     40 C          45.4438   13.1536  -32.3339 C.2     1  UNL1        0.3561
     41 O          45.9981   14.2535  -32.5968 O.2     1  UNL1       -0.2434
     42 OXT        44.4234   12.7043  -33.1719 O.3     1  UNL1       -0.4761
     43 HXT        43.8649   11.8865  -32.9672 H       1  UNL1        0.2955
@<TRIPOS>BOND
     1     1     2    1
     2     2     3   ar
     3     3     4   ar
     4     4     5   ar
     5     5     8    1
     6     8     9   am
     7     9    10    2
     8     9    12    1
     9    12    13   ar
    10    13    14   ar
    11    14    15   ar
    12    15    18    1
    13    18    19    1
    14    19    20    1
    15    20    21    1
    16    21    22    1
    17    22    23    1
    18    22    24    1
    19    24    25    1
    20    15    16   ar
    21    16    17   ar
    22     5     6   ar
    23     6     7   ar
    24     7    26    1
    25    26    28    1
    26    28    29   ar
    27    29    30   ar
    28    30    40    1
    29    40    41    2
    30    40    42    1
    31    30    31   ar
    32    31    32   ar
    33    32    34    1
    34    34    35   ar
    35    35    36   ar
    36    36    37   ar
    37    37    38   ar
    38    38    39   ar
    39    32    33   ar
    40     7     2   ar
    41    33    28   ar
    42    17    12   ar
    43    39    34   ar
    44    25    19    1
    45     8    11    1
    46    26    27    1
    47    42    43    1
@<TRIPOS>MOLECULE
*****
 43 47 0 0 0
SMALL
GASTEIGER

@<TRIPOS>ATOM
      1 C          45.6565   12.4781  -31.9005 C.3     1  UNL1        0.0323
      2 C          45.9313   12.5617  -30.4236 C.ar    1  UNL1       -0.0083
      3 C          45.7073   13.7711  -29.7466 C.ar    1  UNL1       -0.0018
      4 C          45.9592   13.8768  -28.3778 C.ar    1  UNL1        0.0144
      5 C          46.4353   12.7713  -27.6565 C.ar    1  UNL1        0.0518
      6 C          46.6216   11.5516  -28.3203 C.ar    1  UNL1        0.0290
      7 C          46.3955   11.4381  -29.7036 C.ar    1  UNL1        0.0477
      8 N          46.6760   12.8490  -26.2407 N.am    1  UNL1       -0.2803
      9 C          45.8773   12.1673  -25.2585 C.2     1  UNL1        0.2495
     10 O          44.7164   11.7753  -25.5599 O.2     1  UNL1       -0.2698
     11 H          47.3853   13.5385  -25.9037 H       1  UNL1        0.1552
     12 C          46.3794   11.9649  -23.8778 C.ar    1  UNL1        0.0537
     13 C          45.7243   12.5716  -22.7909 C.ar    1  UNL1        0.0042
     14 C          46.1904   12.3852  -21.4867 C.ar    1  UNL1       -0.0028
     15 C          47.3127   11.5812  -21.2432 C.ar    1  UNL1       -0.0061
     16 C          47.9657   10.9677  -22.3223 C.ar    1  UNL1       -0.0028
     17 C          47.5016   11.1541  -23.6276 C.ar    1  UNL1        0.0042
     18 C          47.8218   11.4046  -19.8363 C.3     1  UNL1        0.0992
     19 N          48.9631   12.3071  -19.5805 N.3     1  UNL1       -0.2665
     20 C          50.1890   11.5197  -19.3455 C.3     1  UNL1        0.0899
     21 C          51.3694   12.4534  -19.0599 C.3     1  UNL1        0.0897
     22 N          51.5701   13.3746  -20.1934 N.3     1  UNL1       -0.2691
     23 C          52.7047   14.2696  -19.9215 C.3     1  UNL1        0.0897
     24 C          50.3475   14.1647  -20.4275 C.3     1  UNL1        0.0897
     25 C          49.1686   13.2309  -20.7159 C.3     1  UNL1        0.0899
     26 N          46.5956   10.1760  -30.3666 N.pl3   1  UNL1       -0.2827
     27 H          45.9380    9.8984  -31.1294 H       1  UNL1        0.1551
     28 C          47.7148    9.3167  -30.1078 C.ar    1  UNL1        0.2208
     29 N          48.0154    8.3222  -30.9821 N.ar    1  UNL1       -0.2070
     30 CA         49.0802    7.4989  -30.7860 C.ar    1  UNL1        0.1608
     31 C          49.8985    7.6951  -29.6627 C.ar    1  UNL1        0.0450
     32 C          49.5788    8.7226  -28.7597 C.ar    1  UNL1        0.0874
     33 N          48.5013    9.5107  -29.0170 N.ar    1  UNL1       -0.2135
     34 C          50.3939    8.9877  -27.5454 C.ar    1  UNL1        0.0370
     35 C          49.9698    8.5877  -26.2644 C.ar    1  UNL1        0.0046
     36 C          50.7552    8.8676  -25.1447 C.ar    1  UNL1        0.0207
     37 C          51.9587    9.5531  -25.3064 C.ar    1  UNL1        0.0989
     38 N          52.3553    9.9470  -26.5442 N.ar    1  UNL1       -0.2423
     39 C          51.6100    9.6880  -27.6515 C.ar    1  UNL1        0.1003
     40 C          49.3572    6.4431  -31.7839 C.2     1  UNL1        0.3561
     41 O          48.5239    5.5117  -31.9398 O.2     1  UNL1       -0.2434
     42 OXT        50.5244    6.4279  -32.5474 O.3     1  UNL1       -0.4761
     43 HXT        51.2827    7.0814  -32.4041 H       1  UNL1        0.2955
@<TRIPOS>BOND
     1     1     2    1
     2     2     3   ar
     3     3     4   ar
     4     4     5   ar
     5     5     8    1
     6     8     9   am
     7     9    10    2
     8     9    12    1
     9    12    13   ar
    10    13    14   ar
    11    14    15   ar
    12    15    18    1
    13    18    19    1
    14    19    20    1
    15    20    21    1
    16    21    22    1
    17    22    23    1
    18    22    24    1
    19    24    25    1
    20    15    16   ar
    21    16    17   ar
    22     5     6   ar
    23     6     7   ar
    24     7    26    1
    25    26    28    1
    26    28    29   ar
    27    29    30   ar
    28    30    40    1
    29    40    41    2
    30    40    42    1
    31    30    31   ar
    32    31    32   ar
    33    32    34    1
    34    34    35   ar
    35    35    36   ar
    36    36    37   ar
    37    37    38   ar
    38    38    39   ar
    39    32    33   ar
    40     7     2   ar
    41    33    28   ar
    42    17    12   ar
    43    39    34   ar
    44    25    19    1
    45     8    11    1
    46    26    27    1
    47    42    43    1
@<TRIPOS>MOLECULE
*****
 43 47 0 0 0
SMALL
GASTEIGER

@<TRIPOS>ATOM
      1 C          52.8520    9.4783  -28.9826 C.3     1  UNL1        0.0323
      2 C          52.1028    9.7713  -27.7111 C.ar    1  UNL1       -0.0083
      3 C          52.5331   10.8189  -26.8814 C.ar    1  UNL1       -0.0018
      4 C          51.8589   11.1081  -25.6939 C.ar    1  UNL1        0.0144
      5 C          50.7354   10.3577  -25.3150 C.ar    1  UNL1        0.0518
      6 C          50.2787    9.3378  -26.1601 C.ar    1  UNL1        0.0290
      7 C          50.9631    9.0197  -27.3467 C.ar    1  UNL1        0.0477
      8 N          50.0089   10.6548  -24.1099 N.am    1  UNL1       -0.2803
      9 C          49.7596    9.6912  -23.0722 C.2     1  UNL1        0.2495
     10 O          49.8393    8.4590  -23.3315 O.2     1  UNL1       -0.2698
     11 H          49.5276   11.5802  -24.0462 H       1  UNL1        0.1552
     12 C          49.3575   10.1254  -21.7123 C.ar    1  UNL1        0.0537
     13 C          49.7525    9.3804  -20.5864 C.ar    1  UNL1        0.0042
     14 C          49.3787    9.7831  -19.3014 C.ar    1  UNL1       -0.0028
     15 C          48.6127   10.9428  -19.1168 C.ar    1  UNL1       -0.0061
     16 C          48.2223   11.6937  -20.2352 C.ar    1  UNL1       -0.0028
     17 C          48.5942   11.2916  -21.5212 C.ar    1  UNL1        0.0042
     18 C          48.1950   11.3565  -17.7297 C.3     1  UNL1        0.0992
     19 N          49.3677   11.4271  -16.8341 N.3     1  UNL1       -0.2665
     20 C          50.2434   12.5461  -17.2331 C.3     1  UNL1        0.0899
     21 C          51.4704   12.6084  -16.3181 C.3     1  UNL1        0.0897
     22 N          51.0463   12.7738  -14.9157 N.3     1  UNL1       -0.2691
     23 C          52.2235   12.8365  -14.0367 C.3     1  UNL1        0.0897
     24 C          50.1742   11.6551  -14.5141 C.3     1  UNL1        0.0897
     25 C          48.9464   11.5952  -15.4273 C.3     1  UNL1        0.0899
     26 N          50.4783    7.9661  -28.1995 N.pl3   1  UNL1       -0.2827
     27 H          50.7719    6.9832  -28.0017 H       1  UNL1        0.1551
     28 C          49.5266    8.1770  -29.2521 C.ar    1  UNL1        0.2208
     29 N          49.3932    7.2487  -30.2340 N.ar    1  UNL1       -0.2070
     30 CA         48.4882    7.3989  -31.2384 C.ar    1  UNL1        0.1608
     31 C          47.6596    8.5317  -31.2483 C.ar    1  UNL1        0.0450
     32 C          47.8064    9.4904  -30.2320 C.ar    1  UNL1        0.0874
     33 N          48.7293    9.2772  -29.2569 N.ar    1  UNL1       -0.2135
     34 C          46.9699   10.7180  -30.1787 C.ar    1  UNL1        0.0370
     35 C          46.5017   11.3489  -31.3464 C.ar    1  UNL1        0.0046
     36 C          45.7309   12.5094  -31.2575 C.ar    1  UNL1        0.0207
     37 C          45.4360   13.0411  -30.0026 C.ar    1  UNL1        0.0989
     38 N          45.9020   12.4338  -28.8807 N.ar    1  UNL1       -0.2423
     39 C          46.6549   11.3031  -28.9382 C.ar    1  UNL1        0.1003
     40 C          48.3874    6.3438  -32.2697 C.2     1  UNL1        0.3561
     41 O          49.4345    5.7588  -32.6540 O.2     1  UNL1       -0.2434
     42 OXT        47.1719    5.9860  -32.8526 O.3     1  UNL1       -0.4761
     43 HXT        46.3091    6.4810  -32.6708 H       1  UNL1        0.2955
@<TRIPOS>BOND
     1     1     2    1
     2     2     3   ar
     3     3     4   ar
     4     4     5   ar
     5     5     8    1
     6     8     9   am
     7     9    10    2
     8     9    12    1
     9    12    13   ar
    10    13    14   ar
    11    14    15   ar
    12    15    18    1
    13    18    19    1
    14    19    20    1
    15    20    21    1
    16    21    22    1
    17    22    23    1
    18    22    24    1
    19    24    25    1
    20    15    16   ar
    21    16    17   ar
    22     5     6   ar
    23     6     7   ar
    24     7    26    1
    25    26    28    1
    26    28    29   ar
    27    29    30   ar
    28    30    40    1
    29    40    41    2
    30    40    42    1
    31    30    31   ar
    32    31    32   ar
    33    32    34    1
    34    34    35   ar
    35    35    36   ar
    36    36    37   ar
    37    37    38   ar
    38    38    39   ar
    39    32    33   ar
    40     7     2   ar
    41    33    28   ar
    42    17    12   ar
    43    39    34   ar
    44    25    19    1
    45     8    11    1
    46    26    27    1
    47    42    43    1
@<TRIPOS>MOLECULE
*****
 43 47 0 0 0
SMALL
GASTEIGER

@<TRIPOS>ATOM
      1 C          45.3259   12.4518  -31.8185 C.3     1  UNL1        0.0323
      2 C          45.7793   12.6224  -30.3940 C.ar    1  UNL1       -0.0083
      3 C          45.6159   13.8649  -29.7611 C.ar    1  UNL1       -0.0018
      4 C          46.0327   14.0511  -28.4421 C.ar    1  UNL1        0.0144
      5 C          46.6168   12.9947  -27.7266 C.ar    1  UNL1        0.0518
      6 C          46.7446   11.7422  -28.3412 C.ar    1  UNL1        0.0290
      7 C          46.3518   11.5476  -29.6774 C.ar    1  UNL1        0.0477
      8 N          47.0289   13.1555  -26.3582 N.am    1  UNL1       -0.2803
      9 C          48.1100   12.4198  -25.7603 C.2     1  UNL1        0.2495
     10 O          48.5016   11.3436  -26.2900 O.2     1  UNL1       -0.2698
     11 H          46.4290   13.7404  -25.7337 H       1  UNL1        0.1552
     12 C          48.7372   12.8813  -24.4981 C.ar    1  UNL1        0.0537
     13 C          49.6042   12.0319  -23.7873 C.ar    1  UNL1        0.0042
     14 C          50.2000   12.4594  -22.5977 C.ar    1  UNL1       -0.0028
     15 C          49.9492   13.7465  -22.1019 C.ar    1  UNL1       -0.0061
     16 C          49.0914   14.6006  -22.8103 C.ar    1  UNL1       -0.0028
     17 C          48.4936   14.1742  -23.9997 C.ar    1  UNL1        0.0042
     18 C          50.5777   14.1905  -20.8068 C.3     1  UNL1        0.0992
     19 N          50.3135   13.2058  -19.7376 N.3     1  UNL1       -0.2665
     20 C          51.3946   13.2456  -18.7336 C.3     1  UNL1        0.0899
     21 C          51.1328   12.2110  -17.6347 C.3     1  UNL1        0.0897
     22 N          49.8341   12.4775  -16.9896 N.3     1  UNL1       -0.2691
     23 C          49.5830   11.4865  -15.9327 C.3     1  UNL1        0.0897
     24 C          48.7523   12.4347  -17.9904 C.3     1  UNL1        0.0897
     25 C          49.0131   13.4712  -19.0871 C.3     1  UNL1        0.0899
     26 N          46.4943   10.2530  -30.2906 N.pl3   1  UNL1       -0.2827
     27 H          45.7852    9.9488  -30.9949 H       1  UNL1        0.1551
     28 C          47.6188    9.3913  -30.0640 C.ar    1  UNL1        0.2208
     29 N          47.9108    8.4165  -30.9630 N.ar    1  UNL1       -0.2070
     30 CA         48.9799    7.5920  -30.7978 C.ar    1  UNL1        0.1608
     31 C          49.8116    7.7664  -29.6807 C.ar    1  UNL1        0.0450
     32 C          49.5008    8.7736  -28.7522 C.ar    1  UNL1        0.0874
     33 N          48.4182    9.5641  -28.9792 N.ar    1  UNL1       -0.2135
     34 C          50.3303    9.0149  -27.5426 C.ar    1  UNL1        0.0370
     35 C          49.9833    8.4842  -26.2861 C.ar    1  UNL1        0.0046
     36 C          50.7788    8.7448  -25.1690 C.ar    1  UNL1        0.0207
     37 C          51.9149    9.5412  -25.3081 C.ar    1  UNL1        0.0989
     38 N          52.2365   10.0603  -26.5213 N.ar    1  UNL1       -0.2423
     39 C          51.4795    9.8229  -27.6256 C.ar    1  UNL1        0.1003
     40 C          49.2470    6.5585  -31.8213 C.2     1  UNL1        0.3561
     41 O          50.4341    6.3474  -32.1856 O.2     1  UNL1       -0.2434
     42 OXT        48.2254    5.8202  -32.4184 O.3     1  UNL1       -0.4761
     43 HXT        47.2451    6.0060  -32.2532 H       1  UNL1        0.2955
@<TRIPOS>BOND
     1     1     2    1
     2     2     3   ar
     3     3     4   ar
     4     4     5   ar
     5     5     8    1
     6     8     9   am
     7     9    10    2
     8     9    12    1
     9    12    13   ar
    10    13    14   ar
    11    14    15   ar
    12    15    18    1
    13    18    19    1
    14    19    20    1
    15    20    21    1
    16    21    22    1
    17    22    23    1
    18    22    24    1
    19    24    25    1
    20    15    16   ar
    21    16    17   ar
    22     5     6   ar
    23     6     7   ar
    24     7    26    1
    25    26    28    1
    26    28    29   ar
    27    29    30   ar
    28    30    40    1
    29    40    41    2
    30    40    42    1
    31    30    31   ar
    32    31    32   ar
    33    32    34    1
    34    34    35   ar
    35    35    36   ar
    36    36    37   ar
    37    37    38   ar
    38    38    39   ar
    39    32    33   ar
    40     7     2   ar
    41    33    28   ar
    42    17    12   ar
    43    39    34   ar
    44    25    19    1
    45     8    11    1
    46    26    27    1
    47    42    43    1
@<TRIPOS>MOLECULE
*****
 43 47 0 0 0
SMALL
GASTEIGER

@<TRIPOS>ATOM
      1 C          45.6972   16.0918  -28.4430 C.3     1  UNL1        0.0323
      2 C          46.6370   15.7033  -27.3340 C.ar    1  UNL1       -0.0083
      3 C          47.4842   16.6732  -26.7749 C.ar    1  UNL1       -0.0018
      4 C          48.3690   16.3378  -25.7488 C.ar    1  UNL1        0.0144
      5 C          48.4199   15.0247  -25.2566 C.ar    1  UNL1        0.0518
      6 C          47.5477   14.0635  -25.7841 C.ar    1  UNL1        0.0290
      7 C          46.6690   14.3818  -26.8349 C.ar    1  UNL1        0.0477
      8 N          49.3039   14.6623  -24.1816 N.am    1  UNL1       -0.2803
      9 C          49.1818   15.1735  -22.8433 C.2     1  UNL1        0.2495
     10 O          48.5337   16.2364  -22.6372 O.2     1  UNL1       -0.2698
     11 H          50.1537   14.1016  -24.4171 H       1  UNL1        0.1552
     12 C          49.8527   14.4968  -21.7069 C.ar    1  UNL1        0.0537
     13 C          49.1021   14.0629  -20.5993 C.ar    1  UNL1        0.0042
     14 C          49.7263   13.4236  -19.5247 C.ar    1  UNL1       -0.0028
     15 C          51.1096   13.1967  -19.5415 C.ar    1  UNL1       -0.0061
     16 C          51.8622   13.6206  -20.6466 C.ar    1  UNL1       -0.0028
     17 C          51.2396   14.2613  -21.7216 C.ar    1  UNL1        0.0042
     18 C          51.7773   12.5275  -18.3685 C.3     1  UNL1        0.0992
     19 N          50.9523   12.6699  -17.1513 N.3     1  UNL1       -0.2665
     20 C          50.0023   11.5450  -17.0486 C.3     1  UNL1        0.0899
     21 C          49.1321   11.7016  -15.7977 C.3     1  UNL1        0.0897
     22 N          49.9826   11.7562  -14.5946 N.3     1  UNL1       -0.2691
     23 C          49.1480   11.9038  -13.3930 C.3     1  UNL1        0.0897
     24 C          50.9300   12.8814  -14.6937 C.3     1  UNL1        0.0897
     25 C          51.8017   12.7227  -15.9427 C.3     1  UNL1        0.0899
     26 N          45.7829   13.3783  -27.3642 N.pl3   1  UNL1       -0.2827
     27 H          44.8587   13.2281  -26.9009 H       1  UNL1        0.1551
     28 C          46.0549   12.6370  -28.5619 C.ar    1  UNL1        0.2208
     29 N          45.5511   13.0664  -29.7475 N.ar    1  UNL1       -0.2070
     30 CA         45.8024   12.4057  -30.9096 C.ar    1  UNL1        0.1608
     31 C          46.6181   11.2637  -30.8842 C.ar    1  UNL1        0.0450
     32 C          47.1319   10.8224  -29.6536 C.ar    1  UNL1        0.0874
     33 N          46.8432   11.5309  -28.5298 N.ar    1  UNL1       -0.2135
     34 C          47.9976    9.6189  -29.5461 C.ar    1  UNL1        0.0370
     35 C          48.8927    9.4412  -28.4746 C.ar    1  UNL1        0.0046
     36 C          49.7012    8.3047  -28.4152 C.ar    1  UNL1        0.0207
     37 C          49.6192    7.3521  -29.4303 C.ar    1  UNL1        0.0989
     38 N          48.7622    7.5367  -30.4677 N.ar    1  UNL1       -0.2423
     39 C          47.9637    8.6340  -30.5508 C.ar    1  UNL1        0.1003
     40 C          45.2315   12.9346  -32.1672 C.2     1  UNL1        0.3561
     41 O          45.7196   13.9807  -32.6708 O.2     1  UNL1       -0.2434
     42 OXT        44.1517   12.3274  -32.8080 O.3     1  UNL1       -0.4761
     43 HXT        43.6441   11.5487  -32.4097 H       1  UNL1        0.2955
@<TRIPOS>BOND
     1     1     2    1
     2     2     3   ar
     3     3     4   ar
     4     4     5   ar
     5     5     8    1
     6     8     9   am
     7     9    10    2
     8     9    12    1
     9    12    13   ar
    10    13    14   ar
    11    14    15   ar
    12    15    18    1
    13    18    19    1
    14    19    20    1
    15    20    21    1
    16    21    22    1
    17    22    23    1
    18    22    24    1
    19    24    25    1
    20    15    16   ar
    21    16    17   ar
    22     5     6   ar
    23     6     7   ar
    24     7    26    1
    25    26    28    1
    26    28    29   ar
    27    29    30   ar
    28    30    40    1
    29    40    41    2
    30    40    42    1
    31    30    31   ar
    32    31    32   ar
    33    32    34    1
    34    34    35   ar
    35    35    36   ar
    36    36    37   ar
    37    37    38   ar
    38    38    39   ar
    39    32    33   ar
    40     7     2   ar
    41    33    28   ar
    42    17    12   ar
    43    39    34   ar
    44    25    19    1
    45     8    11    1
    46    26    27    1
    47    42    43    1
@<TRIPOS>MOLECULE
*****
 43 47 0 0 0
SMALL
GASTEIGER

@<TRIPOS>ATOM
      1 C          48.7274    6.7588  -32.0735 C.3     1  UNL1        0.0323
      2 C          49.2502    7.3859  -30.8096 C.ar    1  UNL1       -0.0083
      3 C          50.4745    6.9510  -30.2778 C.ar    1  UNL1       -0.0018
      4 C          50.9792    7.5125  -29.1038 C.ar    1  UNL1        0.0144
      5 C          50.2710    8.5262  -28.4405 C.ar    1  UNL1        0.0518
      6 C          49.0689    8.9911  -28.9899 C.ar    1  UNL1        0.0290
      7 C          48.5368    8.4170  -30.1582 C.ar    1  UNL1        0.0477
      8 N          50.7846    9.1383  -27.2447 N.am    1  UNL1       -0.2803
      9 C          51.6890   10.2560  -27.2474 C.2     1  UNL1        0.2495
     10 O          52.3613   10.5132  -28.2837 O.2     1  UNL1       -0.2698
     11 H          50.5930    8.6643  -26.3333 H       1  UNL1        0.1552
     12 C          51.8824   11.0804  -26.0299 C.ar    1  UNL1        0.0537
     13 C          53.1297   11.6765  -25.7702 C.ar    1  UNL1        0.0042
     14 C          53.3201   12.4556  -24.6257 C.ar    1  UNL1       -0.0028
     15 C          52.2655   12.6622  -23.7254 C.ar    1  UNL1       -0.0061
     16 C          51.0174   12.0764  -23.9829 C.ar    1  UNL1       -0.0028
     17 C          50.8256   11.2958  -25.1265 C.ar    1  UNL1        0.0042
     18 C          52.4864   13.4844  -22.4825 C.3     1  UNL1        0.0992
     19 N          51.4338   14.5120  -22.3464 N.3     1  UNL1       -0.2665
     20 C          50.9891   14.9616  -23.6800 C.3     1  UNL1        0.0899
     21 C          49.9119   16.0419  -23.5408 C.3     1  UNL1        0.0897
     22 N          48.7659   15.5164  -22.7764 N.3     1  UNL1       -0.2691
     23 C          47.7300   16.5518  -22.6445 C.3     1  UNL1        0.0897
     24 C          49.2075   15.0700  -21.4425 C.3     1  UNL1        0.0897
     25 C          50.2821   13.9880  -21.5824 C.3     1  UNL1        0.0899
     26 N          47.2987    8.9080  -30.7045 N.pl3   1  UNL1       -0.2827
     27 H          46.6660    8.2391  -31.1980 H       1  UNL1        0.1551
     28 C          46.8323   10.2522  -30.5204 C.ar    1  UNL1        0.2208
     29 N          46.5218   11.0105  -31.6031 N.ar    1  UNL1       -0.2070
     30 CA         46.0559   12.2817  -31.4728 C.ar    1  UNL1        0.1608
     31 C          45.8739   12.8147  -30.1871 C.ar    1  UNL1        0.0450
     32 C          46.2018   12.0264  -29.0716 C.ar    1  UNL1        0.0874
     33 N          46.6609   10.7627  -29.2730 N.ar    1  UNL1       -0.2135
     34 C          46.0419   12.5234  -27.6799 C.ar    1  UNL1        0.0370
     35 C          45.6172   11.6818  -26.6349 C.ar    1  UNL1        0.0046
     36 C          45.4637   12.1879  -25.3430 C.ar    1  UNL1        0.0207
     37 C          45.7276   13.5353  -25.0995 C.ar    1  UNL1        0.0989
     38 N          46.1249   14.3443  -26.1156 N.ar    1  UNL1       -0.2423
     39 C          46.2820   13.8780  -27.3831 C.ar    1  UNL1        0.1003
     40 C          45.7263   13.0481  -32.6939 C.2     1  UNL1        0.3561
     41 O          46.5420   13.0546  -33.6535 O.2     1  UNL1       -0.2434
     42 OXT        44.5494   13.7867  -32.8145 O.3     1  UNL1       -0.4761
     43 HXT        43.8993   13.9123  -32.0501 H       1  UNL1        0.2955
@<TRIPOS>BOND
     1     1     2    1
     2     2     3   ar
     3     3     4   ar
     4     4     5   ar
     5     5     8    1
     6     8     9   am
     7     9    10    2
     8     9    12    1
     9    12    13   ar
    10    13    14   ar
    11    14    15   ar
    12    15    18    1
    13    18    19    1
    14    19    20    1
    15    20    21    1
    16    21    22    1
    17    22    23    1
    18    22    24    1
    19    24    25    1
    20    15    16   ar
    21    16    17   ar
    22     5     6   ar
    23     6     7   ar
    24     7    26    1
    25    26    28    1
    26    28    29   ar
    27    29    30   ar
    28    30    40    1
    29    40    41    2
    30    40    42    1
    31    30    31   ar
    32    31    32   ar
    33    32    34    1
    34    34    35   ar
    35    35    36   ar
    36    36    37   ar
    37    37    38   ar
    38    38    39   ar
    39    32    33   ar
    40     7     2   ar
    41    33    28   ar
    42    17    12   ar
    43    39    34   ar
    44    25    19    1
    45     8    11    1
    46    26    27    1
    47    42    43    1
@<TRIPOS>MOLECULE
*****
 43 47 0 0 0
SMALL
GASTEIGER

@<TRIPOS>ATOM
      1 C          46.3379   11.7836  -20.2691 C.3     1  UNL1        0.0323
      2 C          47.0473   11.5952  -21.5826 C.ar    1  UNL1       -0.0083
      3 C          46.4982   12.1490  -22.7499 C.ar    1  UNL1       -0.0018
      4 C          47.1335   11.9844  -23.9818 C.ar    1  UNL1        0.0144
      5 C          48.3359   11.2664  -24.0698 C.ar    1  UNL1        0.0518
      6 C          48.9080   10.7468  -22.9012 C.ar    1  UNL1        0.0290
      7 C          48.2658   10.8839  -21.6576 C.ar    1  UNL1        0.0477
      8 N          49.0222   11.1071  -25.3236 N.am    1  UNL1       -0.2803
      9 C          50.4445   11.2517  -25.4768 C.2     1  UNL1        0.2495
     10 O          51.1056   11.8842  -24.6078 O.2     1  UNL1       -0.2698
     11 H          48.4429   11.0103  -26.1878 H       1  UNL1        0.1552
     12 C          51.1392   10.7124  -26.6710 C.ar    1  UNL1        0.0537
     13 C          50.5689    9.6560  -27.4040 C.ar    1  UNL1        0.0042
     14 C          51.2165    9.1427  -28.5310 C.ar    1  UNL1       -0.0028
     15 C          52.4400    9.6819  -28.9525 C.ar    1  UNL1       -0.0061
     16 C          53.0099   10.7403  -28.2298 C.ar    1  UNL1       -0.0028
     17 C          52.3641   11.2541  -27.1016 C.ar    1  UNL1        0.0042
     18 C          53.1422    9.1069  -30.1550 C.3     1  UNL1        0.0992
     19 N          54.4068    8.4562  -29.7554 N.3     1  UNL1       -0.2665
     20 C          54.4964    7.1110  -30.3560 C.3     1  UNL1        0.0899
     21 C          55.7978    6.4267  -29.9263 C.3     1  UNL1        0.0897
     22 N          56.9560    7.2415  -30.3367 N.3     1  UNL1       -0.2691
     23 C          58.2059    6.5842  -29.9270 C.3     1  UNL1        0.0897
     24 C          56.8701    8.5847  -29.7349 C.3     1  UNL1        0.0897
     25 C          55.5704    9.2693  -30.1672 C.3     1  UNL1        0.0899
     26 N          48.8698   10.3401  -20.4694 N.pl3   1  UNL1       -0.2827
     27 H          48.8119    9.3106  -20.3014 H       1  UNL1        0.1551
     28 C          49.6408   11.1223  -19.5465 C.ar    1  UNL1        0.2208
     29 N          50.7718   11.7421  -19.9713 N.ar    1  UNL1       -0.2070
     30 CA         51.5202   12.5106  -19.1349 C.ar    1  UNL1        0.1608
     31 C          51.1019   12.6819  -17.8061 C.ar    1  UNL1        0.0450
     32 C          49.9336   12.0339  -17.3721 C.ar    1  UNL1        0.0874
     33 N          49.2314   11.2819  -18.2608 N.ar    1  UNL1       -0.2135
     34 C          49.4311   12.1627  -15.9792 C.ar    1  UNL1        0.0370
     35 C          49.7017   11.1895  -14.9991 C.ar    1  UNL1        0.0046
     36 C          49.1998   11.3369  -13.7048 C.ar    1  UNL1        0.0207
     37 C          48.4226   12.4523  -13.3946 C.ar    1  UNL1        0.0989
     38 N          48.1551   13.3809  -14.3490 N.ar    1  UNL1       -0.2423
     39 C          48.6307   13.2621  -15.6173 C.ar    1  UNL1        0.1003
     40 C          52.7347   13.1663  -19.6662 C.2     1  UNL1        0.3561
     41 O          52.6381   14.3103  -20.1841 O.2     1  UNL1       -0.2434
     42 OXT        53.9865   12.5520  -19.6355 O.3     1  UNL1       -0.4761
     43 HXT        54.1222   11.5971  -19.3316 H       1  UNL1        0.2955
@<TRIPOS>BOND
     1     1     2    1
     2     2     3   ar
     3     3     4   ar
     4     4     5   ar
     5     5     8    1
     6     8     9   am
     7     9    10    2
     8     9    12    1
     9    12    13   ar
    10    13    14   ar
    11    14    15   ar
    12    15    18    1
    13    18    19    1
    14    19    20    1
    15    20    21    1
    16    21    22    1
    17    22    23    1
    18    22    24    1
    19    24    25    1
    20    15    16   ar
    21    16    17   ar
    22     5     6   ar
    23     6     7   ar
    24     7    26    1
    25    26    28    1
    26    28    29   ar
    27    29    30   ar
    28    30    40    1
    29    40    41    2
    30    40    42    1
    31    30    31   ar
    32    31    32   ar
    33    32    34    1
    34    34    35   ar
    35    35    36   ar
    36    36    37   ar
    37    37    38   ar
    38    38    39   ar
    39    32    33   ar
    40     7     2   ar
    41    33    28   ar
    42    17    12   ar
    43    39    34   ar
    44    25    19    1
    45     8    11    1
    46    26    27    1
    47    42    43    1
@<TRIPOS>MOLECULE
*****
 43 47 0 0 0
SMALL
GASTEIGER

@<TRIPOS>ATOM
      1 C          47.6754   11.2544  -19.5229 C.3     1  UNL1        0.0323
      2 C          48.2876   10.8497  -20.8364 C.ar    1  UNL1       -0.0083
      3 C          49.1635    9.7535  -20.8817 C.ar    1  UNL1       -0.0018
      4 C          49.7490    9.3606  -22.0864 C.ar    1  UNL1        0.0144
      5 C          49.4649   10.0540  -23.2728 C.ar    1  UNL1        0.0518
      6 C          48.5601   11.1232  -23.2388 C.ar    1  UNL1        0.0290
      7 C          47.9825   11.5450  -22.0280 C.ar    1  UNL1        0.0477
      8 N          50.0350    9.6507  -24.5300 N.am    1  UNL1       -0.2803
      9 C          49.9925   10.4578  -25.7192 C.2     1  UNL1        0.2495
     10 O          49.1391   11.3821  -25.8168 O.2     1  UNL1       -0.2698
     11 H          50.3817    8.6687  -24.6156 H       1  UNL1        0.1552
     12 C          50.9043   10.1845  -26.8565 C.ar    1  UNL1        0.0537
     13 C          52.0799   10.9397  -27.0177 C.ar    1  UNL1        0.0042
     14 C          52.9449   10.6879  -28.0861 C.ar    1  UNL1       -0.0028
     15 C          52.6570    9.6706  -29.0067 C.ar    1  UNL1       -0.0061
     16 C          51.4898    8.9094  -28.8468 C.ar    1  UNL1       -0.0028
     17 C          50.6229    9.1607  -27.7794 C.ar    1  UNL1        0.0042
     18 C          53.5834    9.4216  -30.1683 C.3     1  UNL1        0.0992
     19 N          54.7311    8.5918  -29.7480 N.3     1  UNL1       -0.2665
     20 C          54.6409    7.2534  -30.3633 C.3     1  UNL1        0.0899
     21 C          55.8195    6.3847  -29.9125 C.3     1  UNL1        0.0897
     22 N          57.0925    7.0279  -30.2859 N.3     1  UNL1       -0.2691
     23 C          58.2245    6.1935  -29.8560 C.3     1  UNL1        0.0897
     24 C          57.1860    8.3638  -29.6693 C.3     1  UNL1        0.0897
     25 C          56.0093    9.2326  -30.1227 C.3     1  UNL1        0.0899
     26 N          47.0571   12.6477  -22.0150 N.pl3   1  UNL1       -0.2827
     27 H          46.5467   12.8660  -21.1301 H       1  UNL1        0.1551
     28 C          46.8696   13.5343  -23.1272 C.ar    1  UNL1        0.2208
     29 N          46.8737   14.8770  -22.9249 N.ar    1  UNL1       -0.2070
     30 CA         46.7210   15.7531  -23.9541 C.ar    1  UNL1        0.1608
     31 C          46.5750   15.2565  -25.2587 C.ar    1  UNL1        0.0450
     32 C          46.5667   13.8663  -25.4601 C.ar    1  UNL1        0.0874
     33 N          46.7262   13.0467  -24.3872 N.ar    1  UNL1       -0.2135
     34 C          46.4107   13.2657  -26.8107 C.ar    1  UNL1        0.0370
     35 C          46.5080   11.8776  -27.0221 C.ar    1  UNL1        0.0046
     36 C          46.3710   11.3511  -28.3077 C.ar    1  UNL1        0.0207
     37 C          46.1446   12.2129  -29.3802 C.ar    1  UNL1        0.0989
     38 N          46.0646   13.5524  -29.1703 N.ar    1  UNL1       -0.2423
     39 C          46.1945   14.0921  -27.9291 C.ar    1  UNL1        0.1003
     40 C          46.7466   17.2032  -23.6646 C.2     1  UNL1        0.3561
     41 O          45.9781   17.6665  -22.7809 O.2     1  UNL1       -0.2434
     42 OXT        47.5787   18.0854  -24.3536 O.3     1  UNL1       -0.4761
     43 HXT        48.1441   17.8035  -25.1432 H       1  UNL1        0.2955
@<TRIPOS>BOND
     1     1     2    1
     2     2     3   ar
     3     3     4   ar
     4     4     5   ar
     5     5     8    1
     6     8     9   am
     7     9    10    2
     8     9    12    1
     9    12    13   ar
    10    13    14   ar
    11    14    15   ar
    12    15    18    1
    13    18    19    1
    14    19    20    1
    15    20    21    1
    16    21    22    1
    17    22    23    1
    18    22    24    1
    19    24    25    1
    20    15    16   ar
    21    16    17   ar
    22     5     6   ar
    23     6     7   ar
    24     7    26    1
    25    26    28    1
    26    28    29   ar
    27    29    30   ar
    28    30    40    1
    29    40    41    2
    30    40    42    1
    31    30    31   ar
    32    31    32   ar
    33    32    34    1
    34    34    35   ar
    35    35    36   ar
    36    36    37   ar
    37    37    38   ar
    38    38    39   ar
    39    32    33   ar
    40     7     2   ar
    41    33    28   ar
    42    17    12   ar
    43    39    34   ar
    44    25    19    1
    45     8    11    1
    46    26    27    1
    47    42    43    1
