@<TRIPOS>MOLECULE
*****
 51 56 0 0 0
SMALL
GASTEIGER

@<TRIPOS>ATOM
      1 O         -61.1257  -42.3830  -19.5566 O.2     1  UNL1       -0.2701
      2 C         -62.0071  -42.0150  -20.3811 C.2     1  UNL1        0.2484
      3 N         -63.0631  -41.1410  -19.9534 N.am    1  UNL1       -0.2945
      4 H         -63.6034  -40.6156  -20.6779 H       1  UNL1        0.1501
      5 C         -61.9176  -42.4663  -21.7881 C.ar    1  UNL1        0.0813
      6 C         -61.5920  -41.5401  -22.7925 C.ar    1  UNL1        0.0081
      7 C         -61.5063  -41.9418  -24.1265 C.ar    1  UNL1        0.0153
      8 C         -61.7329  -43.2766  -24.4789 C.ar    1  UNL1        0.0556
      9 C         -62.0436  -44.2174  -23.4817 C.ar    1  UNL1        0.0625
     10 S         -62.3356  -45.9375  -23.9083 S.3     1  UNL1       -0.1381
     11 C         -62.1311  -43.8140  -22.1409 C.ar    1  UNL1        0.1510
     12 F         -62.3778  -44.7459  -21.1850 F       1  UNL1       -0.2035
     13 H         -63.7096  -45.7090  -24.1097 H       1  UNL1        0.1072
     14 N         -61.6384  -43.6708  -25.8535 N.pl3   1  UNL1       -0.3036
     15 C         -62.8049  -43.5383  -26.7281 C.3     1  UNL1        0.1123
     16 C         -62.3599  -43.1045  -28.1274 C.3     1  UNL1        0.1136
     17 N         -61.2346  -43.9173  -28.6247 N.pl3   1  UNL1       -0.2897
     18 C         -60.5935  -44.9012  -27.7367 C.3     1  UNL1        0.1136
     19 C         -60.4161  -44.3288  -26.3255 C.3     1  UNL1        0.1123
     20 C         -60.8745  -43.8786  -30.0251 C.ar    1  UNL1        0.1318
     21 C         -59.7456  -44.5622  -30.5113 C.ar    1  UNL1        0.0343
     22 C         -59.4301  -44.4981  -31.8693 C.ar    1  UNL1        0.0083
     23 C         -60.2222  -43.7418  -32.7451 C.ar    1  UNL1        0.0906
     24 C         -61.3562  -43.0978  -32.2285 C.ar    1  UNL1        0.1041
     25 N         -61.6448  -43.1755  -30.9028 N.ar    1  UNL1       -0.2292
     26 C         -59.9207  -43.7065  -34.2216 C.3     1  UNL1        0.4200
     27 F         -59.1026  -42.6326  -34.5274 F       1  UNL1       -0.1658
     28 F         -59.2777  -44.8670  -34.6161 F       1  UNL1       -0.1658
     29 F         -61.1045  -43.5859  -34.9251 F       1  UNL1       -0.1658
     30 C         -63.2664  -40.8003  -18.5425 C.3     1  UNL1        0.1535
     31 C         -63.9444  -39.4610  -18.4403 C.2     1  UNL1        0.2443
     32 O         -64.9065  -39.3133  -17.6377 O.2     1  UNL1       -0.2730
     33 N         -63.5269  -38.3754  -19.2837 N.am    1  UNL1       -0.2825
     34 H         -62.9561  -38.6037  -20.1291 H       1  UNL1        0.1549
     35 C         -63.9409  -37.0106  -19.1017 C.ar    1  UNL1        0.0535
     36 C         -65.2326  -36.5808  -19.4513 C.ar    1  UNL1        0.0353
     37 C         -65.5984  -35.2502  -19.2323 C.ar    1  UNL1        0.1002
     38 N         -64.7150  -34.3825  -18.6718 N.ar    1  UNL1       -0.2422
     39 C         -63.4660  -34.7750  -18.3069 C.ar    1  UNL1        0.1002
     40 C         -63.0602  -36.0967  -18.5071 C.ar    1  UNL1        0.0353
     41 C         -64.1077  -41.8779  -17.8368 C.3     1  UNL1        0.0569
     42 C         -64.7920  -42.7705  -18.8312 C.ar    1  UNL1       -0.0017
     43 C         -64.8164  -44.1620  -18.8171 C.ar    1  UNL1        0.0681
     44 N         -65.5961  -44.6306  -19.8181 N.ar    1  UNL1       -0.3523
     45 C         -66.0702  -43.5475  -20.4579 C.ar    1  UNL1        0.0563
     46 C         -66.9360  -43.5228  -21.5504 C.ar    1  UNL1        0.0170
     47 C         -67.3232  -42.2674  -22.0543 C.ar    1  UNL1        0.0015
     48 C         -66.8444  -41.0786  -21.4598 C.ar    1  UNL1        0.0001
     49 C         -65.9732  -41.1341  -20.3565 C.ar    1  UNL1        0.0012
     50 C         -65.6042  -42.3931  -19.8823 C.ar    1  UNL1        0.0131
     51 H         -65.7987  -45.6316  -20.0360 H       1  UNL1        0.1660
@<TRIPOS>BOND
     1     1     2    2
     2     2     3   am
     3     3    30    1
     4    30    41    1
     5    41    42    1
     6    42    43   ar
     7    43    44   ar
     8    44    45   ar
     9    45    46   ar
    10    46    47   ar
    11    47    48   ar
    12    48    49   ar
    13    49    50   ar
    14    30    31    1
    15    31    32    2
    16    31    33   am
    17    33    35    1
    18    35    36   ar
    19    36    37   ar
    20    37    38   ar
    21    38    39   ar
    22    39    40   ar
    23     2     5    1
    24     5     6   ar
    25     6     7   ar
    26     7     8   ar
    27     8    14    1
    28    14    15    1
    29    15    16    1
    30    16    17    1
    31    17    20    1
    32    20    21   ar
    33    21    22   ar
    34    22    23   ar
    35    23    26    1
    36    26    27    1
    37    26    28    1
    38    26    29    1
    39    23    24   ar
    40    24    25   ar
    41    17    18    1
    42    18    19    1
    43     8     9   ar
    44     9    10    1
    45     9    11   ar
    46    11    12    1
    47    50    42   ar
    48    40    35   ar
    49    11     5   ar
    50    50    45   ar
    51    19    14    1
    52    25    20   ar
    53     3     4    1
    54    44    51    1
    55    33    34    1
    56    10    13    1
@<TRIPOS>MOLECULE
*****
 51 56 0 0 0
SMALL
GASTEIGER

@<TRIPOS>ATOM
      1 O         -60.6317  -47.2325  -24.5932 O.2     1  UNL1       -0.2701
      2 C         -61.7016  -46.5719  -24.6974 C.2     1  UNL1        0.2484
      3 N         -62.7280  -47.0147  -25.5987 N.am    1  UNL1       -0.2945
      4 H         -63.6993  -46.6497  -25.4706 H       1  UNL1        0.1501
      5 C         -61.8937  -45.3658  -23.8610 C.ar    1  UNL1        0.0813
      6 C         -61.4792  -45.3810  -22.5191 C.ar    1  UNL1        0.0081
      7 C         -61.6543  -44.2570  -21.7102 C.ar    1  UNL1        0.0153
      8 C         -62.2356  -43.0955  -22.2300 C.ar    1  UNL1        0.0556
      9 C         -62.6401  -43.0610  -23.5759 C.ar    1  UNL1        0.0625
     10 S         -63.3859  -41.5806  -24.2675 S.3     1  UNL1       -0.1381
     11 C         -62.4655  -44.1908  -24.3890 C.ar    1  UNL1        0.1510
     12 F         -62.8113  -44.1214  -25.7000 F       1  UNL1       -0.2035
     13 H         -64.6788  -41.9956  -23.8976 H       1  UNL1        0.1072
     14 N         -62.4054  -41.9507  -21.3848 N.pl3   1  UNL1       -0.3036
     15 C         -61.4640  -40.8335  -21.4788 C.3     1  UNL1        0.1123
     16 C         -62.2095  -39.5080  -21.3006 C.3     1  UNL1        0.1136
     17 N         -63.1088  -39.5341  -20.1323 N.pl3   1  UNL1       -0.2897
     18 C         -63.3038  -40.7884  -19.3862 C.3     1  UNL1        0.1136
     19 C         -63.4379  -41.9780  -20.3441 C.3     1  UNL1        0.1123
     20 C         -63.6594  -38.3016  -19.6125 C.ar    1  UNL1        0.1318
     21 C         -64.8077  -38.2963  -18.8005 C.ar    1  UNL1        0.0343
     22 C         -65.3097  -37.0856  -18.3205 C.ar    1  UNL1        0.0083
     23 C         -64.6853  -35.8765  -18.6592 C.ar    1  UNL1        0.0906
     24 C         -63.5256  -35.9244  -19.4469 C.ar    1  UNL1        0.1041
     25 N         -63.0541  -37.1151  -19.9016 N.ar    1  UNL1       -0.2292
     26 C         -65.1881  -34.5678  -18.1054 C.3     1  UNL1        0.4200
     27 F         -64.2810  -33.5520  -18.3535 F       1  UNL1       -0.1658
     28 F         -66.3949  -34.2227  -18.6887 F       1  UNL1       -0.1658
     29 F         -65.3660  -34.6896  -16.7400 F       1  UNL1       -0.1658
     30 C         -62.5099  -48.1109  -26.5467 C.3     1  UNL1        0.1535
     31 C         -62.7782  -49.4260  -25.8665 C.2     1  UNL1        0.2443
     32 O         -63.4781  -50.2958  -26.4539 O.2     1  UNL1       -0.2730
     33 N         -62.2784  -49.6673  -24.5413 N.am    1  UNL1       -0.2825
     34 H         -61.9772  -48.8428  -23.9739 H       1  UNL1        0.1549
     35 C         -62.2746  -50.9571  -23.9059 C.ar    1  UNL1        0.0535
     36 C         -63.4455  -51.7266  -23.7961 C.ar    1  UNL1        0.0353
     37 C         -63.3881  -52.9856  -23.1931 C.ar    1  UNL1        0.1002
     38 N         -62.2047  -53.4675  -22.7295 N.ar    1  UNL1       -0.2422
     39 C         -61.0536  -52.7532  -22.8391 C.ar    1  UNL1        0.1002
     40 C         -61.0665  -51.4905  -23.4364 C.ar    1  UNL1        0.0353
     41 C         -63.4168  -47.9547  -27.7795 C.3     1  UNL1        0.0569
     42 C         -63.3234  -46.5695  -28.3507 C.ar    1  UNL1       -0.0017
     43 C         -64.3855  -45.7155  -28.6327 C.ar    1  UNL1        0.0681
     44 N         -63.9270  -44.5167  -29.0594 N.ar    1  UNL1       -0.3523
     45 C         -62.5855  -44.6040  -29.0408 C.ar    1  UNL1        0.0563
     46 C         -61.6690  -43.6094  -29.3793 C.ar    1  UNL1        0.0170
     47 C         -60.2994  -43.9117  -29.2676 C.ar    1  UNL1        0.0015
     48 C         -59.8815  -45.1857  -28.8223 C.ar    1  UNL1        0.0001
     49 C         -60.8291  -46.1694  -28.4854 C.ar    1  UNL1        0.0012
     50 C         -62.1792  -45.8412  -28.6103 C.ar    1  UNL1        0.0131
     51 H         -64.5020  -43.6887  -29.3316 H       1  UNL1        0.1660
@<TRIPOS>BOND
     1     1     2    2
     2     2     3   am
     3     3    30    1
     4    30    41    1
     5    41    42    1
     6    42    43   ar
     7    43    44   ar
     8    44    45   ar
     9    45    46   ar
    10    46    47   ar
    11    47    48   ar
    12    48    49   ar
    13    49    50   ar
    14    30    31    1
    15    31    32    2
    16    31    33   am
    17    33    35    1
    18    35    36   ar
    19    36    37   ar
    20    37    38   ar
    21    38    39   ar
    22    39    40   ar
    23     2     5    1
    24     5     6   ar
    25     6     7   ar
    26     7     8   ar
    27     8    14    1
    28    14    15    1
    29    15    16    1
    30    16    17    1
    31    17    20    1
    32    20    21   ar
    33    21    22   ar
    34    22    23   ar
    35    23    26    1
    36    26    27    1
    37    26    28    1
    38    26    29    1
    39    23    24   ar
    40    24    25   ar
    41    17    18    1
    42    18    19    1
    43     8     9   ar
    44     9    10    1
    45     9    11   ar
    46    11    12    1
    47    50    42   ar
    48    40    35   ar
    49    11     5   ar
    50    50    45   ar
    51    19    14    1
    52    25    20   ar
    53     3     4    1
    54    44    51    1
    55    33    34    1
    56    10    13    1
@<TRIPOS>MOLECULE
*****
 51 56 0 0 0
SMALL
GASTEIGER

@<TRIPOS>ATOM
      1 O         -59.8400  -46.8403  -23.8806 O.2     1  UNL1       -0.2701
      2 C         -60.8449  -46.1545  -24.2149 C.2     1  UNL1        0.2484
      3 N         -61.6453  -46.5619  -25.3354 N.am    1  UNL1       -0.2945
      4 H         -62.6131  -46.1770  -25.4265 H       1  UNL1        0.1501
      5 C         -61.2012  -44.9559  -23.4226 C.ar    1  UNL1        0.0813
      6 C         -60.6695  -44.7960  -22.1326 C.ar    1  UNL1        0.0081
      7 C         -60.9950  -43.6761  -21.3655 C.ar    1  UNL1        0.0153
      8 C         -61.8473  -42.6920  -21.8774 C.ar    1  UNL1        0.0556
      9 C         -62.3736  -42.8314  -23.1734 C.ar    1  UNL1        0.0625
     10 S         -63.4674  -41.5800  -23.8542 S.3     1  UNL1       -0.1381
     11 C         -62.0478  -43.9572  -23.9443 C.ar    1  UNL1        0.1510
     12 F         -62.5208  -44.0485  -25.2136 F       1  UNL1       -0.2035
     13 H         -64.6080  -42.2171  -23.3310 H       1  UNL1        0.1072
     14 N         -62.1685  -41.5482  -21.0758 N.pl3   1  UNL1       -0.3036
     15 C         -61.2924  -40.3756  -21.1007 C.3     1  UNL1        0.1123
     16 C         -62.1313  -39.0972  -21.0222 C.3     1  UNL1        0.1136
     17 N         -63.1372  -39.1632  -19.9460 N.pl3   1  UNL1       -0.2897
     18 C         -63.3272  -40.4166  -19.1972 C.3     1  UNL1        0.1136
     19 C         -63.2942  -41.6256  -20.1394 C.3     1  UNL1        0.1123
     20 C         -63.8102  -37.9604  -19.5068 C.ar    1  UNL1        0.1318
     21 C         -65.2003  -37.8033  -19.6515 C.ar    1  UNL1        0.0343
     22 C         -65.8122  -36.6264  -19.2173 C.ar    1  UNL1        0.0083
     23 C         -65.0452  -35.5955  -18.6556 C.ar    1  UNL1        0.0906
     24 C         -63.6662  -35.8006  -18.5012 C.ar    1  UNL1        0.1041
     25 N         -63.0923  -36.9555  -18.9299 N.ar    1  UNL1       -0.2292
     26 C         -65.7014  -34.3415  -18.1368 C.3     1  UNL1        0.4200
     27 F         -64.8991  -33.2380  -18.3711 F       1  UNL1       -0.1658
     28 F         -66.9182  -34.1329  -18.7625 F       1  UNL1       -0.1658
     29 F         -65.9099  -34.4664  -16.7760 F       1  UNL1       -0.1658
     30 C         -61.2361  -47.6497  -26.2282 C.3     1  UNL1        0.1535
     31 C         -61.6876  -48.9667  -25.6575 C.2     1  UNL1        0.2443
     32 O         -62.4945  -49.6817  -26.3126 O.2     1  UNL1       -0.2730
     33 N         -61.2375  -49.3813  -24.3576 N.am    1  UNL1       -0.2825
     34 H         -60.8316  -48.6547  -23.7252 H       1  UNL1        0.1549
     35 C         -61.4156  -50.7069  -23.8301 C.ar    1  UNL1        0.0535
     36 C         -60.3262  -51.5728  -23.6332 C.ar    1  UNL1        0.0353
     37 C         -60.5449  -52.8430  -23.0938 C.ar    1  UNL1        0.1002
     38 N         -61.8010  -53.2315  -22.7491 N.ar    1  UNL1       -0.2422
     39 C         -62.8702  -52.4082  -22.9110 C.ar    1  UNL1        0.1002
     40 C         -62.6954  -51.1295  -23.4456 C.ar    1  UNL1        0.0353
     41 C         -61.8237  -47.4503  -27.6360 C.3     1  UNL1        0.0569
     42 C         -61.0262  -46.4493  -28.4208 C.ar    1  UNL1       -0.0017
     43 C         -59.6398  -46.3300  -28.4458 C.ar    1  UNL1        0.0681
     44 N         -59.2641  -45.3737  -29.3254 N.ar    1  UNL1       -0.3523
     45 C         -60.4003  -44.8950  -29.8615 C.ar    1  UNL1        0.0563
     46 C         -60.5237  -43.9051  -30.8356 C.ar    1  UNL1        0.0170
     47 C         -61.8188  -43.5689  -31.2709 C.ar    1  UNL1        0.0015
     48 C         -62.9481  -44.2242  -30.7313 C.ar    1  UNL1        0.0001
     49 C         -62.7931  -45.2211  -29.7508 C.ar    1  UNL1        0.0012
     50 C         -61.4971  -45.5295  -29.3368 C.ar    1  UNL1        0.0131
     51 H         -58.2874  -45.0811  -29.5510 H       1  UNL1        0.1660
@<TRIPOS>BOND
     1     1     2    2
     2     2     3   am
     3     3    30    1
     4    30    41    1
     5    41    42    1
     6    42    43   ar
     7    43    44   ar
     8    44    45   ar
     9    45    46   ar
    10    46    47   ar
    11    47    48   ar
    12    48    49   ar
    13    49    50   ar
    14    30    31    1
    15    31    32    2
    16    31    33   am
    17    33    35    1
    18    35    36   ar
    19    36    37   ar
    20    37    38   ar
    21    38    39   ar
    22    39    40   ar
    23     2     5    1
    24     5     6   ar
    25     6     7   ar
    26     7     8   ar
    27     8    14    1
    28    14    15    1
    29    15    16    1
    30    16    17    1
    31    17    20    1
    32    20    21   ar
    33    21    22   ar
    34    22    23   ar
    35    23    26    1
    36    26    27    1
    37    26    28    1
    38    26    29    1
    39    23    24   ar
    40    24    25   ar
    41    17    18    1
    42    18    19    1
    43     8     9   ar
    44     9    10    1
    45     9    11   ar
    46    11    12    1
    47    50    42   ar
    48    40    35   ar
    49    11     5   ar
    50    50    45   ar
    51    19    14    1
    52    25    20   ar
    53     3     4    1
    54    44    51    1
    55    33    34    1
    56    10    13    1
@<TRIPOS>MOLECULE
*****
 51 56 0 0 0
SMALL
GASTEIGER

@<TRIPOS>ATOM
      1 O         -61.1708  -46.5289  -26.2996 O.2     1  UNL1       -0.2701
      2 C         -62.0415  -45.6223  -26.4090 C.2     1  UNL1        0.2484
      3 N         -62.8431  -45.5432  -27.5978 N.am    1  UNL1       -0.2945
      4 H         -63.7347  -44.9982  -27.5659 H       1  UNL1        0.1501
      5 C         -62.2444  -44.6729  -25.2915 C.ar    1  UNL1        0.0813
      6 C         -62.5260  -43.3255  -25.5706 C.ar    1  UNL1        0.0081
      7 C         -62.7166  -42.4115  -24.5330 C.ar    1  UNL1        0.0153
      8 C         -62.6407  -42.8291  -23.2000 C.ar    1  UNL1        0.0556
      9 C         -62.3757  -44.1781  -22.9064 C.ar    1  UNL1        0.0625
     10 S         -62.2765  -44.7395  -21.2032 S.3     1  UNL1       -0.1381
     11 C         -62.1828  -45.0970  -23.9488 C.ar    1  UNL1        0.1510
     12 F         -61.9826  -46.4055  -23.6477 F       1  UNL1       -0.2035
     13 H         -60.8982  -44.4625  -21.1370 H       1  UNL1        0.1072
     14 N         -62.8412  -41.8766  -22.1482 N.pl3   1  UNL1       -0.3036
     15 C         -61.6999  -41.1263  -21.6215 C.3     1  UNL1        0.1123
     16 C         -62.1255  -39.6921  -21.2952 C.3     1  UNL1        0.1136
     17 N         -63.3755  -39.6522  -20.5141 N.pl3   1  UNL1       -0.2897
     18 C         -64.1230  -40.8959  -20.2646 C.3     1  UNL1        0.1136
     19 C         -64.1634  -41.7703  -21.5233 C.3     1  UNL1        0.1123
     20 C         -63.7756  -38.4329  -19.8466 C.ar    1  UNL1        0.1318
     21 C         -64.8972  -38.3950  -18.9989 C.ar    1  UNL1        0.0343
     22 C         -65.2523  -37.1981  -18.3749 C.ar    1  UNL1        0.0083
     23 C         -64.5074  -36.0323  -18.6040 C.ar    1  UNL1        0.0906
     24 C         -63.3787  -36.1161  -19.4326 C.ar    1  UNL1        0.1041
     25 N         -63.0510  -37.2928  -20.0283 N.ar    1  UNL1       -0.2292
     26 C         -64.8509  -34.7465  -17.8962 C.3     1  UNL1        0.4200
     27 F         -66.0548  -34.2421  -18.3571 F       1  UNL1       -0.1658
     28 F         -64.9625  -34.9551  -16.5324 F       1  UNL1       -0.1658
     29 F         -63.8541  -33.8178  -18.1301 F       1  UNL1       -0.1658
     30 C         -62.5663  -46.3670  -28.7779 C.3     1  UNL1        0.1535
     31 C         -63.8281  -46.5392  -29.5793 C.2     1  UNL1        0.2443
     32 O         -64.5302  -45.5278  -29.8544 O.2     1  UNL1       -0.2730
     33 N         -64.2501  -47.8508  -29.9864 N.am    1  UNL1       -0.2825
     34 H         -63.8310  -48.6739  -29.4971 H       1  UNL1        0.1549
     35 C         -65.2949  -48.0986  -30.9425 C.ar    1  UNL1        0.0535
     36 C         -65.3920  -47.3599  -32.1342 C.ar    1  UNL1        0.0353
     37 C         -66.4095  -47.6536  -33.0456 C.ar    1  UNL1        0.1002
     38 N         -67.2896  -48.6565  -32.7867 N.ar    1  UNL1       -0.2422
     39 C         -67.2083  -49.3993  -31.6514 C.ar    1  UNL1        0.1002
     40 C         -66.2053  -49.1395  -30.7143 C.ar    1  UNL1        0.0353
     41 C         -61.4685  -45.7266  -29.6449 C.3     1  UNL1        0.0569
     42 C         -61.1188  -44.3526  -29.1512 C.ar    1  UNL1       -0.0017
     43 C         -60.0131  -44.0050  -28.3807 C.ar    1  UNL1        0.0681
     44 N         -59.9719  -42.6664  -28.1910 N.ar    1  UNL1       -0.3523
     45 C         -61.0365  -42.1660  -28.8420 C.ar    1  UNL1        0.0563
     46 C         -61.4076  -40.8265  -28.9509 C.ar    1  UNL1        0.0170
     47 C         -62.5574  -40.5218  -29.7024 C.ar    1  UNL1        0.0015
     48 C         -63.3002  -41.5507  -30.3236 C.ar    1  UNL1        0.0001
     49 C         -62.9006  -42.8938  -30.1982 C.ar    1  UNL1        0.0012
     50 C         -61.7590  -43.1645  -29.4436 C.ar    1  UNL1        0.0131
     51 H         -59.2488  -42.1326  -27.6595 H       1  UNL1        0.1660
@<TRIPOS>BOND
     1     1     2    2
     2     2     3   am
     3     3    30    1
     4    30    41    1
     5    41    42    1
     6    42    43   ar
     7    43    44   ar
     8    44    45   ar
     9    45    46   ar
    10    46    47   ar
    11    47    48   ar
    12    48    49   ar
    13    49    50   ar
    14    30    31    1
    15    31    32    2
    16    31    33   am
    17    33    35    1
    18    35    36   ar
    19    36    37   ar
    20    37    38   ar
    21    38    39   ar
    22    39    40   ar
    23     2     5    1
    24     5     6   ar
    25     6     7   ar
    26     7     8   ar
    27     8    14    1
    28    14    15    1
    29    15    16    1
    30    16    17    1
    31    17    20    1
    32    20    21   ar
    33    21    22   ar
    34    22    23   ar
    35    23    26    1
    36    26    27    1
    37    26    28    1
    38    26    29    1
    39    23    24   ar
    40    24    25   ar
    41    17    18    1
    42    18    19    1
    43     8     9   ar
    44     9    10    1
    45     9    11   ar
    46    11    12    1
    47    50    42   ar
    48    40    35   ar
    49    11     5   ar
    50    50    45   ar
    51    19    14    1
    52    25    20   ar
    53     3     4    1
    54    44    51    1
    55    33    34    1
    56    10    13    1
@<TRIPOS>MOLECULE
*****
 51 56 0 0 0
SMALL
GASTEIGER

@<TRIPOS>ATOM
      1 O         -60.5030  -46.1000  -26.2256 O.2     1  UNL1       -0.2701
      2 C         -61.6667  -45.6354  -26.0778 C.2     1  UNL1        0.2484
      3 N         -62.7259  -46.0774  -26.9410 N.am    1  UNL1       -0.2945
      4 H         -63.7152  -45.9244  -26.6395 H       1  UNL1        0.1501
      5 C         -61.9274  -44.6639  -24.9917 C.ar    1  UNL1        0.0813
      6 C         -62.0318  -43.2969  -25.2964 C.ar    1  UNL1        0.0081
      7 C         -62.2727  -42.3622  -24.2880 C.ar    1  UNL1        0.0153
      8 C         -62.4248  -42.7775  -22.9607 C.ar    1  UNL1        0.0556
      9 C         -62.3389  -44.1444  -22.6441 C.ar    1  UNL1        0.0625
     10 S         -62.5338  -44.7029  -20.9482 S.3     1  UNL1       -0.1381
     11 C         -62.0955  -45.0841  -23.6569 C.ar    1  UNL1        0.1510
     12 F         -62.0705  -46.4043  -23.3415 F       1  UNL1       -0.2035
     13 H         -61.1575  -44.5644  -20.6890 H       1  UNL1        0.1072
     14 N         -62.6737  -41.8035  -21.9394 N.pl3   1  UNL1       -0.3036
     15 C         -61.5644  -41.0095  -21.4082 C.3     1  UNL1        0.1123
     16 C         -62.0344  -39.5791  -21.1297 C.3     1  UNL1        0.1136
     17 N         -63.3023  -39.5523  -20.3773 N.pl3   1  UNL1       -0.2897
     18 C         -64.0225  -40.8085  -20.1109 C.3     1  UNL1        0.1136
     19 C         -64.0119  -41.7163  -21.3465 C.3     1  UNL1        0.1123
     20 C         -63.7490  -38.3271  -19.7514 C.ar    1  UNL1        0.1318
     21 C         -64.8772  -38.3012  -18.9121 C.ar    1  UNL1        0.0343
     22 C         -65.2778  -37.0982  -18.3288 C.ar    1  UNL1        0.0083
     23 C         -64.5719  -35.9151  -18.5904 C.ar    1  UNL1        0.0906
     24 C         -63.4351  -35.9859  -19.4090 C.ar    1  UNL1        0.1041
     25 N         -63.0628  -37.1689  -19.9649 N.ar    1  UNL1       -0.2292
     26 C         -64.9646  -34.6203  -17.9260 C.3     1  UNL1        0.4200
     27 F         -66.1321  -34.1225  -18.4786 F       1  UNL1       -0.1658
     28 F         -65.1736  -34.8109  -16.5711 F       1  UNL1       -0.1658
     29 F         -63.9531  -33.6943  -18.1002 F       1  UNL1       -0.1658
     30 C         -62.4722  -46.9171  -28.1151 C.3     1  UNL1        0.1535
     31 C         -61.4639  -46.2447  -29.0068 C.2     1  UNL1        0.2443
     32 O         -60.2588  -46.6161  -28.9694 O.2     1  UNL1       -0.2730
     33 N         -61.8650  -45.1592  -29.8583 N.am    1  UNL1       -0.2825
     34 H         -62.7710  -44.6819  -29.6492 H       1  UNL1        0.1549
     35 C         -61.0456  -44.6148  -30.9069 C.ar    1  UNL1        0.0535
     36 C         -59.6692  -44.8888  -30.9824 C.ar    1  UNL1        0.0353
     37 C         -58.9181  -44.3583  -32.0343 C.ar    1  UNL1        0.1002
     38 N         -59.5186  -43.5947  -32.9850 N.ar    1  UNL1       -0.2422
     39 C         -60.8510  -43.3290  -32.9474 C.ar    1  UNL1        0.1002
     40 C         -61.6389  -43.8410  -31.9137 C.ar    1  UNL1        0.0353
     41 C         -61.9659  -48.3071  -27.6927 C.3     1  UNL1        0.0569
     42 C         -62.6551  -48.7804  -26.4457 C.ar    1  UNL1       -0.0017
     43 C         -64.0173  -49.0202  -26.2914 C.ar    1  UNL1        0.0681
     44 N         -64.2726  -49.5164  -25.0593 N.ar    1  UNL1       -0.3523
     45 C         -63.0831  -49.5997  -24.4384 C.ar    1  UNL1        0.0563
     46 C         -62.8328  -50.0733  -23.1512 C.ar    1  UNL1        0.0170
     47 C         -61.4986  -50.0904  -22.7047 C.ar    1  UNL1        0.0015
     48 C         -60.4562  -49.6419  -23.5463 C.ar    1  UNL1        0.0001
     49 C         -60.7383  -49.1712  -24.8417 C.ar    1  UNL1        0.0012
     50 C         -62.0709  -49.1626  -25.2543 C.ar    1  UNL1        0.0131
     51 H         -65.2046  -49.7925  -24.6777 H       1  UNL1        0.1660
@<TRIPOS>BOND
     1     1     2    2
     2     2     3   am
     3     3    30    1
     4    30    41    1
     5    41    42    1
     6    42    43   ar
     7    43    44   ar
     8    44    45   ar
     9    45    46   ar
    10    46    47   ar
    11    47    48   ar
    12    48    49   ar
    13    49    50   ar
    14    30    31    1
    15    31    32    2
    16    31    33   am
    17    33    35    1
    18    35    36   ar
    19    36    37   ar
    20    37    38   ar
    21    38    39   ar
    22    39    40   ar
    23     2     5    1
    24     5     6   ar
    25     6     7   ar
    26     7     8   ar
    27     8    14    1
    28    14    15    1
    29    15    16    1
    30    16    17    1
    31    17    20    1
    32    20    21   ar
    33    21    22   ar
    34    22    23   ar
    35    23    26    1
    36    26    27    1
    37    26    28    1
    38    26    29    1
    39    23    24   ar
    40    24    25   ar
    41    17    18    1
    42    18    19    1
    43     8     9   ar
    44     9    10    1
    45     9    11   ar
    46    11    12    1
    47    50    42   ar
    48    40    35   ar
    49    11     5   ar
    50    50    45   ar
    51    19    14    1
    52    25    20   ar
    53     3     4    1
    54    44    51    1
    55    33    34    1
    56    10    13    1
@<TRIPOS>MOLECULE
*****
 51 56 0 0 0
SMALL
GASTEIGER

@<TRIPOS>ATOM
      1 O         -61.1496  -46.4491  -26.1534 O.2     1  UNL1       -0.2701
      2 C         -62.0757  -45.6015  -26.2790 C.2     1  UNL1        0.2484
      3 N         -62.9348  -45.6491  -27.4288 N.am    1  UNL1       -0.2945
      4 H         -63.8542  -45.1531  -27.3886 H       1  UNL1        0.1501
      5 C         -62.2817  -44.5896  -25.2184 C.ar    1  UNL1        0.0813
      6 C         -61.7783  -44.8265  -23.9288 C.ar    1  UNL1        0.0081
      7 C         -61.9644  -43.8887  -22.9118 C.ar    1  UNL1        0.0153
      8 C         -62.6460  -42.6941  -23.1677 C.ar    1  UNL1        0.0556
      9 C         -63.1409  -42.4369  -24.4580 C.ar    1  UNL1        0.0625
     10 S         -64.0165  -40.9092  -24.8124 S.3     1  UNL1       -0.1381
     11 C         -62.9553  -43.3796  -25.4802 C.ar    1  UNL1        0.1510
     12 F         -63.3914  -43.0906  -26.7330 F       1  UNL1       -0.2035
     13 H         -65.2553  -41.4756  -24.4587 H       1  UNL1        0.1072
     14 N         -62.8256  -41.7424  -22.1114 N.pl3   1  UNL1       -0.3036
     15 C         -61.6920  -40.9300  -21.6663 C.3     1  UNL1        0.1123
     16 C         -62.1681  -39.5159  -21.3224 C.3     1  UNL1        0.1136
     17 N         -63.3645  -39.5315  -20.4607 N.pl3   1  UNL1       -0.2897
     18 C         -64.0293  -40.8089  -20.1539 C.3     1  UNL1        0.1136
     19 C         -64.1076  -41.6969  -21.4012 C.3     1  UNL1        0.1123
     20 C         -63.7818  -38.3274  -19.7764 C.ar    1  UNL1        0.1318
     21 C         -64.9138  -38.3128  -18.9419 C.ar    1  UNL1        0.0343
     22 C         -65.2854  -37.1299  -18.3010 C.ar    1  UNL1        0.0083
     23 C         -64.5465  -35.9548  -18.5002 C.ar    1  UNL1        0.0906
     24 C         -63.4073  -36.0155  -19.3162 C.ar    1  UNL1        0.1041
     25 N         -63.0636  -37.1789  -19.9288 N.ar    1  UNL1       -0.2292
     26 C         -64.9082  -34.6844  -17.7737 C.3     1  UNL1        0.4200
     27 F         -66.1403  -34.2149  -18.1952 F       1  UNL1       -0.1658
     28 F         -64.9724  -34.9044  -16.4087 F       1  UNL1       -0.1658
     29 F         -63.9479  -33.7239  -18.0308 F       1  UNL1       -0.1658
     30 C         -62.6653  -46.5361  -28.5639 C.3     1  UNL1        0.1535
     31 C         -63.9135  -46.6909  -29.3897 C.2     1  UNL1        0.2443
     32 O         -64.6900  -45.7065  -29.5292 O.2     1  UNL1       -0.2730
     33 N         -64.2379  -47.9626  -29.9745 N.am    1  UNL1       -0.2825
     34 H         -63.7569  -48.8112  -29.5990 H       1  UNL1        0.1549
     35 C         -65.2648  -48.1548  -30.9623 C.ar    1  UNL1        0.0535
     36 C         -65.3119  -47.3808  -32.1346 C.ar    1  UNL1        0.0353
     37 C         -66.3138  -47.6209  -33.0784 C.ar    1  UNL1        0.1002
     38 N         -67.2268  -48.6059  -32.8696 N.ar    1  UNL1       -0.2422
     39 C         -67.1940  -49.3819  -31.7542 C.ar    1  UNL1        0.1002
     40 C         -66.2082  -49.1761  -30.7860 C.ar    1  UNL1        0.0353
     41 C         -61.5201  -45.9822  -29.4292 C.3     1  UNL1        0.0569
     42 C         -61.8568  -44.6231  -29.9707 C.ar    1  UNL1       -0.0017
     43 C         -62.6649  -44.3451  -31.0691 C.ar    1  UNL1        0.0681
     44 N         -62.8149  -43.0093  -31.2189 N.ar    1  UNL1       -0.3523
     45 C         -62.1159  -42.4427  -30.2200 C.ar    1  UNL1        0.0563
     46 C         -61.9857  -41.0820  -29.9454 C.ar    1  UNL1        0.0170
     47 C         -61.2162  -40.7073  -28.8286 C.ar    1  UNL1        0.0015
     48 C         -60.6038  -41.6898  -28.0189 C.ar    1  UNL1        0.0001
     49 C         -60.7543  -43.0560  -28.3189 C.ar    1  UNL1        0.0012
     50 C         -61.5196  -43.3960  -29.4347 C.ar    1  UNL1        0.0131
     51 H         -63.3745  -42.5218  -31.9534 H       1  UNL1        0.1660
@<TRIPOS>BOND
     1     1     2    2
     2     2     3   am
     3     3    30    1
     4    30    41    1
     5    41    42    1
     6    42    43   ar
     7    43    44   ar
     8    44    45   ar
     9    45    46   ar
    10    46    47   ar
    11    47    48   ar
    12    48    49   ar
    13    49    50   ar
    14    30    31    1
    15    31    32    2
    16    31    33   am
    17    33    35    1
    18    35    36   ar
    19    36    37   ar
    20    37    38   ar
    21    38    39   ar
    22    39    40   ar
    23     2     5    1
    24     5     6   ar
    25     6     7   ar
    26     7     8   ar
    27     8    14    1
    28    14    15    1
    29    15    16    1
    30    16    17    1
    31    17    20    1
    32    20    21   ar
    33    21    22   ar
    34    22    23   ar
    35    23    26    1
    36    26    27    1
    37    26    28    1
    38    26    29    1
    39    23    24   ar
    40    24    25   ar
    41    17    18    1
    42    18    19    1
    43     8     9   ar
    44     9    10    1
    45     9    11   ar
    46    11    12    1
    47    50    42   ar
    48    40    35   ar
    49    11     5   ar
    50    50    45   ar
    51    19    14    1
    52    25    20   ar
    53     3     4    1
    54    44    51    1
    55    33    34    1
    56    10    13    1
@<TRIPOS>MOLECULE
*****
 51 56 0 0 0
SMALL
GASTEIGER

@<TRIPOS>ATOM
      1 O         -63.1599  -54.6192  -22.2977 O.2     1  UNL1       -0.2701
      2 C         -64.1232  -53.9031  -22.6867 C.2     1  UNL1        0.2484
      3 N         -65.4726  -54.3309  -22.4452 N.am    1  UNL1       -0.2945
      4 H         -66.2401  -53.6229  -22.4985 H       1  UNL1        0.1501
      5 C         -63.8437  -52.6139  -23.3582 C.ar    1  UNL1        0.0813
      6 C         -64.7427  -52.1257  -24.3205 C.ar    1  UNL1        0.0081
      7 C         -64.4974  -50.9146  -24.9699 C.ar    1  UNL1        0.0153
      8 C         -63.3570  -50.1653  -24.6615 C.ar    1  UNL1        0.0556
      9 C         -62.4573  -50.6342  -23.6885 C.ar    1  UNL1        0.0625
     10 S         -60.9877  -49.6889  -23.2726 S.3     1  UNL1       -0.1381
     11 C         -62.7025  -51.8518  -23.0365 C.ar    1  UNL1        0.1510
     12 F         -61.8523  -52.2622  -22.0609 F       1  UNL1       -0.2035
     13 H         -60.2296  -50.3287  -24.2708 H       1  UNL1        0.1072
     14 N         -63.1231  -48.9233  -25.3372 N.pl3   1  UNL1       -0.3036
     15 C         -62.6076  -48.9286  -26.7073 C.3     1  UNL1        0.1123
     16 C         -63.2566  -47.7993  -27.5122 C.3     1  UNL1        0.1136
     17 N         -63.2251  -46.5163  -26.7861 N.pl3   1  UNL1       -0.2897
     18 C         -62.7410  -46.4732  -25.3963 C.3     1  UNL1        0.1136
     19 C         -63.2734  -47.6674  -24.5955 C.3     1  UNL1        0.1123
     20 C         -63.4992  -45.2799  -27.4850 C.ar    1  UNL1        0.1318
     21 C         -64.3103  -45.2509  -28.6336 C.ar    1  UNL1        0.0343
     22 C         -64.5490  -44.0378  -29.2812 C.ar    1  UNL1        0.0083
     23 C         -63.9697  -42.8539  -28.8025 C.ar    1  UNL1        0.0906
     24 C         -63.1905  -42.9181  -27.6379 C.ar    1  UNL1        0.1041
     25 N         -62.9730  -44.1104  -27.0230 N.ar    1  UNL1       -0.2292
     26 C         -64.2613  -41.5308  -29.4634 C.3     1  UNL1        0.4200
     27 F         -63.1162  -40.7561  -29.5313 F       1  UNL1       -0.1658
     28 F         -64.7319  -41.7220  -30.7510 F       1  UNL1       -0.1658
     29 F         -65.2188  -40.8565  -28.7291 F       1  UNL1       -0.1658
     30 C         -65.7834  -55.6644  -21.9228 C.3     1  UNL1        0.1535
     31 C         -66.7606  -55.5445  -20.7849 C.2     1  UNL1        0.2443
     32 O         -66.3703  -55.7712  -19.6068 O.2     1  UNL1       -0.2730
     33 N         -68.1354  -55.2194  -21.0465 N.am    1  UNL1       -0.2825
     34 H         -68.4894  -55.3382  -22.0227 H       1  UNL1        0.1549
     35 C         -69.0823  -54.8519  -20.0289 C.ar    1  UNL1        0.0535
     36 C         -70.0436  -53.8498  -20.2459 C.ar    1  UNL1        0.0353
     37 C         -70.9600  -53.5445  -19.2364 C.ar    1  UNL1        0.1002
     38 N         -70.9299  -54.2226  -18.0588 N.ar    1  UNL1       -0.2422
     39 C         -70.0235  -55.2089  -17.8285 C.ar    1  UNL1        0.1002
     40 C         -69.0903  -55.5466  -18.8117 C.ar    1  UNL1        0.0353
     41 C         -66.3629  -56.5625  -23.0294 C.3     1  UNL1        0.0569
     42 C         -67.2744  -55.7875  -23.9363 C.ar    1  UNL1       -0.0017
     43 C         -66.8903  -54.9528  -24.9816 C.ar    1  UNL1        0.0681
     44 N         -67.9776  -54.4848  -25.6360 N.ar    1  UNL1       -0.3523
     45 C         -69.0433  -55.0235  -25.0184 C.ar    1  UNL1        0.0563
     46 C         -70.3872  -54.8503  -25.3465 C.ar    1  UNL1        0.0170
     47 C         -71.3459  -55.5293  -24.5722 C.ar    1  UNL1        0.0015
     48 C         -70.9443  -56.3590  -23.5015 C.ar    1  UNL1        0.0001
     49 C         -69.5804  -56.5167  -23.1947 C.ar    1  UNL1        0.0012
     50 C         -68.6541  -55.8276  -23.9777 C.ar    1  UNL1        0.0131
     51 H         -67.9827  -53.8472  -26.4630 H       1  UNL1        0.1660
@<TRIPOS>BOND
     1     1     2    2
     2     2     3   am
     3     3    30    1
     4    30    41    1
     5    41    42    1
     6    42    43   ar
     7    43    44   ar
     8    44    45   ar
     9    45    46   ar
    10    46    47   ar
    11    47    48   ar
    12    48    49   ar
    13    49    50   ar
    14    30    31    1
    15    31    32    2
    16    31    33   am
    17    33    35    1
    18    35    36   ar
    19    36    37   ar
    20    37    38   ar
    21    38    39   ar
    22    39    40   ar
    23     2     5    1
    24     5     6   ar
    25     6     7   ar
    26     7     8   ar
    27     8    14    1
    28    14    15    1
    29    15    16    1
    30    16    17    1
    31    17    20    1
    32    20    21   ar
    33    21    22   ar
    34    22    23   ar
    35    23    26    1
    36    26    27    1
    37    26    28    1
    38    26    29    1
    39    23    24   ar
    40    24    25   ar
    41    17    18    1
    42    18    19    1
    43     8     9   ar
    44     9    10    1
    45     9    11   ar
    46    11    12    1
    47    50    42   ar
    48    40    35   ar
    49    11     5   ar
    50    50    45   ar
    51    19    14    1
    52    25    20   ar
    53     3     4    1
    54    44    51    1
    55    33    34    1
    56    10    13    1
@<TRIPOS>MOLECULE
*****
 51 56 0 0 0
SMALL
GASTEIGER

@<TRIPOS>ATOM
      1 O         -63.1301  -54.5726  -22.3615 O.2     1  UNL1       -0.2701
      2 C         -64.0469  -53.7761  -22.7038 C.2     1  UNL1        0.2484
      3 N         -65.4124  -54.0784  -22.3783 N.am    1  UNL1       -0.2945
      4 H         -66.1153  -53.3047  -22.3968 H       1  UNL1        0.1501
      5 C         -63.6935  -52.5232  -23.4086 C.ar    1  UNL1        0.0813
      6 C         -64.4561  -52.1123  -24.5141 C.ar    1  UNL1        0.0081
      7 C         -64.1387  -50.9369  -25.1968 C.ar    1  UNL1        0.0153
      8 C         -63.0622  -50.1463  -24.7807 C.ar    1  UNL1        0.0556
      9 C         -62.3005  -50.5372  -23.6657 C.ar    1  UNL1        0.0625
     10 S         -60.9156  -49.5376  -23.1100 S.3     1  UNL1       -0.1381
     11 C         -62.6182  -51.7191  -22.9800 C.ar    1  UNL1        0.1510
     12 F         -61.9066  -52.0526  -21.8729 F       1  UNL1       -0.2035
     13 H         -60.0176  -50.2191  -23.9526 H       1  UNL1        0.1072
     14 N         -62.7527  -48.9417  -25.4929 N.pl3   1  UNL1       -0.3036
     15 C         -61.3553  -48.5457  -25.6760 C.3     1  UNL1        0.1123
     16 C         -61.1678  -47.9238  -27.0625 C.3     1  UNL1        0.1136
     17 N         -62.1985  -46.9111  -27.3564 N.pl3   1  UNL1       -0.2897
     18 C         -63.3166  -46.7112  -26.4196 C.3     1  UNL1        0.1136
     19 C         -63.8454  -48.0555  -25.9059 C.3     1  UNL1        0.1123
     20 C         -62.0231  -45.9972  -28.4638 C.ar    1  UNL1        0.1318
     21 C         -60.7602  -45.4681  -28.7851 C.ar    1  UNL1        0.0343
     22 C         -60.6327  -44.5870  -29.8601 C.ar    1  UNL1        0.0083
     23 C         -61.7593  -44.2145  -30.6073 C.ar    1  UNL1        0.0906
     24 C         -62.9967  -44.7854  -30.2750 C.ar    1  UNL1        0.1041
     25 N         -63.0967  -45.6424  -29.2250 N.ar    1  UNL1       -0.2292
     26 C         -61.6257  -43.3040  -31.8013 C.3     1  UNL1        0.4200
     27 F         -62.6749  -43.4982  -32.6831 F       1  UNL1       -0.1658
     28 F         -61.6318  -41.9774  -31.4064 F       1  UNL1       -0.1658
     29 F         -60.4357  -43.5757  -32.4500 F       1  UNL1       -0.1658
     30 C         -65.8097  -55.3739  -21.8200 C.3     1  UNL1        0.1535
     31 C         -66.8920  -55.1700  -20.7947 C.2     1  UNL1        0.2443
     32 O         -67.4037  -54.0256  -20.6533 O.2     1  UNL1       -0.2730
     33 N         -67.3039  -56.2605  -19.9548 N.am    1  UNL1       -0.2825
     34 H         -66.6700  -57.0883  -19.8810 H       1  UNL1        0.1549
     35 C         -68.4752  -56.2354  -19.1213 C.ar    1  UNL1        0.0535
     36 C         -68.5503  -55.4152  -17.9825 C.ar    1  UNL1        0.0353
     37 C         -69.7192  -55.4050  -17.2171 C.ar    1  UNL1        0.1002
     38 N         -70.7804  -56.1725  -17.5809 N.ar    1  UNL1       -0.2422
     39 C         -70.7425  -56.9608  -18.6874 C.ar    1  UNL1        0.1002
     40 C         -69.5936  -56.9996  -19.4812 C.ar    1  UNL1        0.0353
     41 C         -66.2998  -56.3193  -22.9303 C.3     1  UNL1        0.0569
     42 C         -67.2843  -55.6333  -23.8325 C.ar    1  UNL1       -0.0017
     43 C         -66.9875  -54.8926  -24.9728 C.ar    1  UNL1        0.0681
     44 N         -68.1252  -54.4910  -25.5842 N.ar    1  UNL1       -0.3523
     45 C         -69.1365  -54.9788  -24.8448 C.ar    1  UNL1        0.0563
     46 C         -70.5028  -54.8432  -25.0872 C.ar    1  UNL1        0.0170
     47 C         -71.3942  -55.4562  -24.1876 C.ar    1  UNL1        0.0015
     48 C         -70.9056  -56.1850  -23.0803 C.ar    1  UNL1        0.0001
     49 C         -69.5212  -56.3070  -22.8619 C.ar    1  UNL1        0.0012
     50 C         -68.6628  -55.6849  -23.7687 C.ar    1  UNL1        0.0131
     51 H         -68.1984  -53.9295  -26.4616 H       1  UNL1        0.1660
@<TRIPOS>BOND
     1     1     2    2
     2     2     3   am
     3     3    30    1
     4    30    41    1
     5    41    42    1
     6    42    43   ar
     7    43    44   ar
     8    44    45   ar
     9    45    46   ar
    10    46    47   ar
    11    47    48   ar
    12    48    49   ar
    13    49    50   ar
    14    30    31    1
    15    31    32    2
    16    31    33   am
    17    33    35    1
    18    35    36   ar
    19    36    37   ar
    20    37    38   ar
    21    38    39   ar
    22    39    40   ar
    23     2     5    1
    24     5     6   ar
    25     6     7   ar
    26     7     8   ar
    27     8    14    1
    28    14    15    1
    29    15    16    1
    30    16    17    1
    31    17    20    1
    32    20    21   ar
    33    21    22   ar
    34    22    23   ar
    35    23    26    1
    36    26    27    1
    37    26    28    1
    38    26    29    1
    39    23    24   ar
    40    24    25   ar
    41    17    18    1
    42    18    19    1
    43     8     9   ar
    44     9    10    1
    45     9    11   ar
    46    11    12    1
    47    50    42   ar
    48    40    35   ar
    49    11     5   ar
    50    50    45   ar
    51    19    14    1
    52    25    20   ar
    53     3     4    1
    54    44    51    1
    55    33    34    1
    56    10    13    1
@<TRIPOS>MOLECULE
*****
 51 56 0 0 0
SMALL
GASTEIGER

@<TRIPOS>ATOM
      1 O         -60.2626  -42.1282  -21.5221 O.2     1  UNL1       -0.2701
      2 C         -61.3497  -41.8710  -22.1086 C.2     1  UNL1        0.2484
      3 N         -62.2633  -40.9238  -21.5338 N.am    1  UNL1       -0.2945
      4 H         -62.9990  -40.5022  -22.1453 H       1  UNL1        0.1501
      5 C         -61.6500  -42.5281  -23.4006 C.ar    1  UNL1        0.0813
      6 C         -62.7277  -43.4247  -23.4869 C.ar    1  UNL1        0.0081
      7 C         -63.0268  -44.0595  -24.6936 C.ar    1  UNL1        0.0153
      8 C         -62.2626  -43.8015  -25.8366 C.ar    1  UNL1        0.0556
      9 C         -61.1913  -42.8939  -25.7683 C.ar    1  UNL1        0.0625
     10 S         -60.1973  -42.5434  -27.2227 S.3     1  UNL1       -0.1381
     11 C         -60.8894  -42.2566  -24.5556 C.ar    1  UNL1        0.1510
     12 F         -59.8865  -41.3422  -24.5212 F       1  UNL1       -0.2035
     13 H         -59.3114  -43.5988  -26.9362 H       1  UNL1        0.1072
     14 N         -62.5861  -44.4612  -27.0671 N.pl3   1  UNL1       -0.3036
     15 C         -62.1852  -45.8543  -27.2706 C.3     1  UNL1        0.1123
     16 C         -63.2764  -46.6030  -28.0409 C.3     1  UNL1        0.1136
     17 N         -63.7275  -45.8522  -29.2270 N.pl3   1  UNL1       -0.2897
     18 C         -63.2297  -44.4867  -29.4624 C.3     1  UNL1        0.1136
     19 C         -63.1916  -43.6868  -28.1550 C.3     1  UNL1        0.1123
     20 C         -64.5140  -46.5108  -30.2469 C.ar    1  UNL1        0.1318
     21 C         -64.9562  -45.8222  -31.3908 C.ar    1  UNL1        0.0343
     22 C         -65.7152  -46.4926  -32.3512 C.ar    1  UNL1        0.0083
     23 C         -66.0528  -47.8418  -32.1712 C.ar    1  UNL1        0.0906
     24 C         -65.5692  -48.5024  -31.0323 C.ar    1  UNL1        0.1041
     25 N         -64.8303  -47.8296  -30.1112 N.ar    1  UNL1       -0.2292
     26 C         -66.8285  -48.5895  -33.2255 C.3     1  UNL1        0.4200
     27 F         -67.1152  -49.8754  -32.8006 F       1  UNL1       -0.1658
     28 F         -68.0237  -47.9473  -33.4992 F       1  UNL1       -0.1658
     29 F         -66.0764  -48.6547  -34.3835 F       1  UNL1       -0.1658
     30 C         -62.0682  -40.3733  -20.1896 C.3     1  UNL1        0.1535
     31 C         -62.5122  -38.9358  -20.1646 C.2     1  UNL1        0.2443
     32 O         -62.1744  -38.1667  -21.1059 O.2     1  UNL1       -0.2730
     33 N         -63.2750  -38.4361  -19.0544 N.am    1  UNL1       -0.2825
     34 H         -63.2759  -38.9937  -18.1704 H       1  UNL1        0.1549
     35 C         -63.9418  -37.1623  -19.0454 C.ar    1  UNL1        0.0535
     36 C         -65.2614  -37.0195  -19.5075 C.ar    1  UNL1        0.0353
     37 C         -65.8774  -35.7664  -19.4555 C.ar    1  UNL1        0.1002
     38 N         -65.2088  -34.6973  -18.9481 N.ar    1  UNL1       -0.2422
     39 C         -63.9388  -34.8102  -18.4772 C.ar    1  UNL1        0.1002
     40 C         -63.2866  -36.0452  -18.5094 C.ar    1  UNL1        0.0353
     41 C         -62.8506  -41.1900  -19.1467 C.3     1  UNL1        0.0569
     42 C         -63.9729  -41.9549  -19.7863 C.ar    1  UNL1       -0.0017
     43 C         -64.1660  -43.3326  -19.7460 C.ar    1  UNL1        0.0681
     44 N         -65.3244  -43.6652  -20.3601 N.ar    1  UNL1       -0.3523
     45 C         -65.8676  -42.5092  -20.7797 C.ar    1  UNL1        0.0563
     46 C         -67.0775  -42.3385  -21.4512 C.ar    1  UNL1        0.0170
     47 C         -67.4669  -41.0274  -21.7814 C.ar    1  UNL1        0.0015
     48 C         -66.6492  -39.9288  -21.4344 C.ar    1  UNL1        0.0001
     49 C         -65.4341  -40.1311  -20.7548 C.ar    1  UNL1        0.0012
     50 C         -65.0733  -41.4424  -20.4448 C.ar    1  UNL1        0.0131
     51 H         -65.7204  -44.6252  -20.4696 H       1  UNL1        0.1660
@<TRIPOS>BOND
     1     1     2    2
     2     2     3   am
     3     3    30    1
     4    30    41    1
     5    41    42    1
     6    42    43   ar
     7    43    44   ar
     8    44    45   ar
     9    45    46   ar
    10    46    47   ar
    11    47    48   ar
    12    48    49   ar
    13    49    50   ar
    14    30    31    1
    15    31    32    2
    16    31    33   am
    17    33    35    1
    18    35    36   ar
    19    36    37   ar
    20    37    38   ar
    21    38    39   ar
    22    39    40   ar
    23     2     5    1
    24     5     6   ar
    25     6     7   ar
    26     7     8   ar
    27     8    14    1
    28    14    15    1
    29    15    16    1
    30    16    17    1
    31    17    20    1
    32    20    21   ar
    33    21    22   ar
    34    22    23   ar
    35    23    26    1
    36    26    27    1
    37    26    28    1
    38    26    29    1
    39    23    24   ar
    40    24    25   ar
    41    17    18    1
    42    18    19    1
    43     8     9   ar
    44     9    10    1
    45     9    11   ar
    46    11    12    1
    47    50    42   ar
    48    40    35   ar
    49    11     5   ar
    50    50    45   ar
    51    19    14    1
    52    25    20   ar
    53     3     4    1
    54    44    51    1
    55    33    34    1
    56    10    13    1
