@<TRIPOS>MOLECULE
*****
 46 51 0 0 0
SMALL
GASTEIGER

@<TRIPOS>ATOM
      1 O           6.7304   77.7977   27.7865 O.2     1  UNL1       -0.2701
      2 C           7.0038   76.8543   26.9952 C.2     1  UNL1        0.2483
      3 N           8.1532   76.0187   27.2366 N.am    1  UNL1       -0.2945
      4 H           8.4476   75.3575   26.4838 H       1  UNL1        0.1501
      5 C           6.1698   76.6707   25.7856 C.ar    1  UNL1        0.0808
      6 C           6.7945   76.5399   24.5346 C.ar    1  UNL1        0.0080
      7 C           6.0373   76.3501   23.3768 C.ar    1  UNL1        0.0148
      8 C           4.6349   76.2957   23.4414 C.ar    1  UNL1        0.0502
      9 C           4.0081   76.4471   24.6896 C.ar    1  UNL1        0.0443
     10 C           4.7634   76.6328   25.8516 C.ar    1  UNL1        0.1457
     11 F           4.1098   76.8134   27.0260 F       1  UNL1       -0.2040
     12 N           3.8500   76.1051   22.2443 N.pl3   1  UNL1       -0.3040
     13 C           4.3876   75.3115   21.1267 C.3     1  UNL1        0.1122
     14 C           3.2664   74.5444   20.4112 C.3     1  UNL1        0.1122
     15 N           2.0780   75.3836   20.1975 N.pl3   1  UNL1       -0.3040
     16 C           2.0859   76.7829   20.6383 C.3     1  UNL1        0.1122
     17 C           2.5946   76.8582   22.0783 C.3     1  UNL1        0.1122
     18 C           0.8867   74.7976   19.6404 C.ar    1  UNL1        0.0488
     19 C          -0.1917   75.6104   19.2514 C.ar    1  UNL1        0.0146
     20 C          -1.3429   75.0396   18.7006 C.ar    1  UNL1        0.0021
     21 C          -1.4263   73.6556   18.5287 C.ar    1  UNL1        0.0115
     22 C          -0.3566   72.8382   18.9066 C.ar    1  UNL1        0.0589
     23 CL         -0.4578   71.1015   18.6820 Cl      1  UNL1       -0.0822
     24 C           0.7967   73.4063   19.4591 C.ar    1  UNL1        0.0259
     25 C           9.0723   76.1557   28.3788 C.3     1  UNL1        0.1535
     26 C           9.3081   74.8369   29.1025 C.2     1  UNL1        0.2443
     27 O          10.4867   74.4783   29.3676 O.2     1  UNL1       -0.2730
     28 N           8.2261   73.9894   29.5291 N.am    1  UNL1       -0.2825
     29 H           8.4273   72.9695   29.6366 H       1  UNL1        0.1549
     30 C           6.8745   74.4287   29.7297 C.ar    1  UNL1        0.0535
     31 C           6.5510   75.3477   30.7387 C.ar    1  UNL1        0.0353
     32 C           5.2255   75.7615   30.8910 C.ar    1  UNL1        0.1002
     33 N           4.2574   75.2643   30.0759 N.ar    1  UNL1       -0.2422
     34 C           4.5410   74.3558   29.1051 C.ar    1  UNL1        0.1002
     35 C           5.8527   73.9121   28.9230 C.ar    1  UNL1        0.0353
     36 C          10.3689   76.8980   27.9695 C.3     1  UNL1        0.0569
     37 C          10.1416   78.2535   27.3583 C.ar    1  UNL1       -0.0017
     38 C           9.9233   79.4506   28.0359 C.ar    1  UNL1        0.0681
     39 N           9.8085   80.4753   27.1607 N.ar    1  UNL1       -0.3523
     40 C           9.9502   79.9377   25.9371 C.ar    1  UNL1        0.0563
     41 C           9.9302   80.6058   24.7135 C.ar    1  UNL1        0.0170
     42 C          10.1197   79.8448   23.5456 C.ar    1  UNL1        0.0015
     43 C          10.3191   78.4489   23.6257 C.ar    1  UNL1        0.0001
     44 C          10.3314   77.8016   24.8742 C.ar    1  UNL1        0.0012
     45 C          10.1479   78.5831   26.0154 C.ar    1  UNL1        0.0131
     46 H           9.6503   81.4809   27.3934 H       1  UNL1        0.1660
@<TRIPOS>BOND
     1     1     2    2
     2     2     3   am
     3     3    25    1
     4    25    36    1
     5    36    37    1
     6    37    38   ar
     7    38    39   ar
     8    39    40   ar
     9    40    41   ar
    10    41    42   ar
    11    42    43   ar
    12    43    44   ar
    13    44    45   ar
    14    25    26    1
    15    26    27    2
    16    26    28   am
    17    28    30    1
    18    30    31   ar
    19    31    32   ar
    20    32    33   ar
    21    33    34   ar
    22    34    35   ar
    23     2     5    1
    24     5     6   ar
    25     6     7   ar
    26     7     8   ar
    27     8    12    1
    28    12    13    1
    29    13    14    1
    30    14    15    1
    31    15    18    1
    32    18    19   ar
    33    19    20   ar
    34    20    21   ar
    35    21    22   ar
    36    22    23    1
    37    22    24   ar
    38    15    16    1
    39    16    17    1
    40     8     9   ar
    41     9    10   ar
    42    10    11    1
    43    45    37   ar
    44    35    30   ar
    45    10     5   ar
    46    45    40   ar
    47    17    12    1
    48    24    18   ar
    49     3     4    1
    50    39    46    1
    51    28    29    1
@<TRIPOS>MOLECULE
*****
 46 51 0 0 0
SMALL
GASTEIGER

@<TRIPOS>ATOM
      1 O           6.3175   73.4765   23.1006 O.2     1  UNL1       -0.2701
      2 C           6.0451   74.6985   23.2534 C.2     1  UNL1        0.2483
      3 N           5.3404   75.4165   22.2210 N.am    1  UNL1       -0.2945
      4 H           5.2750   76.4556   22.3014 H       1  UNL1        0.1501
      5 C           6.5234   75.3912   24.4715 C.ar    1  UNL1        0.0808
      6 C           6.8944   76.7434   24.3911 C.ar    1  UNL1        0.0080
      7 C           7.3349   77.4297   25.5246 C.ar    1  UNL1        0.0148
      8 C           7.4239   76.7766   26.7654 C.ar    1  UNL1        0.0502
      9 C           7.0727   75.4184   26.8425 C.ar    1  UNL1        0.0443
     10 C           6.6269   74.7294   25.7103 C.ar    1  UNL1        0.1457
     11 F           6.3379   73.4097   25.8285 F       1  UNL1       -0.2040
     12 N           7.8846   77.4832   27.9374 N.pl3   1  UNL1       -0.3040
     13 C           9.2084   77.1835   28.5081 C.3     1  UNL1        0.1122
     14 C           9.8474   78.4473   29.1013 C.3     1  UNL1        0.1122
     15 N           8.8826   79.2336   29.8843 N.pl3   1  UNL1       -0.3040
     16 C           7.5032   78.7560   30.0315 C.3     1  UNL1        0.1122
     17 C           6.9523   78.3664   28.6594 C.3     1  UNL1        0.1122
     18 C           9.2775   80.5095   30.4218 C.ar    1  UNL1        0.0488
     19 C          10.1076   81.3681   29.6811 C.ar    1  UNL1        0.0146
     20 C          10.4807   82.6111   30.2009 C.ar    1  UNL1        0.0021
     21 C          10.0256   83.0099   31.4603 C.ar    1  UNL1        0.0115
     22 C           9.1943   82.1660   32.2031 C.ar    1  UNL1        0.0589
     23 CL          8.6155   82.6709   33.7800 Cl      1  UNL1       -0.0822
     24 C           8.8198   80.9208   31.6860 C.ar    1  UNL1        0.0259
     25 C           4.8720   74.8307   20.9539 C.3     1  UNL1        0.1535
     26 C           3.4249   74.3621   21.0248 C.2     1  UNL1        0.2443
     27 O           3.1595   73.1430   20.8473 O.2     1  UNL1       -0.2730
     28 N           2.3395   75.2592   21.3213 N.am    1  UNL1       -0.2825
     29 H           1.3904   74.9991   20.9694 H       1  UNL1        0.1549
     30 C           2.4827   76.5238   21.9849 C.ar    1  UNL1        0.0535
     31 C           2.8882   76.5994   23.3255 C.ar    1  UNL1        0.0353
     32 C           3.0303   77.8506   23.9301 C.ar    1  UNL1        0.1002
     33 N           2.7628   78.9829   23.2265 N.ar    1  UNL1       -0.2422
     34 C           2.3469   78.9362   21.9330 C.ar    1  UNL1        0.1002
     35 C           2.1871   77.7051   21.2930 C.ar    1  UNL1        0.0353
     36 C           5.1811   75.7636   19.7566 C.3     1  UNL1        0.0569
     37 C           5.8582   77.0530   20.1330 C.ar    1  UNL1       -0.0017
     38 C           5.3238   78.3359   20.0424 C.ar    1  UNL1        0.0681
     39 N           6.2019   79.2488   20.5165 N.ar    1  UNL1       -0.3523
     40 C           7.2864   78.5559   20.9040 C.ar    1  UNL1        0.0563
     41 C           8.4504   79.0621   21.4809 C.ar    1  UNL1        0.0170
     42 C           9.4618   78.1490   21.8308 C.ar    1  UNL1        0.0015
     43 C           9.2906   76.7670   21.5957 C.ar    1  UNL1        0.0001
     44 C           8.1064   76.2855   21.0093 C.ar    1  UNL1        0.0012
     45 C           7.1182   77.2137   20.6794 C.ar    1  UNL1        0.0131
     46 H           6.0587   80.2814   20.5756 H       1  UNL1        0.1660
@<TRIPOS>BOND
     1     1     2    2
     2     2     3   am
     3     3    25    1
     4    25    36    1
     5    36    37    1
     6    37    38   ar
     7    38    39   ar
     8    39    40   ar
     9    40    41   ar
    10    41    42   ar
    11    42    43   ar
    12    43    44   ar
    13    44    45   ar
    14    25    26    1
    15    26    27    2
    16    26    28   am
    17    28    30    1
    18    30    31   ar
    19    31    32   ar
    20    32    33   ar
    21    33    34   ar
    22    34    35   ar
    23     2     5    1
    24     5     6   ar
    25     6     7   ar
    26     7     8   ar
    27     8    12    1
    28    12    13    1
    29    13    14    1
    30    14    15    1
    31    15    18    1
    32    18    19   ar
    33    19    20   ar
    34    20    21   ar
    35    21    22   ar
    36    22    23    1
    37    22    24   ar
    38    15    16    1
    39    16    17    1
    40     8     9   ar
    41     9    10   ar
    42    10    11    1
    43    45    37   ar
    44    35    30   ar
    45    10     5   ar
    46    45    40   ar
    47    17    12    1
    48    24    18   ar
    49     3     4    1
    50    39    46    1
    51    28    29    1
@<TRIPOS>MOLECULE
*****
 46 51 0 0 0
SMALL
GASTEIGER

@<TRIPOS>ATOM
      1 O           8.1524   75.8758   28.3759 O.2     1  UNL1       -0.2701
      2 C           7.3286   76.7611   28.0174 C.2     1  UNL1        0.2483
      3 N           7.0703   77.8952   28.8689 N.am    1  UNL1       -0.2945
      4 H           6.2699   78.5205   28.6261 H       1  UNL1        0.1501
      5 C           6.5859   76.5761   26.7500 C.ar    1  UNL1        0.0808
      6 C           7.2473   76.0230   25.6413 C.ar    1  UNL1        0.0080
      7 C           6.5712   75.8211   24.4363 C.ar    1  UNL1        0.0148
      8 C           5.2180   76.1767   24.3084 C.ar    1  UNL1        0.0502
      9 C           4.5611   76.7492   25.4105 C.ar    1  UNL1        0.0443
     10 C           5.2339   76.9485   26.6199 C.ar    1  UNL1        0.1457
     11 F           4.5667   77.5409   27.6412 F       1  UNL1       -0.2040
     12 N           4.5187   75.9740   23.0613 N.pl3   1  UNL1       -0.3040
     13 C           5.1698   75.2473   21.9587 C.3     1  UNL1        0.1122
     14 C           4.1429   74.4349   21.1569 C.3     1  UNL1        0.1122
     15 N           2.9193   75.2065   20.8926 N.pl3   1  UNL1       -0.3040
     16 C           2.8141   76.5903   21.3686 C.3     1  UNL1        0.1122
     17 C           3.2309   76.6541   22.8383 C.3     1  UNL1        0.1122
     18 C           1.8019   74.5659   20.2493 C.ar    1  UNL1        0.0488
     19 C           1.0347   75.2595   19.2979 C.ar    1  UNL1        0.0146
     20 C          -0.0432   74.6315   18.6667 C.ar    1  UNL1        0.0021
     21 C          -0.3616   73.3065   18.9751 C.ar    1  UNL1        0.0115
     22 C           0.3990   72.6052   19.9157 C.ar    1  UNL1        0.0589
     23 CL          0.0049   70.9388   20.2958 Cl      1  UNL1       -0.0822
     24 C           1.4779   73.2312   20.5500 C.ar    1  UNL1        0.0259
     25 C           7.7165   78.1398   30.1692 C.3     1  UNL1        0.1535
     26 C           8.4214   79.4882   30.2286 C.2     1  UNL1        0.2443
     27 O           8.4037   80.1494   31.3012 O.2     1  UNL1       -0.2730
     28 N           9.1422   80.0294   29.1068 N.am    1  UNL1       -0.2825
     29 H           9.2451   81.0682   29.0568 H       1  UNL1        0.1549
     30 C           9.6496   79.2541   28.0107 C.ar    1  UNL1        0.0535
     31 C          10.5598   78.2077   28.2203 C.ar    1  UNL1        0.0353
     32 C          11.0179   77.4673   27.1279 C.ar    1  UNL1        0.1002
     33 N          10.5943   77.7705   25.8719 N.ar    1  UNL1       -0.2422
     34 C           9.7299   78.7939   25.6394 C.ar    1  UNL1        0.1002
     35 C           9.2521   79.5621   26.7035 C.ar    1  UNL1        0.0353
     36 C           6.7358   77.8820   31.3403 C.3     1  UNL1        0.0569
     37 C           5.4188   77.2842   30.9268 C.ar    1  UNL1       -0.0017
     38 C           4.2136   77.9587   30.7473 C.ar    1  UNL1        0.0681
     39 N           3.2525   77.1059   30.3254 N.ar    1  UNL1       -0.3523
     40 C           3.8376   75.8991   30.2382 C.ar    1  UNL1        0.0563
     41 C           3.2515   74.7043   29.8222 C.ar    1  UNL1        0.0170
     42 C           4.0591   73.5529   29.7874 C.ar    1  UNL1        0.0015
     43 C           5.4175   73.6200   30.1681 C.ar    1  UNL1        0.0001
     44 C           5.9807   74.8389   30.5863 C.ar    1  UNL1        0.0012
     45 C           5.1575   75.9653   30.6039 C.ar    1  UNL1        0.0131
     46 H           2.2597   77.3430   30.1049 H       1  UNL1        0.1660
@<TRIPOS>BOND
     1     1     2    2
     2     2     3   am
     3     3    25    1
     4    25    36    1
     5    36    37    1
     6    37    38   ar
     7    38    39   ar
     8    39    40   ar
     9    40    41   ar
    10    41    42   ar
    11    42    43   ar
    12    43    44   ar
    13    44    45   ar
    14    25    26    1
    15    26    27    2
    16    26    28   am
    17    28    30    1
    18    30    31   ar
    19    31    32   ar
    20    32    33   ar
    21    33    34   ar
    22    34    35   ar
    23     2     5    1
    24     5     6   ar
    25     6     7   ar
    26     7     8   ar
    27     8    12    1
    28    12    13    1
    29    13    14    1
    30    14    15    1
    31    15    18    1
    32    18    19   ar
    33    19    20   ar
    34    20    21   ar
    35    21    22   ar
    36    22    23    1
    37    22    24   ar
    38    15    16    1
    39    16    17    1
    40     8     9   ar
    41     9    10   ar
    42    10    11    1
    43    45    37   ar
    44    35    30   ar
    45    10     5   ar
    46    45    40   ar
    47    17    12    1
    48    24    18   ar
    49     3     4    1
    50    39    46    1
    51    28    29    1
@<TRIPOS>MOLECULE
*****
 46 51 0 0 0
SMALL
GASTEIGER

@<TRIPOS>ATOM
      1 O           3.9934   78.2246   30.0479 O.2     1  UNL1       -0.2701
      2 C           4.8204   77.6254   29.3078 C.2     1  UNL1        0.2483
      3 N           6.0823   77.1820   29.8452 N.am    1  UNL1       -0.2945
      4 H           6.8087   76.8401   29.1774 H       1  UNL1        0.1501
      5 C           4.5020   77.4532   27.8721 C.ar    1  UNL1        0.0808
      6 C           3.1654   77.5422   27.4500 C.ar    1  UNL1        0.0080
      7 C           2.8334   77.3999   26.1012 C.ar    1  UNL1        0.0148
      8 C           3.8306   77.1557   25.1421 C.ar    1  UNL1        0.0502
      9 C           5.1656   77.0460   25.5660 C.ar    1  UNL1        0.0443
     10 C           5.5020   77.1924   26.9153 C.ar    1  UNL1        0.1457
     11 F           6.7994   77.0384   27.2788 F       1  UNL1       -0.2040
     12 N           3.4885   77.0027   23.7476 N.pl3   1  UNL1       -0.3040
     13 C           2.3160   77.6997   23.1935 C.3     1  UNL1        0.1122
     14 C           2.5647   78.1162   21.7367 C.3     1  UNL1        0.1122
     15 N           3.2019   77.0419   20.9607 N.pl3   1  UNL1       -0.3040
     16 C           3.4977   75.7566   21.6032 C.3     1  UNL1        0.1122
     17 C           4.2075   76.0065   22.9343 C.3     1  UNL1        0.1122
     18 C           3.6116   77.2943   19.6037 C.ar    1  UNL1        0.0488
     19 C           3.0088   76.6046   18.5380 C.ar    1  UNL1        0.0146
     20 C           3.4009   76.8595   17.2205 C.ar    1  UNL1        0.0021
     21 C           4.3930   77.8067   16.9548 C.ar    1  UNL1        0.0115
     22 C           4.9951   78.5031   18.0073 C.ar    1  UNL1        0.0589
     23 CL          6.2338   79.6990   17.6727 Cl      1  UNL1       -0.0822
     24 C           4.6054   78.2496   19.3272 C.ar    1  UNL1        0.0259
     25 C           6.5126   77.3545   31.2429 C.3     1  UNL1        0.1535
     26 C           6.2363   76.1244   32.0968 C.2     1  UNL1        0.2443
     27 O           5.8844   76.2709   33.2980 O.2     1  UNL1       -0.2730
     28 N           6.3306   74.7874   31.5731 N.am    1  UNL1       -0.2825
     29 H           6.5311   74.0180   32.2513 H       1  UNL1        0.1549
     30 C           6.2588   74.4486   30.1802 C.ar    1  UNL1        0.0535
     31 C           7.4093   74.4220   29.3783 C.ar    1  UNL1        0.0353
     32 C           7.2986   74.0722   28.0304 C.ar    1  UNL1        0.1002
     33 N           6.0824   73.7750   27.5002 N.ar    1  UNL1       -0.2422
     34 C           4.9492   73.8151   28.2503 C.ar    1  UNL1        0.1002
     35 C           5.0156   74.1651   29.6008 C.ar    1  UNL1        0.0353
     36 C           7.9715   77.8693   31.3212 C.3     1  UNL1        0.0569
     37 C           8.4850   78.4762   30.0442 C.ar    1  UNL1       -0.0017
     38 C           8.2857   79.7806   29.5987 C.ar    1  UNL1        0.0681
     39 N           8.9365   79.9864   28.4311 N.ar    1  UNL1       -0.3523
     40 C           9.5435   78.8248   28.1334 C.ar    1  UNL1        0.0563
     41 C          10.3546   78.5535   27.0322 C.ar    1  UNL1        0.0170
     42 C          10.9089   77.2650   26.9253 C.ar    1  UNL1        0.0015
     43 C          10.6404   76.2868   27.9081 C.ar    1  UNL1        0.0001
     44 C           9.8158   76.5884   29.0067 C.ar    1  UNL1        0.0012
     45 C           9.2860   77.8765   29.0898 C.ar    1  UNL1        0.0131
     46 H           8.9658   80.8728   27.8800 H       1  UNL1        0.1660
@<TRIPOS>BOND
     1     1     2    2
     2     2     3   am
     3     3    25    1
     4    25    36    1
     5    36    37    1
     6    37    38   ar
     7    38    39   ar
     8    39    40   ar
     9    40    41   ar
    10    41    42   ar
    11    42    43   ar
    12    43    44   ar
    13    44    45   ar
    14    25    26    1
    15    26    27    2
    16    26    28   am
    17    28    30    1
    18    30    31   ar
    19    31    32   ar
    20    32    33   ar
    21    33    34   ar
    22    34    35   ar
    23     2     5    1
    24     5     6   ar
    25     6     7   ar
    26     7     8   ar
    27     8    12    1
    28    12    13    1
    29    13    14    1
    30    14    15    1
    31    15    18    1
    32    18    19   ar
    33    19    20   ar
    34    20    21   ar
    35    21    22   ar
    36    22    23    1
    37    22    24   ar
    38    15    16    1
    39    16    17    1
    40     8     9   ar
    41     9    10   ar
    42    10    11    1
    43    45    37   ar
    44    35    30   ar
    45    10     5   ar
    46    45    40   ar
    47    17    12    1
    48    24    18   ar
    49     3     4    1
    50    39    46    1
    51    28    29    1
@<TRIPOS>MOLECULE
*****
 46 51 0 0 0
SMALL
GASTEIGER

@<TRIPOS>ATOM
      1 O           4.9299   78.9995   19.1699 O.2     1  UNL1       -0.2701
      2 C           5.0456   78.1073   20.0539 C.2     1  UNL1        0.2483
      3 N           3.9728   77.1717   20.2812 N.am    1  UNL1       -0.2945
      4 H           4.0276   76.5552   21.1223 H       1  UNL1        0.1501
      5 C           6.2643   78.0868   20.8945 C.ar    1  UNL1        0.0808
      6 C           6.3724   77.1372   21.9236 C.ar    1  UNL1        0.0080
      7 C           7.5152   77.0814   22.7241 C.ar    1  UNL1        0.0148
      8 C           8.5746   77.9814   22.5203 C.ar    1  UNL1        0.0502
      9 C           8.4587   78.9450   21.5046 C.ar    1  UNL1        0.0443
     10 C           7.3177   79.0008   20.6982 C.ar    1  UNL1        0.1457
     11 F           7.2373   79.9746   19.7577 F       1  UNL1       -0.2040
     12 N           9.7547   77.9289   23.3510 N.pl3   1  UNL1       -0.3040
     13 C          10.3179   76.6294   23.7533 C.3     1  UNL1        0.1122
     14 C          11.8485   76.7027   23.8500 C.3     1  UNL1        0.1122
     15 N          12.2969   77.9275   24.5290 N.pl3   1  UNL1       -0.3040
     16 C          11.3059   78.8846   25.0335 C.3     1  UNL1        0.1122
     17 C          10.2777   79.1742   23.9395 C.3     1  UNL1        0.1122
     18 C          13.7045   78.2187   24.6105 C.ar    1  UNL1        0.0488
     19 C          14.2770   78.6312   25.8258 C.ar    1  UNL1        0.0146
     20 C          15.6462   78.9027   25.9047 C.ar    1  UNL1        0.0021
     21 C          16.4557   78.7606   24.7749 C.ar    1  UNL1        0.0115
     22 C          15.8974   78.3448   23.5623 C.ar    1  UNL1        0.0589
     23 CL         16.9157   78.1573   22.1464 Cl      1  UNL1       -0.0822
     24 C          14.5272   78.0731   23.4797 C.ar    1  UNL1        0.0259
     25 C           2.7030   77.1452   19.5361 C.3     1  UNL1        0.1535
     26 C           2.7604   76.2403   18.3129 C.2     1  UNL1        0.2443
     27 O           2.3465   76.6718   17.2035 O.2     1  UNL1       -0.2730
     28 N           3.3038   74.9088   18.3658 N.am    1  UNL1       -0.2825
     29 H           2.9626   74.2213   17.6565 H       1  UNL1        0.1549
     30 C           4.2089   74.4353   19.3741 C.ar    1  UNL1        0.0535
     31 C           5.5972   74.4649   19.1764 C.ar    1  UNL1        0.0353
     32 C           6.4446   74.0087   20.1889 C.ar    1  UNL1        0.1002
     33 N           5.9242   73.5271   21.3491 N.ar    1  UNL1       -0.2422
     34 C           4.5819   73.4668   21.5567 C.ar    1  UNL1        0.1002
     35 C           3.7000   73.9080   20.5676 C.ar    1  UNL1        0.0353
     36 C           1.5055   76.8667   20.4784 C.3     1  UNL1        0.0569
     37 C           1.5450   77.6293   21.7744 C.ar    1  UNL1       -0.0017
     38 C           0.8131   78.7696   22.0966 C.ar    1  UNL1        0.0681
     39 N           1.0688   79.1521   23.3684 N.ar    1  UNL1       -0.3523
     40 C           1.9561   78.2662   23.8524 C.ar    1  UNL1        0.0563
     41 C           2.5036   78.2335   25.1343 C.ar    1  UNL1        0.0170
     42 C           3.4062   77.1980   25.4377 C.ar    1  UNL1        0.0015
     43 C           3.7401   76.2317   24.4633 C.ar    1  UNL1        0.0001
     44 C           3.1742   76.2918   23.1772 C.ar    1  UNL1        0.0012
     45 C           2.2770   77.3258   22.9076 C.ar    1  UNL1        0.0131
     46 H           0.6522   79.9668   23.8715 H       1  UNL1        0.1660
@<TRIPOS>BOND
     1     1     2    2
     2     2     3   am
     3     3    25    1
     4    25    36    1
     5    36    37    1
     6    37    38   ar
     7    38    39   ar
     8    39    40   ar
     9    40    41   ar
    10    41    42   ar
    11    42    43   ar
    12    43    44   ar
    13    44    45   ar
    14    25    26    1
    15    26    27    2
    16    26    28   am
    17    28    30    1
    18    30    31   ar
    19    31    32   ar
    20    32    33   ar
    21    33    34   ar
    22    34    35   ar
    23     2     5    1
    24     5     6   ar
    25     6     7   ar
    26     7     8   ar
    27     8    12    1
    28    12    13    1
    29    13    14    1
    30    14    15    1
    31    15    18    1
    32    18    19   ar
    33    19    20   ar
    34    20    21   ar
    35    21    22   ar
    36    22    23    1
    37    22    24   ar
    38    15    16    1
    39    16    17    1
    40     8     9   ar
    41     9    10   ar
    42    10    11    1
    43    45    37   ar
    44    35    30   ar
    45    10     5   ar
    46    45    40   ar
    47    17    12    1
    48    24    18   ar
    49     3     4    1
    50    39    46    1
    51    28    29    1
@<TRIPOS>MOLECULE
*****
 46 51 0 0 0
SMALL
GASTEIGER

@<TRIPOS>ATOM
      1 O           9.2256   76.1601   26.5813 O.2     1  UNL1       -0.2701
      2 C           8.2901   76.9975   26.4614 C.2     1  UNL1        0.2483
      3 N           8.1721   78.0883   27.3964 N.am    1  UNL1       -0.2945
      4 H           7.3016   78.6647   27.3725 H       1  UNL1        0.1501
      5 C           7.2831   76.7972   25.3945 C.ar    1  UNL1        0.0808
      6 C           7.7118   76.6488   24.0653 C.ar    1  UNL1        0.0080
      7 C           6.7886   76.4430   23.0380 C.ar    1  UNL1        0.0148
      8 C           5.4122   76.3899   23.3146 C.ar    1  UNL1        0.0502
      9 C           4.9810   76.5589   24.6411 C.ar    1  UNL1        0.0443
     10 C           5.9030   76.7606   25.6728 C.ar    1  UNL1        0.1457
     11 F           5.4341   76.9578   26.9299 F       1  UNL1       -0.2040
     12 N           4.4557   76.1829   22.2528 N.pl3   1  UNL1       -0.3040
     13 C           4.9142   75.7750   20.9144 C.3     1  UNL1        0.1122
     14 C           3.8904   74.8474   20.2444 C.3     1  UNL1        0.1122
     15 N           2.5134   75.3318   20.4215 N.pl3   1  UNL1       -0.3040
     16 C           2.2692   76.5806   21.1519 C.3     1  UNL1        0.1122
     17 C           3.0475   76.5589   22.4679 C.3     1  UNL1        0.1122
     18 C           1.4133   74.5285   19.9553 C.ar    1  UNL1        0.0488
     19 C           0.4723   75.0617   19.0582 C.ar    1  UNL1        0.0146
     20 C          -0.5888   74.2760   18.5986 C.ar    1  UNL1        0.0021
     21 C          -0.7174   72.9519   19.0255 C.ar    1  UNL1        0.0115
     22 C           0.2168   72.4095   19.9133 C.ar    1  UNL1        0.0589
     23 CL          0.0605   70.7442   20.4417 Cl      1  UNL1       -0.0822
     24 C           1.2795   73.1936   20.3759 C.ar    1  UNL1        0.0259
     25 C           9.0895   78.3406   28.5201 C.3     1  UNL1        0.1535
     26 C           9.6725   79.7470   28.4958 C.2     1  UNL1        0.2443
     27 O           9.8658   80.3559   29.5821 O.2     1  UNL1       -0.2730
     28 N          10.0459   80.4040   27.2712 N.am    1  UNL1       -0.2825
     29 H          10.0463   81.4491   27.2665 H       1  UNL1        0.1549
     30 C          10.3289   79.7301   26.0359 C.ar    1  UNL1        0.0535
     31 C          11.3255   78.7463   25.9564 C.ar    1  UNL1        0.0353
     32 C          11.5596   78.1032   24.7386 C.ar    1  UNL1        0.1002
     33 N          10.8356   78.4408   23.6383 N.ar    1  UNL1       -0.2422
     34 C           9.8796   79.4063   23.6834 C.ar    1  UNL1        0.1002
     35 C           9.6180   80.0772   24.8802 C.ar    1  UNL1        0.0353
     36 C           8.4448   77.9419   29.8710 C.3     1  UNL1        0.0569
     37 C           7.5276   76.7522   29.7939 C.ar    1  UNL1       -0.0017
     38 C           7.8952   75.4245   29.5894 C.ar    1  UNL1        0.0681
     39 N           6.8078   74.6212   29.6282 N.ar    1  UNL1       -0.3523
     40 C           5.7567   75.4280   29.8531 C.ar    1  UNL1        0.0563
     41 C           4.4209   75.0548   29.9967 C.ar    1  UNL1        0.0170
     42 C           3.4785   76.0683   30.2491 C.ar    1  UNL1        0.0015
     43 C           3.8870   77.4167   30.3477 C.ar    1  UNL1        0.0001
     44 C           5.2413   77.7637   30.1955 C.ar    1  UNL1        0.0012
     45 C           6.1541   76.7365   29.9530 C.ar    1  UNL1        0.0131
     46 H           6.7934   73.5833   29.5142 H       1  UNL1        0.1660
@<TRIPOS>BOND
     1     1     2    2
     2     2     3   am
     3     3    25    1
     4    25    36    1
     5    36    37    1
     6    37    38   ar
     7    38    39   ar
     8    39    40   ar
     9    40    41   ar
    10    41    42   ar
    11    42    43   ar
    12    43    44   ar
    13    44    45   ar
    14    25    26    1
    15    26    27    2
    16    26    28   am
    17    28    30    1
    18    30    31   ar
    19    31    32   ar
    20    32    33   ar
    21    33    34   ar
    22    34    35   ar
    23     2     5    1
    24     5     6   ar
    25     6     7   ar
    26     7     8   ar
    27     8    12    1
    28    12    13    1
    29    13    14    1
    30    14    15    1
    31    15    18    1
    32    18    19   ar
    33    19    20   ar
    34    20    21   ar
    35    21    22   ar
    36    22    23    1
    37    22    24   ar
    38    15    16    1
    39    16    17    1
    40     8     9   ar
    41     9    10   ar
    42    10    11    1
    43    45    37   ar
    44    35    30   ar
    45    10     5   ar
    46    45    40   ar
    47    17    12    1
    48    24    18   ar
    49     3     4    1
    50    39    46    1
    51    28    29    1
@<TRIPOS>MOLECULE
*****
 46 51 0 0 0
SMALL
GASTEIGER

@<TRIPOS>ATOM
      1 O          10.2041   78.0765   22.0445 O.2     1  UNL1       -0.2701
      2 C           9.1467   78.3814   22.6608 C.2     1  UNL1        0.2483
      3 N           9.2206   79.0191   23.9514 N.am    1  UNL1       -0.2945
      4 H           8.3409   79.1088   24.5070 H       1  UNL1        0.1501
      5 C           7.8413   78.0084   22.0697 C.ar    1  UNL1        0.0808
      6 C           7.1306   76.9220   22.6055 C.ar    1  UNL1        0.0080
      7 C           5.8898   76.5544   22.0809 C.ar    1  UNL1        0.0148
      8 C           5.3337   77.2597   21.0006 C.ar    1  UNL1        0.0502
      9 C           6.0534   78.3337   20.4506 C.ar    1  UNL1        0.0443
     10 C           7.2940   78.7073   20.9763 C.ar    1  UNL1        0.1457
     11 F           7.9670   79.7254   20.3849 F       1  UNL1       -0.2040
     12 N           4.0533   76.8773   20.4532 N.pl3   1  UNL1       -0.3040
     13 C           3.8594   76.8238   18.9946 C.3     1  UNL1        0.1122
     14 C           2.8888   75.6971   18.6125 C.3     1  UNL1        0.1122
     15 N           1.7174   75.6580   19.5005 N.pl3   1  UNL1       -0.3040
     16 C           1.5872   76.6455   20.5778 C.3     1  UNL1        0.1122
     17 C           2.9004   76.7217   21.3573 C.3     1  UNL1        0.1122
     18 C           0.7564   74.5952   19.3606 C.ar    1  UNL1        0.0488
     19 C          -0.4157   74.7894   18.6101 C.ar    1  UNL1        0.0146
     20 C          -1.3421   73.7522   18.4667 C.ar    1  UNL1        0.0021
     21 C          -1.1052   72.5124   19.0660 C.ar    1  UNL1        0.0115
     22 C           0.0607   72.3065   19.8098 C.ar    1  UNL1        0.0589
     23 CL          0.3624   70.7471   20.5541 Cl      1  UNL1       -0.0822
     24 C           0.9895   73.3430   19.9559 C.ar    1  UNL1        0.0259
     25 C          10.4683   79.3803   24.6449 C.3     1  UNL1        0.1535
     26 C          10.2929   80.5625   25.5884 C.2     1  UNL1        0.2443
     27 O          10.4428   81.7337   25.1480 O.2     1  UNL1       -0.2730
     28 N           9.9273   80.3962   26.9703 N.am    1  UNL1       -0.2825
     29 H          10.2100   81.1498   27.6369 H       1  UNL1        0.1549
     30 C           9.2842   79.2325   27.5109 C.ar    1  UNL1        0.0535
     31 C           9.9331   78.4112   28.4446 C.ar    1  UNL1        0.0353
     32 C           9.2665   77.2961   28.9582 C.ar    1  UNL1        0.1002
     33 N           8.0050   77.0041   28.5432 N.ar    1  UNL1       -0.2422
     34 C           7.3625   77.7711   27.6228 C.ar    1  UNL1        0.1002
     35 C           7.9956   78.8918   27.0807 C.ar    1  UNL1        0.0353
     36 C          11.1281   78.1390   25.2955 C.3     1  UNL1        0.0569
     37 C          12.3516   77.6385   24.5777 C.ar    1  UNL1       -0.0017
     38 C          12.4596   76.4745   23.8206 C.ar    1  UNL1        0.0681
     39 N          13.6968   76.3726   23.2836 N.ar    1  UNL1       -0.3523
     40 C          14.3720   77.4593   23.6951 C.ar    1  UNL1        0.0563
     41 C          15.6844   77.8082   23.3790 C.ar    1  UNL1        0.0170
     42 C          16.1905   79.0102   23.9064 C.ar    1  UNL1        0.0015
     43 C          15.3842   79.8252   24.7313 C.ar    1  UNL1        0.0001
     44 C          14.0646   79.4460   25.0356 C.ar    1  UNL1        0.0012
     45 C          13.5876   78.2525   24.4926 C.ar    1  UNL1        0.0131
     46 H          14.0492   75.6068   22.6674 H       1  UNL1        0.1660
@<TRIPOS>BOND
     1     1     2    2
     2     2     3   am
     3     3    25    1
     4    25    36    1
     5    36    37    1
     6    37    38   ar
     7    38    39   ar
     8    39    40   ar
     9    40    41   ar
    10    41    42   ar
    11    42    43   ar
    12    43    44   ar
    13    44    45   ar
    14    25    26    1
    15    26    27    2
    16    26    28   am
    17    28    30    1
    18    30    31   ar
    19    31    32   ar
    20    32    33   ar
    21    33    34   ar
    22    34    35   ar
    23     2     5    1
    24     5     6   ar
    25     6     7   ar
    26     7     8   ar
    27     8    12    1
    28    12    13    1
    29    13    14    1
    30    14    15    1
    31    15    18    1
    32    18    19   ar
    33    19    20   ar
    34    20    21   ar
    35    21    22   ar
    36    22    23    1
    37    22    24   ar
    38    15    16    1
    39    16    17    1
    40     8     9   ar
    41     9    10   ar
    42    10    11    1
    43    45    37   ar
    44    35    30   ar
    45    10     5   ar
    46    45    40   ar
    47    17    12    1
    48    24    18   ar
    49     3     4    1
    50    39    46    1
    51    28    29    1
@<TRIPOS>MOLECULE
*****
 46 51 0 0 0
SMALL
GASTEIGER

@<TRIPOS>ATOM
      1 O           9.2682   75.9603   26.5533 O.2     1  UNL1       -0.2701
      2 C           8.3798   76.8400   26.3865 C.2     1  UNL1        0.2483
      3 N           8.3151   77.9783   27.2686 N.am    1  UNL1       -0.2945
      4 H           7.4772   78.5987   27.2105 H       1  UNL1        0.1501
      5 C           7.3699   76.6439   25.3216 C.ar    1  UNL1        0.0808
      6 C           7.7820   76.6302   23.9790 C.ar    1  UNL1        0.0080
      7 C           6.8568   76.4322   22.9520 C.ar    1  UNL1        0.0148
      8 C           5.4942   76.2521   23.2431 C.ar    1  UNL1        0.0502
      9 C           5.0780   76.2862   24.5845 C.ar    1  UNL1        0.0443
     10 C           6.0024   76.4798   25.6157 C.ar    1  UNL1        0.1457
     11 F           5.5450   76.5443   26.8907 F       1  UNL1       -0.2040
     12 N           4.5353   76.0528   22.1820 N.pl3   1  UNL1       -0.3040
     13 C           4.9821   75.5791   20.8615 C.3     1  UNL1        0.1122
     14 C           3.9207   74.6768   20.2158 C.3     1  UNL1        0.1122
     15 N           2.5663   75.2293   20.3666 N.pl3   1  UNL1       -0.3040
     16 C           2.3755   76.5121   21.0526 C.3     1  UNL1        0.1122
     17 C           3.1446   76.4998   22.3741 C.3     1  UNL1        0.1122
     18 C           1.4333   74.4616   19.9199 C.ar    1  UNL1        0.0488
     19 C           0.4928   75.0257   19.0412 C.ar    1  UNL1        0.0146
     20 C          -0.6007   74.2743   18.6004 C.ar    1  UNL1        0.0021
     21 C          -0.7626   72.9540   19.0279 C.ar    1  UNL1        0.0115
     22 C           0.1706   72.3810   19.8973 C.ar    1  UNL1        0.0589
     23 CL         -0.0277   70.7204   20.4263 Cl      1  UNL1       -0.0822
     24 C           1.2657   73.1307   20.3411 C.ar    1  UNL1        0.0259
     25 C           9.2382   78.2337   28.3870 C.3     1  UNL1        0.1535
     26 C           9.7200   79.6775   28.4308 C.2     1  UNL1        0.2443
     27 O           9.8985   80.2370   29.5458 O.2     1  UNL1       -0.2730
     28 N          10.0139   80.4268   27.2380 N.am    1  UNL1       -0.2825
     29 H           9.9408   81.4679   27.2935 H       1  UNL1        0.1549
     30 C          10.3111   79.8450   25.9600 C.ar    1  UNL1        0.0535
     31 C          11.3603   78.9271   25.8056 C.ar    1  UNL1        0.0353
     32 C          11.6071   78.3719   24.5477 C.ar    1  UNL1        0.1002
     33 N          10.8442   78.7318   23.4813 N.ar    1  UNL1       -0.2422
     34 C           9.8358   79.6360   23.5996 C.ar    1  UNL1        0.1002
     35 C           9.5596   80.2184   24.8387 C.ar    1  UNL1        0.0353
     36 C           8.6543   77.7165   29.7254 C.3     1  UNL1        0.0569
     37 C           7.1519   77.6540   29.7642 C.ar    1  UNL1       -0.0017
     38 C           6.2662   78.7177   29.6098 C.ar    1  UNL1        0.0681
     39 N           4.9876   78.2789   29.6540 N.ar    1  UNL1       -0.3523
     40 C           5.0564   76.9492   29.8365 C.ar    1  UNL1        0.0563
     41 C           3.9923   76.0523   29.9227 C.ar    1  UNL1        0.0170
     42 C           4.2937   74.6892   30.0964 C.ar    1  UNL1        0.0015
     43 C           5.6360   74.2585   30.1826 C.ar    1  UNL1        0.0001
     44 C           6.6889   75.1868   30.0952 C.ar    1  UNL1        0.0012
     45 C           6.3598   76.5308   29.9160 C.ar    1  UNL1        0.0131
     46 H           4.1245   78.8585   29.5569 H       1  UNL1        0.1660
@<TRIPOS>BOND
     1     1     2    2
     2     2     3   am
     3     3    25    1
     4    25    36    1
     5    36    37    1
     6    37    38   ar
     7    38    39   ar
     8    39    40   ar
     9    40    41   ar
    10    41    42   ar
    11    42    43   ar
    12    43    44   ar
    13    44    45   ar
    14    25    26    1
    15    26    27    2
    16    26    28   am
    17    28    30    1
    18    30    31   ar
    19    31    32   ar
    20    32    33   ar
    21    33    34   ar
    22    34    35   ar
    23     2     5    1
    24     5     6   ar
    25     6     7   ar
    26     7     8   ar
    27     8    12    1
    28    12    13    1
    29    13    14    1
    30    14    15    1
    31    15    18    1
    32    18    19   ar
    33    19    20   ar
    34    20    21   ar
    35    21    22   ar
    36    22    23    1
    37    22    24   ar
    38    15    16    1
    39    16    17    1
    40     8     9   ar
    41     9    10   ar
    42    10    11    1
    43    45    37   ar
    44    35    30   ar
    45    10     5   ar
    46    45    40   ar
    47    17    12    1
    48    24    18   ar
    49     3     4    1
    50    39    46    1
    51    28    29    1
@<TRIPOS>MOLECULE
*****
 46 51 0 0 0
SMALL
GASTEIGER

@<TRIPOS>ATOM
      1 O           6.3180   73.6885   23.9711 O.2     1  UNL1       -0.2701
      2 C           6.4266   74.9448   23.9440 C.2     1  UNL1        0.2483
      3 N           6.2088   75.6627   22.7132 N.am    1  UNL1       -0.2945
      4 H           6.4650   76.6746   22.6818 H       1  UNL1        0.1501
      5 C           6.8496   75.6530   25.1736 C.ar    1  UNL1        0.0808
      6 C           7.2450   76.9980   25.0894 C.ar    1  UNL1        0.0080
      7 C           7.6347   77.6988   26.2327 C.ar    1  UNL1        0.0148
      8 C           7.6470   77.0676   27.4877 C.ar    1  UNL1        0.0502
      9 C           7.2714   75.7163   27.5699 C.ar    1  UNL1        0.0443
     10 C           6.8763   75.0129   26.4278 C.ar    1  UNL1        0.1457
     11 F           6.5611   73.6999   26.5536 F       1  UNL1       -0.2040
     12 N           8.0551   77.7890   28.6702 N.pl3   1  UNL1       -0.3040
     13 C           9.4094   77.6048   29.2176 C.3     1  UNL1        0.1122
     14 C           9.9336   78.9105   29.8322 C.3     1  UNL1        0.1122
     15 N           8.9096   79.5837   30.6449 N.pl3   1  UNL1       -0.3040
     16 C           7.5842   78.9734   30.7977 C.3     1  UNL1        0.1122
     17 C           7.0533   78.5631   29.4238 C.3     1  UNL1        0.1122
     18 C           9.1889   80.8793   31.2071 C.ar    1  UNL1        0.0488
     19 C           9.5686   81.9485   30.3779 C.ar    1  UNL1        0.0146
     20 C           9.8286   83.2084   30.9252 C.ar    1  UNL1        0.0021
     21 C           9.7075   83.4136   32.3019 C.ar    1  UNL1        0.0115
     22 C           9.3244   82.3583   33.1353 C.ar    1  UNL1        0.0589
     23 CL          9.1632   82.6187   34.8624 Cl      1  UNL1       -0.0822
     24 C           9.0643   81.0958   32.5907 C.ar    1  UNL1        0.0259
     25 C           5.8390   75.0446   21.4289 C.3     1  UNL1        0.1535
     26 C           6.9442   74.1630   20.8633 C.2     1  UNL1        0.2443
     27 O           6.6457   73.2218   20.0803 O.2     1  UNL1       -0.2730
     28 N           8.3339   74.3833   21.1647 N.am    1  UNL1       -0.2825
     29 H           8.9762   73.5612   21.1016 H       1  UNL1        0.1549
     30 C           8.8820   75.6253   21.6307 C.ar    1  UNL1        0.0535
     31 C           9.8326   75.6590   22.6615 C.ar    1  UNL1        0.0353
     32 C          10.3528   76.8876   23.0756 C.ar    1  UNL1        0.1002
     33 N           9.9280   78.0400   22.4923 N.ar    1  UNL1       -0.2422
     34 C           8.9914   78.0364   21.5069 C.ar    1  UNL1        0.1002
     35 C           8.4423   76.8298   21.0673 C.ar    1  UNL1        0.0353
     36 C           4.4555   74.3534   21.5168 C.3     1  UNL1        0.0569
     37 C           3.2912   75.2527   21.2033 C.ar    1  UNL1       -0.0017
     38 C           2.4383   75.1649   20.1057 C.ar    1  UNL1        0.0681
     39 N           1.4749   76.1113   20.1783 N.ar    1  UNL1       -0.3523
     40 C           1.7114   76.7974   21.3096 C.ar    1  UNL1        0.0563
     41 C           0.9681   77.8585   21.8250 C.ar    1  UNL1        0.0170
     42 C           1.3855   78.4228   23.0442 C.ar    1  UNL1        0.0015
     43 C           2.5251   77.9219   23.7114 C.ar    1  UNL1        0.0001
     44 C           3.2572   76.8522   23.1658 C.ar    1  UNL1        0.0012
     45 C           2.8155   76.3083   21.9592 C.ar    1  UNL1        0.0131
     46 H           0.7006   76.2683   19.4956 H       1  UNL1        0.1660
@<TRIPOS>BOND
     1     1     2    2
     2     2     3   am
     3     3    25    1
     4    25    36    1
     5    36    37    1
     6    37    38   ar
     7    38    39   ar
     8    39    40   ar
     9    40    41   ar
    10    41    42   ar
    11    42    43   ar
    12    43    44   ar
    13    44    45   ar
    14    25    26    1
    15    26    27    2
    16    26    28   am
    17    28    30    1
    18    30    31   ar
    19    31    32   ar
    20    32    33   ar
    21    33    34   ar
    22    34    35   ar
    23     2     5    1
    24     5     6   ar
    25     6     7   ar
    26     7     8   ar
    27     8    12    1
    28    12    13    1
    29    13    14    1
    30    14    15    1
    31    15    18    1
    32    18    19   ar
    33    19    20   ar
    34    20    21   ar
    35    21    22   ar
    36    22    23    1
    37    22    24   ar
    38    15    16    1
    39    16    17    1
    40     8     9   ar
    41     9    10   ar
    42    10    11    1
    43    45    37   ar
    44    35    30   ar
    45    10     5   ar
    46    45    40   ar
    47    17    12    1
    48    24    18   ar
    49     3     4    1
    50    39    46    1
    51    28    29    1
