@<TRIPOS>MOLECULE
*****
 25 28 0 0 0
SMALL
GASTEIGER

@<TRIPOS>ATOM
      1 C          48.9023   13.6822  -22.9799 C.3     1  UNL1        0.1428
      2 O          50.1692   13.2442  -22.5493 O.3     1  UNL1       -0.3752
      3 C          48.8425   15.2377  -22.9515 C.3     1  UNL1        0.0508
      4 C          47.9993   15.6948  -24.1668 C.3     1  UNL1        0.0606
      5 BR         49.0152   16.8587  -25.3653 Br      1  UNL1       -0.0816
      6 C          47.5203   14.3802  -24.7910 C.3     1  UNL1        0.0141
      7 C          47.0503   14.2677  -26.2469 C.3     1  UNL1        0.0053
      8 C          46.0933   15.3637  -26.7459 C.3     1  UNL1        0.0050
      9 C          45.6653   15.1064  -28.2218 C.3     1  UNL1        0.0261
     10 C          45.9196   13.6958  -28.7601 C.ar    1  UNL1       -0.0231
     11 C          45.8190   13.4759  -30.1423 C.ar    1  UNL1        0.0320
     12 C          46.1130   12.2239  -30.6877 C.ar    1  UNL1        0.1333
     13 O          46.0095   12.0329  -32.0637 O.3     1  UNL1       -0.5055
     14 C          46.5168   11.1775  -29.8517 C.ar    1  UNL1        0.0363
     15 C          46.6105   11.3713  -28.4717 C.ar    1  UNL1       -0.0015
     16 C          46.2901   12.6210  -27.9079 C.ar    1  UNL1       -0.0263
     17 C          46.3122   12.9116  -26.4242 C.3     1  UNL1        0.0221
     18 C          46.7011   11.7877  -25.3990 C.3     1  UNL1        0.0045
     19 C          48.1178   11.8751  -24.7909 C.3     1  UNL1        0.0036
     20 C          48.6184   13.3323  -24.4757 C.3     1  UNL1        0.0341
     21 C          49.9371   13.5403  -25.2961 C.3     1  UNL1        0.0034
     22 H          50.1875   12.2545  -22.6350 H       1  UNL1        0.2114
     23 H          46.2182   11.1382  -32.4915 H       1  UNL1        0.2922
     24 C          47.0278   12.6933  -21.3218 C.1     1  UNL1       -0.0119
     25 C          47.8668   13.1377  -22.0650 C.1     1  UNL1       -0.0525
@<TRIPOS>BOND
     1    24    25    3
     2     1    25    1
     3     1     2    1
     4     1     3    1
     5     3     4    1
     6     4     5    1
     7     4     6    1
     8     6     7    1
     9     7     8    1
    10     8     9    1
    11     9    10    1
    12    10    11   ar
    13    11    12   ar
    14    12    13    1
    15    12    14   ar
    16    14    15   ar
    17    15    16   ar
    18    16    17    1
    19    17    18    1
    20    18    19    1
    21    19    20    1
    22    20    21    1
    23    20     1    1
    24    20     6    1
    25    17     7    1
    26    16    10   ar
    27     2    22    1
    28    13    23    1
@<TRIPOS>MOLECULE
*****
 25 28 0 0 0
SMALL
GASTEIGER

@<TRIPOS>ATOM
      1 C          49.8366   11.1349  -22.8793 C.3     1  UNL1        0.1428
      2 O          50.3184   11.0657  -21.5582 O.3     1  UNL1       -0.3752
      3 C          48.3476   10.6821  -22.9237 C.3     1  UNL1        0.0508
      4 C          47.6225   11.5641  -23.9692 C.3     1  UNL1        0.0606
      5 BR         46.1417   12.5670  -23.1789 Br      1  UNL1       -0.0816
      6 C          48.7450   12.4228  -24.5607 C.3     1  UNL1        0.0141
      7 C          48.4895   13.7502  -25.2859 C.3     1  UNL1        0.0053
      8 C          47.3423   13.7628  -26.3106 C.3     1  UNL1        0.0050
      9 C          47.2192   15.1552  -26.9989 C.3     1  UNL1        0.0261
     10 C          48.4258   16.0865  -26.8541 C.ar    1  UNL1       -0.0231
     11 C          48.2775   17.4374  -27.2033 C.ar    1  UNL1        0.0320
     12 C          49.3278   18.3400  -27.0198 C.ar    1  UNL1        0.1333
     13 O          49.1534   19.6769  -27.3706 O.3     1  UNL1       -0.5055
     14 C          50.5395   17.8979  -26.4783 C.ar    1  UNL1        0.0363
     15 C          50.7126   16.5548  -26.1365 C.ar    1  UNL1       -0.0015
     16 C          49.6706   15.6308  -26.3426 C.ar    1  UNL1       -0.0263
     17 C          49.7808   14.1511  -26.0519 C.3     1  UNL1        0.0221
     18 C          51.1177   13.5477  -25.4914 C.3     1  UNL1        0.0045
     19 C          51.1338   13.1962  -23.9879 C.3     1  UNL1        0.0036
     20 C          49.7914   12.5961  -23.4300 C.3     1  UNL1        0.0341
     21 C          49.3186   13.5489  -22.2794 C.3     1  UNL1        0.0034
     22 H          51.2488   11.4144  -21.5616 H       1  UNL1        0.2114
     23 H          49.8939   20.3578  -27.2477 H       1  UNL1        0.2922
     24 C          51.3029    9.4968  -24.4308 C.1     1  UNL1       -0.0119
     25 C          50.6465   10.2320  -23.7363 C.1     1  UNL1       -0.0525
@<TRIPOS>BOND
     1    24    25    3
     2     1    25    1
     3     1     2    1
     4     1     3    1
     5     3     4    1
     6     4     5    1
     7     4     6    1
     8     6     7    1
     9     7     8    1
    10     8     9    1
    11     9    10    1
    12    10    11   ar
    13    11    12   ar
    14    12    13    1
    15    12    14   ar
    16    14    15   ar
    17    15    16   ar
    18    16    17    1
    19    17    18    1
    20    18    19    1
    21    19    20    1
    22    20    21    1
    23    20     1    1
    24    20     6    1
    25    17     7    1
    26    16    10   ar
    27     2    22    1
    28    13    23    1
@<TRIPOS>MOLECULE
*****
 25 28 0 0 0
SMALL
GASTEIGER

@<TRIPOS>ATOM
      1 C          46.9398   12.5183  -22.7646 C.3     1  UNL1        0.1428
      2 O          45.5979   12.1254  -22.5999 O.3     1  UNL1       -0.3752
      3 C          47.7217   11.4181  -23.5407 C.3     1  UNL1        0.0508
      4 C          48.7338   12.1319  -24.4696 C.3     1  UNL1        0.0606
      5 BR         48.4378   11.6890  -26.3510 Br      1  UNL1       -0.0816
      6 C          48.5666   13.6137  -24.1179 C.3     1  UNL1        0.0141
      7 C          48.9928   14.7497  -25.0565 C.3     1  UNL1        0.0053
      8 C          50.3735   14.6103  -25.7201 C.3     1  UNL1        0.0050
      9 C          50.6956   15.8466  -26.6119 C.3     1  UNL1        0.0261
     10 C          49.8328   17.0894  -26.3763 C.ar    1  UNL1       -0.0231
     11 C          49.8797   18.1282  -27.3183 C.ar    1  UNL1        0.0320
     12 C          49.0567   19.2490  -27.1843 C.ar    1  UNL1        0.1333
     13 O          49.1194   20.2646  -28.1358 O.3     1  UNL1       -0.5055
     14 C          48.1722   19.3385  -26.1042 C.ar    1  UNL1        0.0363
     15 C          48.1193   18.3219  -25.1480 C.ar    1  UNL1       -0.0015
     16 C          48.9636   17.2006  -25.2578 C.ar    1  UNL1       -0.0263
     17 C          49.0147   16.0765  -24.2478 C.3     1  UNL1        0.0221
     18 C          48.0985   16.1100  -22.9730 C.3     1  UNL1        0.0045
     19 C          46.8634   15.1835  -22.9922 C.3     1  UNL1        0.0036
     20 C          47.0922   13.7827  -23.6695 C.3     1  UNL1        0.0341
     21 C          46.0635   13.6809  -24.8470 C.3     1  UNL1        0.0034
     22 H          45.1208   12.8737  -22.1532 H       1  UNL1        0.2114
     23 H          48.5342   21.0894  -28.0696 H       1  UNL1        0.2922
     24 C          48.0582   12.8497  -20.3398 C.1     1  UNL1       -0.0119
     25 C          47.5565   12.7026  -21.4262 C.1     1  UNL1       -0.0525
@<TRIPOS>BOND
     1    24    25    3
     2     1    25    1
     3     1     2    1
     4     1     3    1
     5     3     4    1
     6     4     5    1
     7     4     6    1
     8     6     7    1
     9     7     8    1
    10     8     9    1
    11     9    10    1
    12    10    11   ar
    13    11    12   ar
    14    12    13    1
    15    12    14   ar
    16    14    15   ar
    17    15    16   ar
    18    16    17    1
    19    17    18    1
    20    18    19    1
    21    19    20    1
    22    20    21    1
    23    20     1    1
    24    20     6    1
    25    17     7    1
    26    16    10   ar
    27     2    22    1
    28    13    23    1
@<TRIPOS>MOLECULE
*****
 25 28 0 0 0
SMALL
GASTEIGER

@<TRIPOS>ATOM
      1 C          46.8458   15.8437  -26.3050 C.3     1  UNL1        0.1428
      2 O          46.0339   16.9415  -25.9614 O.3     1  UNL1       -0.3752
      3 C          48.2811   16.3360  -26.6536 C.3     1  UNL1        0.0508
      4 C          49.2790   15.2767  -26.1256 C.3     1  UNL1        0.0606
      5 BR         50.5301   16.0338  -24.8276 Br      1  UNL1       -0.0816
      6 C          48.3750   14.1651  -25.5832 C.3     1  UNL1        0.0141
      7 C          48.8489   13.1264  -24.5587 C.3     1  UNL1        0.0053
      8 C          50.2237   12.4862  -24.8159 C.3     1  UNL1        0.0050
      9 C          50.5621   11.4253  -23.7261 C.3     1  UNL1        0.0261
     10 C          49.3867   10.9352  -22.8762 C.ar    1  UNL1       -0.0231
     11 C          49.6596   10.2019  -21.7114 C.ar    1  UNL1        0.0320
     12 C          48.6242    9.7965  -20.8658 C.ar    1  UNL1        0.1333
     13 O          48.9223    9.0732  -19.7131 O.3     1  UNL1       -0.5055
     14 C          47.3010   10.1266  -21.1773 C.ar    1  UNL1        0.0363
     15 C          47.0062   10.8442  -22.3387 C.ar    1  UNL1       -0.0015
     16 C          48.0390   11.2343  -23.2125 C.ar    1  UNL1       -0.0263
     17 C          47.8144   11.9675  -24.5156 C.3     1  UNL1        0.0221
     18 C          46.3608   12.3372  -24.9803 C.3     1  UNL1        0.0045
     19 C          45.9427   13.8142  -24.8131 C.3     1  UNL1        0.0036
     20 C          47.0750   14.8645  -25.1095 C.3     1  UNL1        0.0341
     21 C          47.2579   15.7076  -23.8015 C.3     1  UNL1        0.0034
     22 H          45.1470   16.5836  -25.6920 H       1  UNL1        0.2114
     23 H          48.1952    8.7665  -19.0774 H       1  UNL1        0.2922
     24 C          45.7890   14.6143  -28.4527 C.1     1  UNL1       -0.0119
     25 C          46.2622   15.1640  -27.4895 C.1     1  UNL1       -0.0525
@<TRIPOS>BOND
     1    24    25    3
     2     1    25    1
     3     1     2    1
     4     1     3    1
     5     3     4    1
     6     4     5    1
     7     4     6    1
     8     6     7    1
     9     7     8    1
    10     8     9    1
    11     9    10    1
    12    10    11   ar
    13    11    12   ar
    14    12    13    1
    15    12    14   ar
    16    14    15   ar
    17    15    16   ar
    18    16    17    1
    19    17    18    1
    20    18    19    1
    21    19    20    1
    22    20    21    1
    23    20     1    1
    24    20     6    1
    25    17     7    1
    26    16    10   ar
    27     2    22    1
    28    13    23    1
@<TRIPOS>MOLECULE
*****
 25 28 0 0 0
SMALL
GASTEIGER

@<TRIPOS>ATOM
      1 C          48.6793   12.6985  -21.4444 C.3     1  UNL1        0.1428
      2 O          49.7370   11.8522  -21.0605 O.3     1  UNL1       -0.3752
      3 C          49.0681   14.1832  -21.1823 C.3     1  UNL1        0.0508
      4 C          48.4702   15.0320  -22.3307 C.3     1  UNL1        0.0606
      5 BR         49.8514   16.0007  -23.3193 Br      1  UNL1       -0.0816
      6 C          47.6735   14.0164  -23.1558 C.3     1  UNL1        0.0141
      7 C          47.2835   14.2503  -24.6209 C.3     1  UNL1        0.0053
      8 C          46.7157   15.6374  -24.9670 C.3     1  UNL1        0.0050
      9 C          46.3256   15.7250  -26.4729 C.3     1  UNL1        0.0261
     10 C          46.1966   14.3910  -27.2132 C.ar    1  UNL1       -0.0231
     11 C          46.1241   14.4046  -28.6145 C.ar    1  UNL1        0.0320
     12 C          46.0792   13.2100  -29.3371 C.ar    1  UNL1        0.1333
     13 O          46.0118   13.2509  -30.7280 O.3     1  UNL1       -0.5055
     14 C          46.1113   11.9856  -28.6613 C.ar    1  UNL1        0.0363
     15 C          46.1698   11.9496  -27.2663 C.ar    1  UNL1       -0.0015
     16 C          46.1877   13.1473  -26.5263 C.ar    1  UNL1       -0.0263
     17 C          46.1991   13.2095  -25.0156 C.3     1  UNL1        0.0221
     18 C          46.1829   11.8899  -24.1647 C.3     1  UNL1        0.0045
     19 C          47.5236   11.4717  -23.5229 C.3     1  UNL1        0.0036
     20 C          48.4015   12.6588  -22.9813 C.3     1  UNL1        0.0341
     21 C          49.7732   12.5820  -23.7348 C.3     1  UNL1        0.0034
     22 H          49.4750   10.9227  -21.2945 H       1  UNL1        0.2114
     23 H          45.9807   12.4029  -31.2820 H       1  UNL1        0.2922
     24 C          46.4999   12.0859  -19.9899 C.1     1  UNL1       -0.0119
     25 C          47.4756   12.3607  -20.6429 C.1     1  UNL1       -0.0525
@<TRIPOS>BOND
     1    24    25    3
     2     1    25    1
     3     1     2    1
     4     1     3    1
     5     3     4    1
     6     4     5    1
     7     4     6    1
     8     6     7    1
     9     7     8    1
    10     8     9    1
    11     9    10    1
    12    10    11   ar
    13    11    12   ar
    14    12    13    1
    15    12    14   ar
    16    14    15   ar
    17    15    16   ar
    18    16    17    1
    19    17    18    1
    20    18    19    1
    21    19    20    1
    22    20    21    1
    23    20     1    1
    24    20     6    1
    25    17     7    1
    26    16    10   ar
    27     2    22    1
    28    13    23    1
@<TRIPOS>MOLECULE
*****
 25 28 0 0 0
SMALL
GASTEIGER

@<TRIPOS>ATOM
      1 C          49.5751   10.3009  -21.9806 C.3     1  UNL1        0.1428
      2 O          50.4297   10.2971  -20.8617 O.3     1  UNL1       -0.3752
      3 C          48.0997   10.1135  -21.5200 C.3     1  UNL1        0.0508
      4 C          47.2096   10.9858  -22.4384 C.3     1  UNL1        0.0606
      5 BR         46.1943   12.3144  -21.4249 Br      1  UNL1       -0.0816
      6 C          48.1964   11.5632  -23.4582 C.3     1  UNL1        0.0141
      7 C          47.9069   12.8250  -24.2811 C.3     1  UNL1        0.0053
      8 C          46.5106   12.9231  -24.9189 C.3     1  UNL1        0.0050
      9 C          46.3657   14.2295  -25.7556 C.3     1  UNL1        0.0261
     10 C          47.6700   14.9457  -26.1163 C.ar    1  UNL1       -0.0231
     11 C          47.6013   16.2539  -26.6191 C.ar    1  UNL1        0.0320
     12 C          48.7666   16.9737  -26.8934 C.ar    1  UNL1        0.1333
     13 O          48.6709   18.2726  -27.3879 O.3     1  UNL1       -0.5055
     14 C          50.0166   16.3901  -26.6618 C.ar    1  UNL1        0.0363
     15 C          50.1075   15.0843  -26.1744 C.ar    1  UNL1       -0.0015
     16 C          48.9400   14.3395  -25.9203 C.ar    1  UNL1       -0.0263
     17 C          48.9377   12.9054  -25.4412 C.3     1  UNL1        0.0221
     18 C          50.2900   12.1442  -25.2020 C.3     1  UNL1        0.0045
     19 C          50.7254   11.9661  -23.7312 C.3     1  UNL1        0.0036
     20 C          49.5555   11.6765  -22.7209 C.3     1  UNL1        0.0341
     21 C          49.5942   12.8201  -21.6505 C.3     1  UNL1        0.0034
     22 H          51.3507   10.4750  -21.1893 H       1  UNL1        0.2114
     23 H          49.4964   18.8229  -27.5946 H       1  UNL1        0.2922
     24 C          50.2594    8.2695  -23.6072 C.1     1  UNL1       -0.0119
     25 C          49.9516    9.1800  -22.8792 C.1     1  UNL1       -0.0525
@<TRIPOS>BOND
     1    24    25    3
     2     1    25    1
     3     1     2    1
     4     1     3    1
     5     3     4    1
     6     4     5    1
     7     4     6    1
     8     6     7    1
     9     7     8    1
    10     8     9    1
    11     9    10    1
    12    10    11   ar
    13    11    12   ar
    14    12    13    1
    15    12    14   ar
    16    14    15   ar
    17    15    16   ar
    18    16    17    1
    19    17    18    1
    20    18    19    1
    21    19    20    1
    22    20    21    1
    23    20     1    1
    24    20     6    1
    25    17     7    1
    26    16    10   ar
    27     2    22    1
    28    13    23    1
@<TRIPOS>MOLECULE
*****
 25 28 0 0 0
SMALL
GASTEIGER

@<TRIPOS>ATOM
      1 C          48.5711   17.3819  -26.5311 C.3     1  UNL1        0.1428
      2 O          49.7825   17.6805  -27.1838 O.3     1  UNL1       -0.3752
      3 C          47.4853   17.0007  -27.5798 C.3     1  UNL1        0.0508
      4 C          46.6147   15.8786  -26.9636 C.3     1  UNL1        0.0606
      5 BR         46.6499   14.2492  -28.0439 Br      1  UNL1       -0.0816
      6 C          47.1695   15.7275  -25.5434 C.3     1  UNL1        0.0141
      7 C          46.9687   14.4642  -24.6967 C.3     1  UNL1        0.0053
      8 C          45.5507   13.8682  -24.6786 C.3     1  UNL1        0.0050
      9 C          45.4789   12.6174  -23.7523 C.3     1  UNL1        0.0261
     10 C          46.6376   12.4422  -22.7671 C.ar    1  UNL1       -0.0231
     11 C          46.7790   11.2115  -22.1081 C.ar    1  UNL1        0.0320
     12 C          47.8615   10.9798  -21.2562 C.ar    1  UNL1        0.1333
     13 O          47.9811    9.7476  -20.6173 O.3     1  UNL1       -0.5055
     14 C          48.8191   11.9803  -21.0588 C.ar    1  UNL1        0.0363
     15 C          48.6901   13.2172  -21.6944 C.ar    1  UNL1       -0.0015
     16 C          47.5887   13.4717  -22.5336 C.ar    1  UNL1       -0.0263
     17 C          47.3367   14.7935  -23.2233 C.3     1  UNL1        0.0221
     18 C          48.3256   15.9967  -23.0230 C.3     1  UNL1        0.0045
     19 C          49.2878   16.2950  -24.1933 C.3     1  UNL1        0.0036
     20 C          48.6692   16.1114  -25.6274 C.3     1  UNL1        0.0341
     21 C          49.5493   15.0430  -26.3617 C.3     1  UNL1        0.0034
     22 H          50.4621   17.8625  -26.4823 H       1  UNL1        0.2114
     23 H          48.7555    9.5462  -19.9954 H       1  UNL1        0.2922
     24 C          47.7579   19.5535  -25.1660 C.1     1  UNL1       -0.0119
     25 C          48.1214   18.5796  -25.7768 C.1     1  UNL1       -0.0525
@<TRIPOS>BOND
     1    24    25    3
     2     1    25    1
     3     1     2    1
     4     1     3    1
     5     3     4    1
     6     4     5    1
     7     4     6    1
     8     6     7    1
     9     7     8    1
    10     8     9    1
    11     9    10    1
    12    10    11   ar
    13    11    12   ar
    14    12    13    1
    15    12    14   ar
    16    14    15   ar
    17    15    16   ar
    18    16    17    1
    19    17    18    1
    20    18    19    1
    21    19    20    1
    22    20    21    1
    23    20     1    1
    24    20     6    1
    25    17     7    1
    26    16    10   ar
    27     2    22    1
    28    13    23    1
@<TRIPOS>MOLECULE
*****
 25 28 0 0 0
SMALL
GASTEIGER

@<TRIPOS>ATOM
      1 C          48.5080   15.8230  -25.8687 C.3     1  UNL1        0.1428
      2 O          49.5501   16.2099  -26.7328 O.3     1  UNL1       -0.3752
      3 C          47.4039   15.0760  -26.6729 C.3     1  UNL1        0.0508
      4 C          46.8529   13.9454  -25.7701 C.3     1  UNL1        0.0606
      5 BR         47.0841   12.1822  -26.5832 Br      1  UNL1       -0.0816
      6 C          47.5902   14.1493  -24.4426 C.3     1  UNL1        0.0141
      7 C          47.7461   13.0413  -23.3933 C.3     1  UNL1        0.0053
      8 C          46.4874   12.2172  -23.0729 C.3     1  UNL1        0.0050
      9 C          46.7757   11.1581  -21.9671 C.3     1  UNL1        0.0261
     10 C          48.0541   11.3681  -21.1511 C.ar    1  UNL1       -0.0231
     11 C          48.5143   10.3186  -20.3414 C.ar    1  UNL1        0.0320
     12 C          49.7140   10.4368  -19.6357 C.ar    1  UNL1        0.1333
     13 O          50.1510    9.3785  -18.8421 O.3     1  UNL1       -0.5055
     14 C          50.4697   11.6096  -19.7381 C.ar    1  UNL1        0.0363
     15 C          50.0231   12.6714  -20.5279 C.ar    1  UNL1       -0.0015
     16 C          48.8019   12.5742  -21.2218 C.ar    1  UNL1       -0.0263
     17 C          48.2124   13.6868  -22.0588 C.3     1  UNL1        0.0221
     18 C          48.9586   15.0618  -22.1940 C.3     1  UNL1        0.0045
     19 C          49.6973   15.3126  -23.5265 C.3     1  UNL1        0.0036
     20 C          48.9629   14.7708  -24.8073 C.3     1  UNL1        0.0341
     21 C          49.9452   13.7615  -25.4939 C.3     1  UNL1        0.0034
     22 H          50.2577   16.6308  -26.1767 H       1  UNL1        0.2114
     23 H          51.0178    9.4307  -18.3196 H       1  UNL1        0.2922
     24 C          47.4436   18.0236  -24.7439 C.1     1  UNL1       -0.0119
     25 C          47.9211   17.0371  -25.2465 C.1     1  UNL1       -0.0525
@<TRIPOS>BOND
     1    24    25    3
     2     1    25    1
     3     1     2    1
     4     1     3    1
     5     3     4    1
     6     4     5    1
     7     4     6    1
     8     6     7    1
     9     7     8    1
    10     8     9    1
    11     9    10    1
    12    10    11   ar
    13    11    12   ar
    14    12    13    1
    15    12    14   ar
    16    14    15   ar
    17    15    16   ar
    18    16    17    1
    19    17    18    1
    20    18    19    1
    21    19    20    1
    22    20    21    1
    23    20     1    1
    24    20     6    1
    25    17     7    1
    26    16    10   ar
    27     2    22    1
    28    13    23    1
@<TRIPOS>MOLECULE
*****
 25 28 0 0 0
SMALL
GASTEIGER

@<TRIPOS>ATOM
      1 C          48.2809   11.7878  -21.9163 C.3     1  UNL1        0.1428
      2 O          48.7458   10.4647  -22.0409 O.3     1  UNL1       -0.3752
      3 C          49.3962   12.6849  -21.3037 C.3     1  UNL1        0.0508
      4 C          49.3070   14.0719  -21.9858 C.3     1  UNL1        0.0606
      5 BR         50.9685   14.5444  -22.9019 Br      1  UNL1       -0.0816
      6 C          48.0777   13.9520  -22.8924 C.3     1  UNL1        0.0141
      7 C          47.8359   14.8671  -24.0995 C.3     1  UNL1        0.0053
      8 C          48.0723   16.3710  -23.8791 C.3     1  UNL1        0.0050
      9 C          47.7526   17.1849  -25.1686 C.3     1  UNL1        0.0261
     10 C          46.9267   16.4597  -26.2346 C.ar    1  UNL1       -0.0231
     11 C          46.8409   17.0236  -27.5166 C.ar    1  UNL1        0.0320
     12 C          46.1600   16.3622  -28.5415 C.ar    1  UNL1        0.1333
     13 O          46.0931   16.9415  -29.8067 O.3     1  UNL1       -0.5055
     14 C          45.5603   15.1231  -28.2929 C.ar    1  UNL1        0.0363
     15 C          45.6223   14.5506  -27.0204 C.ar    1  UNL1       -0.0015
     16 C          46.2822   15.2208  -25.9728 C.ar    1  UNL1       -0.0263
     17 C          46.3583   14.7062  -24.5531 C.3     1  UNL1        0.0221
     18 C          45.6713   13.3499  -24.1605 C.3     1  UNL1        0.0045
     19 C          46.6075   12.1359  -23.9753 C.3     1  UNL1        0.0036
     20 C          47.9893   12.4580  -23.2971 C.3     1  UNL1        0.0341
     21 C          49.0997   12.0167  -24.3107 C.3     1  UNL1        0.0034
     22 H          48.0302    9.9379  -22.4854 H       1  UNL1        0.2114
     23 H          45.6096   16.4869  -30.5726 H       1  UNL1        0.2922
     24 C          46.1344   11.8128  -20.2938 C.1     1  UNL1       -0.0119
     25 C          47.0971   11.8010  -21.0197 C.1     1  UNL1       -0.0525
@<TRIPOS>BOND
     1    24    25    3
     2     1    25    1
     3     1     2    1
     4     1     3    1
     5     3     4    1
     6     4     5    1
     7     4     6    1
     8     6     7    1
     9     7     8    1
    10     8     9    1
    11     9    10    1
    12    10    11   ar
    13    11    12   ar
    14    12    13    1
    15    12    14   ar
    16    14    15   ar
    17    15    16   ar
    18    16    17    1
    19    17    18    1
    20    18    19    1
    21    19    20    1
    22    20    21    1
    23    20     1    1
    24    20     6    1
    25    17     7    1
    26    16    10   ar
    27     2    22    1
    28    13    23    1
