@<TRIPOS>MOLECULE
*****
 33 36 0 0 0
SMALL
GASTEIGER

@<TRIPOS>ATOM
      1 C         -26.1438   -8.1864  -12.3569 C.3     1  UNL1        0.2027
      2 F         -27.2993   -8.6219  -12.9823 F       1  UNL1       -0.2334
      3 C         -26.3106   -6.7269  -11.9102 C.3     1  UNL1        0.1259
      4 N         -25.2651   -5.8870  -12.4934 N.pl3   1  UNL1       -0.3157
      5 H         -25.5515   -5.1553  -13.1831 H       1  UNL1        0.1483
      6 C         -21.7758   -7.0704  -12.7036 C.ar    1  UNL1        0.2263
      7 C         -21.1698   -6.4048  -11.6353 C.ar    1  UNL1        0.0642
      8 C         -21.9306   -5.5453  -10.8273 C.ar    1  UNL1        0.0829
      9 C         -23.2953   -5.3743  -11.1144 C.ar    1  UNL1        0.0407
     10 C         -23.8716   -6.0584  -12.1927 C.ar    1  UNL1        0.1319
     11 N         -23.0998   -6.8806  -12.9544 N.ar    1  UNL1       -0.1969
     12 C         -21.3014   -4.8339   -9.6928 C.2     1  UNL1        0.3383
     13 O         -20.2128   -4.2173   -9.8502 O.2     1  UNL1       -0.2451
     14 O         -21.9068   -4.8387   -8.4388 O.3     1  UNL1       -0.4771
     15 H         -21.4845   -4.3548   -7.6553 H       1  UNL1        0.2954
     16 C         -21.4777   -8.4272  -14.7516 C.3     1  UNL1        0.2542
     17 O         -21.0133   -7.9265  -13.5033 O.3     1  UNL1       -0.4561
     18 C         -25.8478   -9.1202  -11.1747 C.3     1  UNL1        0.1429
     19 N         -24.4473   -9.5602  -11.1776 N.ar    1  UNL1       -0.3243
     20 C         -23.8488  -10.4341  -12.0285 C.ar    1  UNL1        0.0600
     21 C         -24.4148  -11.1052  -13.1183 C.ar    1  UNL1        0.0177
     22 C         -23.5973  -11.9805  -13.8558 C.ar    1  UNL1        0.0082
     23 C         -22.2441  -12.1741  -13.4996 C.ar    1  UNL1        0.0347
     24 BR        -21.1561  -13.3700  -14.5154 Br      1  UNL1       -0.0490
     25 C         -21.6939  -11.4944  -12.3984 C.ar    1  UNL1        0.0082
     26 C         -22.5252  -10.6327  -11.6858 C.ar    1  UNL1        0.0177
     27 C         -22.2903   -9.8552  -10.5752 C.ar    1  UNL1        0.0177
     28 C         -21.1450   -9.6725   -9.8027 C.ar    1  UNL1        0.0082
     29 C         -21.2298   -8.8025   -8.7008 C.ar    1  UNL1        0.0347
     30 BR        -19.6948   -8.5105   -7.6035 Br      1  UNL1       -0.0490
     31 C         -22.4441   -8.1454   -8.4003 C.ar    1  UNL1        0.0082
     32 C         -23.5855   -8.3495   -9.1967 C.ar    1  UNL1        0.0177
     33 C         -23.4806   -9.2168  -10.2886 C.ar    1  UNL1        0.0600
@<TRIPOS>BOND
     1    16    17    1
     2    17     6    1
     3     6     7   ar
     4     7     8   ar
     5     8    12    1
     6    12    13    2
     7    12    14    1
     8     8     9   ar
     9     9    10   ar
    10    10     4    1
    11     4     3    1
    12     3     1    1
    13     1     2    1
    14     1    18    1
    15    18    19    1
    16    19    20   ar
    17    20    21   ar
    18    21    22   ar
    19    22    23   ar
    20    23    24    1
    21    23    25   ar
    22    25    26   ar
    23    26    27   ar
    24    27    28   ar
    25    28    29   ar
    26    29    30    1
    27    29    31   ar
    28    31    32   ar
    29    32    33   ar
    30    10    11   ar
    31    11     6   ar
    32    33    19   ar
    33    26    20   ar
    34    33    27   ar
    35    14    15    1
    36     4     5    1
@<TRIPOS>MOLECULE
*****
 33 36 0 0 0
SMALL
GASTEIGER

@<TRIPOS>ATOM
      1 C         -26.0713   -8.2132  -12.4168 C.3     1  UNL1        0.2027
      2 F         -27.1549   -8.6587  -13.1540 F       1  UNL1       -0.2334
      3 C         -26.3111   -6.7678  -11.9578 C.3     1  UNL1        0.1259
      4 N         -25.2709   -5.8823  -12.4797 N.pl3   1  UNL1       -0.3157
      5 H         -25.5602   -5.1131  -13.1259 H       1  UNL1        0.1483
      6 C         -21.7847   -7.0758  -12.6847 C.ar    1  UNL1        0.2263
      7 C         -21.1772   -6.4079  -11.6188 C.ar    1  UNL1        0.0642
      8 C         -21.9358   -5.5435  -10.8140 C.ar    1  UNL1        0.0829
      9 C         -23.3001   -5.3699  -11.1020 C.ar    1  UNL1        0.0407
     10 C         -23.8779   -6.0563  -12.1780 C.ar    1  UNL1        0.1319
     11 N         -23.1081   -6.8833  -12.9365 N.ar    1  UNL1       -0.1969
     12 C         -21.3050   -4.8296   -9.6820 C.2     1  UNL1        0.3383
     13 O         -20.2133   -4.2189   -9.8406 O.2     1  UNL1       -0.2451
     14 O         -21.9123   -4.8256   -8.4288 O.3     1  UNL1       -0.4771
     15 H         -21.4889   -4.3400   -7.6470 H       1  UNL1        0.2954
     16 C         -21.5075   -8.4768  -14.7057 C.3     1  UNL1        0.2542
     17 O         -21.0243   -7.9367  -13.4812 O.3     1  UNL1       -0.4561
     18 C         -25.8631   -9.1668  -11.2316 C.3     1  UNL1        0.1429
     19 N         -24.4763   -9.6436  -11.1653 N.ar    1  UNL1       -0.3243
     20 C         -23.5101   -9.2801  -10.2819 C.ar    1  UNL1        0.0600
     21 C         -23.6099   -8.3845   -9.2112 C.ar    1  UNL1        0.0177
     22 C         -22.4624   -8.1518   -8.4318 C.ar    1  UNL1        0.0082
     23 C         -21.2456   -8.8054   -8.7284 C.ar    1  UNL1        0.0347
     24 BR        -19.7014   -8.4701   -7.6567 Br      1  UNL1       -0.0490
     25 C         -21.1633   -9.6988   -9.8112 C.ar    1  UNL1        0.0082
     26 C         -22.3148   -9.9118  -10.5662 C.ar    1  UNL1        0.0177
     27 C         -22.5436  -10.6970  -11.6727 C.ar    1  UNL1        0.0177
     28 C         -21.7009  -11.5376  -12.3973 C.ar    1  UNL1        0.0082
     29 C         -22.2419  -12.2074  -13.5095 C.ar    1  UNL1        0.0347
     30 BR        -21.1379  -13.3730  -14.5431 Br      1  UNL1       -0.0490
     31 C         -23.5961  -12.0211  -13.8673 C.ar    1  UNL1        0.0082
     32 C         -24.4239  -11.1652  -13.1184 C.ar    1  UNL1        0.0177
     33 C         -23.8679  -10.5097  -12.0153 C.ar    1  UNL1        0.0600
@<TRIPOS>BOND
     1    16    17    1
     2    17     6    1
     3     6     7   ar
     4     7     8   ar
     5     8    12    1
     6    12    13    2
     7    12    14    1
     8     8     9   ar
     9     9    10   ar
    10    10     4    1
    11     4     3    1
    12     3     1    1
    13     1     2    1
    14     1    18    1
    15    18    19    1
    16    19    20   ar
    17    20    21   ar
    18    21    22   ar
    19    22    23   ar
    20    23    24    1
    21    23    25   ar
    22    25    26   ar
    23    26    27   ar
    24    27    28   ar
    25    28    29   ar
    26    29    30    1
    27    29    31   ar
    28    31    32   ar
    29    32    33   ar
    30    10    11   ar
    31    11     6   ar
    32    33    19   ar
    33    26    20   ar
    34    33    27   ar
    35    14    15    1
    36     4     5    1
@<TRIPOS>MOLECULE
*****
 33 36 0 0 0
SMALL
GASTEIGER

@<TRIPOS>ATOM
      1 C         -23.6488  -14.1450  -15.3585 C.3     1  UNL1        0.2027
      2 F         -23.7481  -15.4587  -15.7834 F       1  UNL1       -0.2334
      3 C         -24.5118  -13.9351  -14.1060 C.3     1  UNL1        0.1259
      4 N         -25.3357  -12.7346  -14.2435 N.pl3   1  UNL1       -0.3157
      5 H         -26.0713  -12.7269  -14.9863 H       1  UNL1        0.1483
      6 C         -24.3892  -10.5788  -11.4016 C.ar    1  UNL1        0.2263
      7 C         -24.7554   -9.3092  -11.8550 C.ar    1  UNL1        0.0642
      8 C         -25.3277   -9.1615  -13.1282 C.ar    1  UNL1        0.0829
      9 C         -25.5207  -10.3041  -13.9227 C.ar    1  UNL1        0.0407
     10 C         -25.1433  -11.5627  -13.4365 C.ar    1  UNL1        0.1319
     11 N         -24.5889  -11.6641  -12.1978 N.ar    1  UNL1       -0.1969
     12 C         -25.7199   -7.8226  -13.6209 C.2     1  UNL1        0.3383
     13 O         -24.8437   -7.0020  -14.0069 O.2     1  UNL1       -0.2451
     14 O         -27.0626   -7.4559  -13.6629 O.3     1  UNL1       -0.4771
     15 H         -27.3421   -6.5417  -13.9984 H       1  UNL1        0.2954
     16 C         -23.9303   -9.7178   -9.1274 C.3     1  UNL1        0.2542
     17 O         -23.8216  -10.7195  -10.1321 O.3     1  UNL1       -0.4561
     18 C         -22.1694  -13.8274  -15.0983 C.3     1  UNL1        0.1429
     19 N         -21.9847  -12.4271  -14.6983 N.ar    1  UNL1       -0.3243
     20 C         -21.5033  -11.9524  -13.5198 C.ar    1  UNL1        0.0600
     21 C         -21.0467  -12.6810  -12.4157 C.ar    1  UNL1        0.0177
     22 C         -20.6016  -11.9677  -11.2881 C.ar    1  UNL1        0.0082
     23 C         -20.6199  -10.5552  -11.2760 C.ar    1  UNL1        0.0347
     24 BR        -20.0129   -9.6104   -9.7318 Br      1  UNL1       -0.0490
     25 C         -21.0865   -9.8400  -12.3932 C.ar    1  UNL1        0.0082
     26 C         -21.5206  -10.5711  -13.4971 C.ar    1  UNL1        0.0177
     27 C         -22.0368  -10.1689  -14.7074 C.ar    1  UNL1        0.0177
     28 C         -22.2908   -8.9008  -15.2262 C.ar    1  UNL1        0.0082
     29 C         -22.8450   -8.8194  -16.5164 C.ar    1  UNL1        0.0347
     30 BR        -23.2161   -7.1104  -17.2825 Br      1  UNL1       -0.0490
     31 C         -23.1302   -9.9945  -17.2475 C.ar    1  UNL1        0.0082
     32 C         -22.8647  -11.2622  -16.6985 C.ar    1  UNL1        0.0177
     33 C         -22.3123  -11.3219  -15.4152 C.ar    1  UNL1        0.0600
@<TRIPOS>BOND
     1    16    17    1
     2    17     6    1
     3     6     7   ar
     4     7     8   ar
     5     8    12    1
     6    12    13    2
     7    12    14    1
     8     8     9   ar
     9     9    10   ar
    10    10     4    1
    11     4     3    1
    12     3     1    1
    13     1     2    1
    14     1    18    1
    15    18    19    1
    16    19    20   ar
    17    20    21   ar
    18    21    22   ar
    19    22    23   ar
    20    23    24    1
    21    23    25   ar
    22    25    26   ar
    23    26    27   ar
    24    27    28   ar
    25    28    29   ar
    26    29    30    1
    27    29    31   ar
    28    31    32   ar
    29    32    33   ar
    30    10    11   ar
    31    11     6   ar
    32    33    19   ar
    33    26    20   ar
    34    33    27   ar
    35    14    15    1
    36     4     5    1
@<TRIPOS>MOLECULE
*****
 33 36 0 0 0
SMALL
GASTEIGER

@<TRIPOS>ATOM
      1 C         -23.5699  -14.1737  -15.2965 C.3     1  UNL1        0.2027
      2 F         -23.5998  -15.4993  -15.6939 F       1  UNL1       -0.2334
      3 C         -24.4759  -13.9751  -14.0730 C.3     1  UNL1        0.1259
      4 N         -25.3067  -12.7826  -14.2353 N.pl3   1  UNL1       -0.3157
      5 H         -26.0262  -12.7855  -14.9938 H       1  UNL1        0.1483
      6 C         -24.4050  -10.5969  -11.4016 C.ar    1  UNL1        0.2263
      7 C         -24.8062   -9.3382  -11.8558 C.ar    1  UNL1        0.0642
      8 C         -25.3874   -9.2081  -13.1269 C.ar    1  UNL1        0.0829
      9 C         -25.5539  -10.3571  -13.9184 C.ar    1  UNL1        0.0407
     10 C         -25.1417  -11.6043  -13.4313 C.ar    1  UNL1        0.1319
     11 N         -24.5796  -11.6887  -12.1949 N.ar    1  UNL1       -0.1969
     12 C         -25.8166   -7.8810  -13.6205 C.2     1  UNL1        0.3383
     13 O         -27.0381   -7.5682  -13.6321 O.2     1  UNL1       -0.2451
     14 O         -24.8738   -6.9636  -14.0774 O.3     1  UNL1       -0.4771
     15 H         -25.1568   -6.0523  -14.4174 H       1  UNL1        0.2954
     16 C         -23.8190   -9.6569   -9.1887 C.3     1  UNL1        0.2542
     17 O         -23.8286  -10.7202  -10.1342 O.3     1  UNL1       -0.4561
     18 C         -22.1136  -13.7853  -15.0039 C.3     1  UNL1        0.1429
     19 N         -22.0057  -12.3785  -14.5989 N.ar    1  UNL1       -0.3243
     20 C         -22.3266  -11.2745  -15.3230 C.ar    1  UNL1        0.0600
     21 C         -22.8579  -11.2129  -16.6162 C.ar    1  UNL1        0.0177
     22 C         -23.1000   -9.9447  -17.1742 C.ar    1  UNL1        0.0082
     23 C         -22.8105   -8.7698  -16.4451 C.ar    1  UNL1        0.0347
     24 BR        -23.1457   -7.0601  -17.2262 Br      1  UNL1       -0.0490
     25 C         -22.2726   -8.8515  -15.1484 C.ar    1  UNL1        0.0082
     26 C         -22.0434  -10.1199  -14.6192 C.ar    1  UNL1        0.0177
     27 C         -21.5218  -10.5195  -13.4104 C.ar    1  UNL1        0.0177
     28 C         -21.0559   -9.7878  -12.3198 C.ar    1  UNL1        0.0082
     29 C         -20.5626  -10.5028  -11.2135 C.ar    1  UNL1        0.0347
     30 BR        -19.9098   -9.5574   -9.6886 Br      1  UNL1       -0.0490
     31 C         -20.5457  -11.9157  -11.2251 C.ar    1  UNL1        0.0082
     32 C         -21.0212  -12.6289  -12.3405 C.ar    1  UNL1        0.0177
     33 C         -21.5090  -11.9000  -13.4296 C.ar    1  UNL1        0.0600
@<TRIPOS>BOND
     1    16    17    1
     2    17     6    1
     3     6     7   ar
     4     7     8   ar
     5     8    12    1
     6    12    13    2
     7    12    14    1
     8     8     9   ar
     9     9    10   ar
    10    10     4    1
    11     4     3    1
    12     3     1    1
    13     1     2    1
    14     1    18    1
    15    18    19    1
    16    19    20   ar
    17    20    21   ar
    18    21    22   ar
    19    22    23   ar
    20    23    24    1
    21    23    25   ar
    22    25    26   ar
    23    26    27   ar
    24    27    28   ar
    25    28    29   ar
    26    29    30    1
    27    29    31   ar
    28    31    32   ar
    29    32    33   ar
    30    10    11   ar
    31    11     6   ar
    32    33    19   ar
    33    26    20   ar
    34    33    27   ar
    35    14    15    1
    36     4     5    1
@<TRIPOS>MOLECULE
*****
 33 36 0 0 0
SMALL
GASTEIGER

@<TRIPOS>ATOM
      1 C         -26.8279   -7.8121  -10.7793 C.3     1  UNL1        0.2027
      2 F         -28.1825   -7.6108  -10.5778 F       1  UNL1       -0.2334
      3 C         -26.3800   -9.0976  -10.0693 C.3     1  UNL1        0.1259
      4 N         -25.3090   -8.8128   -9.1153 N.pl3   1  UNL1       -0.3157
      5 H         -25.5687   -8.3732   -8.2029 H       1  UNL1        0.1483
      6 C         -22.2640  -10.4365  -10.4236 C.ar    1  UNL1        0.2263
      7 C         -21.2534   -9.5852   -9.9703 C.ar    1  UNL1        0.0642
      8 C         -21.5848   -8.4490   -9.2157 C.ar    1  UNL1        0.0829
      9 C         -22.9369   -8.1933   -8.9313 C.ar    1  UNL1        0.0407
     10 C         -23.9251   -9.0686   -9.4002 C.ar    1  UNL1        0.1319
     11 N         -23.5636  -10.1580  -10.1312 N.ar    1  UNL1       -0.1969
     12 C         -20.5244   -7.5388   -8.7296 C.2     1  UNL1        0.3383
     13 O         -20.8029   -6.3563   -8.3917 O.2     1  UNL1       -0.2451
     14 O         -19.2068   -7.9806   -8.6406 O.3     1  UNL1       -0.4771
     15 H         -18.4731   -7.3657   -8.3091 H       1  UNL1        0.2954
     16 C         -20.5813  -11.9838  -11.3714 C.3     1  UNL1        0.2542
     17 O         -21.9273  -11.5674  -11.1729 O.3     1  UNL1       -0.4561
     18 C         -26.5629   -7.8666  -12.2907 C.3     1  UNL1        0.1429
     19 N         -25.1250   -7.9248  -12.5803 N.ar    1  UNL1       -0.3243
     20 C         -24.4403   -8.9137  -13.2123 C.ar    1  UNL1        0.0600
     21 C         -24.9422  -10.1003  -13.7586 C.ar    1  UNL1        0.0177
     22 C         -24.0336  -10.9905  -14.3591 C.ar    1  UNL1        0.0082
     23 C         -22.6540  -10.6902  -14.4040 C.ar    1  UNL1        0.0347
     24 BR        -21.4409  -11.9166  -15.2224 Br      1  UNL1       -0.0490
     25 C         -22.1674   -9.4948  -13.8456 C.ar    1  UNL1        0.0082
     26 C         -23.0888   -8.6305  -13.2579 C.ar    1  UNL1        0.0177
     27 C         -22.9239   -7.4194  -12.6261 C.ar    1  UNL1        0.0177
     28 C         -21.7837   -6.6601  -12.3707 C.ar    1  UNL1        0.0082
     29 C         -21.9460   -5.4466  -11.6782 C.ar    1  UNL1        0.0347
     30 BR        -20.4219   -4.3613  -11.2977 Br      1  UNL1       -0.0490
     31 C         -23.2294   -5.0275  -11.2612 C.ar    1  UNL1        0.0082
     32 C         -24.3633   -5.8148  -11.5314 C.ar    1  UNL1        0.0177
     33 C         -24.1814   -7.0169  -12.2223 C.ar    1  UNL1        0.0600
@<TRIPOS>BOND
     1    16    17    1
     2    17     6    1
     3     6     7   ar
     4     7     8   ar
     5     8    12    1
     6    12    13    2
     7    12    14    1
     8     8     9   ar
     9     9    10   ar
    10    10     4    1
    11     4     3    1
    12     3     1    1
    13     1     2    1
    14     1    18    1
    15    18    19    1
    16    19    20   ar
    17    20    21   ar
    18    21    22   ar
    19    22    23   ar
    20    23    24    1
    21    23    25   ar
    22    25    26   ar
    23    26    27   ar
    24    27    28   ar
    25    28    29   ar
    26    29    30    1
    27    29    31   ar
    28    31    32   ar
    29    32    33   ar
    30    10    11   ar
    31    11     6   ar
    32    33    19   ar
    33    26    20   ar
    34    33    27   ar
    35    14    15    1
    36     4     5    1
@<TRIPOS>MOLECULE
*****
 33 36 0 0 0
SMALL
GASTEIGER

@<TRIPOS>ATOM
      1 C         -19.8377   -9.7572  -10.0489 C.3     1  UNL1        0.2027
      2 F         -18.7333   -9.9792   -9.2445 F       1  UNL1       -0.2334
      3 C         -19.4973   -8.7192  -11.1278 C.3     1  UNL1        0.1259
      4 N         -20.6042   -7.7803  -11.3068 N.pl3   1  UNL1       -0.3157
      5 H         -20.8030   -7.1036  -10.5351 H       1  UNL1        0.1483
      6 C         -23.5851   -7.4028  -13.4495 C.ar    1  UNL1        0.2263
      7 C         -23.1001   -7.7780  -14.7047 C.ar    1  UNL1        0.0642
      8 C         -21.7581   -8.1642  -14.8469 C.ar    1  UNL1        0.0829
      9 C         -20.9278   -8.1648  -13.7134 C.ar    1  UNL1        0.0407
     10 C         -21.4471   -7.7842  -12.4692 C.ar    1  UNL1        0.1319
     11 N         -22.7529   -7.4134  -12.3728 N.ar    1  UNL1       -0.1969
     12 C         -21.2313   -8.5636  -16.1706 C.2     1  UNL1        0.3383
     13 O         -21.6154   -9.6346  -16.7143 O.2     1  UNL1       -0.2451
     14 O         -20.3051   -7.7590  -16.8292 O.3     1  UNL1       -0.4771
     15 H         -19.9380   -8.0231  -17.7358 H       1  UNL1        0.2954
     16 C         -25.3779   -6.1784  -12.2617 C.3     1  UNL1        0.2542
     17 O         -24.9229   -7.0211  -13.3140 O.3     1  UNL1       -0.4561
     18 C         -20.2752  -11.0975  -10.6568 C.3     1  UNL1        0.1429
     19 N         -21.6107  -11.0020  -11.2586 N.ar    1  UNL1       -0.3243
     20 C         -22.0008  -11.4121  -12.4937 C.ar    1  UNL1        0.0600
     21 C         -21.2324  -12.0439  -13.4780 C.ar    1  UNL1        0.0177
     22 C         -21.8530  -12.3677  -14.6980 C.ar    1  UNL1        0.0082
     23 C         -23.2139  -12.0589  -14.9180 C.ar    1  UNL1        0.0347
     24 BR        -24.0322  -12.5065  -16.5840 Br      1  UNL1       -0.0490
     25 C         -23.9691  -11.4197  -13.9188 C.ar    1  UNL1        0.0082
     26 C         -23.3302  -11.1110  -12.7197 C.ar    1  UNL1        0.0177
     27 C         -23.7856  -10.4849  -11.5823 C.ar    1  UNL1        0.0177
     28 C         -25.0340   -9.9586  -11.2562 C.ar    1  UNL1        0.0082
     29 C         -25.1827   -9.3590   -9.9926 C.ar    1  UNL1        0.0347
     30 BR        -26.8687   -8.6193   -9.4870 Br      1  UNL1       -0.0490
     31 C         -24.0917   -9.2994   -9.0966 C.ar    1  UNL1        0.0082
     32 C         -22.8418   -9.8378   -9.4527 C.ar    1  UNL1        0.0177
     33 C         -22.7146  -10.4310  -10.7126 C.ar    1  UNL1        0.0600
@<TRIPOS>BOND
     1    16    17    1
     2    17     6    1
     3     6     7   ar
     4     7     8   ar
     5     8    12    1
     6    12    13    2
     7    12    14    1
     8     8     9   ar
     9     9    10   ar
    10    10     4    1
    11     4     3    1
    12     3     1    1
    13     1     2    1
    14     1    18    1
    15    18    19    1
    16    19    20   ar
    17    20    21   ar
    18    21    22   ar
    19    22    23   ar
    20    23    24    1
    21    23    25   ar
    22    25    26   ar
    23    26    27   ar
    24    27    28   ar
    25    28    29   ar
    26    29    30    1
    27    29    31   ar
    28    31    32   ar
    29    32    33   ar
    30    10    11   ar
    31    11     6   ar
    32    33    19   ar
    33    26    20   ar
    34    33    27   ar
    35    14    15    1
    36     4     5    1
@<TRIPOS>MOLECULE
*****
 33 36 0 0 0
SMALL
GASTEIGER

@<TRIPOS>ATOM
      1 C         -21.0837   -8.2541  -11.3546 C.3     1  UNL1        0.2027
      2 F         -20.6110   -9.4983  -11.7345 F       1  UNL1       -0.2334
      3 C         -21.0735   -7.3018  -12.5590 C.3     1  UNL1        0.1259
      4 N         -20.6700   -8.0108  -13.7728 N.pl3   1  UNL1       -0.3157
      5 H         -19.6684   -8.2964  -13.8641 H       1  UNL1        0.1483
      6 C         -23.2159   -7.5077  -16.3967 C.ar    1  UNL1        0.2263
      7 C         -23.3386   -8.7875  -16.9430 C.ar    1  UNL1        0.0642
      8 C         -22.5628   -9.8406  -16.4337 C.ar    1  UNL1        0.0829
      9 C         -21.6743   -9.5801  -15.3768 C.ar    1  UNL1        0.0407
     10 C         -21.5772   -8.2850  -14.8514 C.ar    1  UNL1        0.1319
     11 N         -22.3443   -7.2901  -15.3745 N.ar    1  UNL1       -0.1969
     12 C         -22.6827  -11.2009  -17.0032 C.2     1  UNL1        0.3383
     13 O         -22.0210  -12.1577  -16.5167 O.2     1  UNL1       -0.2451
     14 O         -23.5289  -11.4373  -18.0836 O.3     1  UNL1       -0.4771
     15 H         -23.6183  -12.3648  -18.4812 H       1  UNL1        0.2954
     16 C         -24.3944   -6.4014  -18.2705 C.3     1  UNL1        0.2542
     17 O         -23.9926   -6.4636  -16.9070 O.3     1  UNL1       -0.4561
     18 C         -22.4924   -8.4261  -10.7685 C.3     1  UNL1        0.1429
     19 N         -23.4886   -8.6441  -11.8243 N.ar    1  UNL1       -0.3243
     20 C         -24.3476   -7.7385  -12.3611 C.ar    1  UNL1        0.0600
     21 C         -24.4733   -6.3788  -12.0552 C.ar    1  UNL1        0.0177
     22 C         -25.4515   -5.6329  -12.7372 C.ar    1  UNL1        0.0082
     23 C         -26.2823   -6.2460  -13.7013 C.ar    1  UNL1        0.0347
     24 BR        -27.6046   -5.2121  -14.6114 Br      1  UNL1       -0.0490
     25 C         -26.1444   -7.6148  -13.9924 C.ar    1  UNL1        0.0082
     26 C         -25.1672   -8.3300  -13.3031 C.ar    1  UNL1        0.0177
     27 C         -24.8079   -9.6572  -13.3527 C.ar    1  UNL1        0.0177
     28 C         -25.3003  -10.7184  -14.1097 C.ar    1  UNL1        0.0082
     29 C         -24.7187  -11.9848  -13.9191 C.ar    1  UNL1        0.0347
     30 BR        -25.3498  -13.4789  -14.9264 Br      1  UNL1       -0.0490
     31 C         -23.6722  -12.1578  -12.9856 C.ar    1  UNL1        0.0082
     32 C         -23.1954  -11.0687  -12.2336 C.ar    1  UNL1        0.0177
     33 C         -23.7854   -9.8176  -12.4387 C.ar    1  UNL1        0.0600
@<TRIPOS>BOND
     1    16    17    1
     2    17     6    1
     3     6     7   ar
     4     7     8   ar
     5     8    12    1
     6    12    13    2
     7    12    14    1
     8     8     9   ar
     9     9    10   ar
    10    10     4    1
    11     4     3    1
    12     3     1    1
    13     1     2    1
    14     1    18    1
    15    18    19    1
    16    19    20   ar
    17    20    21   ar
    18    21    22   ar
    19    22    23   ar
    20    23    24    1
    21    23    25   ar
    22    25    26   ar
    23    26    27   ar
    24    27    28   ar
    25    28    29   ar
    26    29    30    1
    27    29    31   ar
    28    31    32   ar
    29    32    33   ar
    30    10    11   ar
    31    11     6   ar
    32    33    19   ar
    33    26    20   ar
    34    33    27   ar
    35    14    15    1
    36     4     5    1
@<TRIPOS>MOLECULE
*****
 33 36 0 0 0
SMALL
GASTEIGER

@<TRIPOS>ATOM
      1 C         -21.0958   -8.1679  -11.3513 C.3     1  UNL1        0.2027
      2 F         -20.6534   -9.4361  -11.6858 F       1  UNL1       -0.2334
      3 C         -21.0870   -7.2672  -12.5947 C.3     1  UNL1        0.1259
      4 N         -20.6904   -8.0280  -13.7790 N.pl3   1  UNL1       -0.3157
      5 H         -19.6990   -8.3535  -13.8436 H       1  UNL1        0.1483
      6 C         -23.2131   -7.5222  -16.4248 C.ar    1  UNL1        0.2263
      7 C         -23.3341   -8.8024  -16.9706 C.ar    1  UNL1        0.0642
      8 C         -22.5651   -9.8567  -16.4535 C.ar    1  UNL1        0.0829
      9 C         -21.6848   -9.5970  -15.3895 C.ar    1  UNL1        0.0407
     10 C         -21.5892   -8.3015  -14.8649 C.ar    1  UNL1        0.1319
     11 N         -22.3495   -7.3055  -15.3956 N.ar    1  UNL1       -0.1969
     12 C         -22.6833  -11.2174  -17.0224 C.2     1  UNL1        0.3383
     13 O         -21.8386  -12.1072  -16.7310 O.2     1  UNL1       -0.2451
     14 O         -23.7303  -11.5284  -17.8863 O.3     1  UNL1       -0.4771
     15 H         -23.8205  -12.4569  -18.2814 H       1  UNL1        0.2954
     16 C         -24.4004   -6.4319  -18.3024 C.3     1  UNL1        0.2542
     17 O         -23.9831   -6.4770  -16.9428 O.3     1  UNL1       -0.4561
     18 C         -22.4976   -8.2870  -10.7364 C.3     1  UNL1        0.1429
     19 N         -23.5136   -8.5414  -11.7650 N.ar    1  UNL1       -0.3243
     20 C         -23.8002   -9.7175  -12.3821 C.ar    1  UNL1        0.0600
     21 C         -23.2145  -10.9706  -12.1701 C.ar    1  UNL1        0.0177
     22 C         -23.6686  -12.0545  -12.9430 C.ar    1  UNL1        0.0082
     23 C         -24.6861  -11.8758  -13.9066 C.ar    1  UNL1        0.0347
     24 BR        -25.2829  -13.3627  -14.9450 Br      1  UNL1       -0.0490
     25 C         -25.2597  -10.6080  -14.1089 C.ar    1  UNL1        0.0082
     26 C         -24.7923   -9.5519  -13.3293 C.ar    1  UNL1        0.0177
     27 C         -25.1349   -8.2196  -13.3046 C.ar    1  UNL1        0.0177
     28 C         -26.0625   -7.4919  -14.0473 C.ar    1  UNL1        0.0082
     29 C         -26.1715   -6.1134  -13.7901 C.ar    1  UNL1        0.0347
     30 BR        -27.4241   -5.0616  -14.7750 Br      1  UNL1       -0.0490
     31 C         -25.3583   -5.5026  -12.8091 C.ar    1  UNL1        0.0082
     32 C         -24.4290   -6.2614  -12.0749 C.ar    1  UNL1        0.0177
     33 C         -24.3368   -7.6305  -12.3441 C.ar    1  UNL1        0.0600
@<TRIPOS>BOND
     1    16    17    1
     2    17     6    1
     3     6     7   ar
     4     7     8   ar
     5     8    12    1
     6    12    13    2
     7    12    14    1
     8     8     9   ar
     9     9    10   ar
    10    10     4    1
    11     4     3    1
    12     3     1    1
    13     1     2    1
    14     1    18    1
    15    18    19    1
    16    19    20   ar
    17    20    21   ar
    18    21    22   ar
    19    22    23   ar
    20    23    24    1
    21    23    25   ar
    22    25    26   ar
    23    26    27   ar
    24    27    28   ar
    25    28    29   ar
    26    29    30    1
    27    29    31   ar
    28    31    32   ar
    29    32    33   ar
    30    10    11   ar
    31    11     6   ar
    32    33    19   ar
    33    26    20   ar
    34    33    27   ar
    35    14    15    1
    36     4     5    1
@<TRIPOS>MOLECULE
*****
 33 36 0 0 0
SMALL
GASTEIGER

@<TRIPOS>ATOM
      1 C         -26.7587   -7.8269  -10.7598 C.3     1  UNL1        0.2027
      2 F         -28.1086   -7.5637  -10.6038 F       1  UNL1       -0.2334
      3 C         -26.3856   -9.1080  -10.0004 C.3     1  UNL1        0.1259
      4 N         -25.2978   -8.8497   -9.0576 N.pl3   1  UNL1       -0.3157
      5 H         -25.5415   -8.4360   -8.1289 H       1  UNL1        0.1483
      6 C         -22.2767  -10.4353  -10.4640 C.ar    1  UNL1        0.2263
      7 C         -21.2581   -9.5968  -10.0050 C.ar    1  UNL1        0.0642
      8 C         -21.5760   -8.4821   -9.2133 C.ar    1  UNL1        0.0829
      9 C         -22.9228   -8.2349   -8.8981 C.ar    1  UNL1        0.0407
     10 C         -23.9192   -9.0971   -9.3738 C.ar    1  UNL1        0.1319
     11 N         -23.5708  -10.1656  -10.1412 N.ar    1  UNL1       -0.1969
     12 C         -20.5070   -7.5855   -8.7207 C.2     1  UNL1        0.3383
     13 O         -20.7823   -6.4200   -8.3260 O.2     1  UNL1       -0.2451
     14 O         -19.1849   -8.0216   -8.6883 O.3     1  UNL1       -0.4771
     15 H         -18.4453   -7.4158   -8.3529 H       1  UNL1        0.2954
     16 C         -20.6137  -11.9818  -11.4474 C.3     1  UNL1        0.2542
     17 O         -21.9534  -11.5448  -11.2504 O.3     1  UNL1       -0.4561
     18 C         -26.4540   -7.9376  -12.2606 C.3     1  UNL1        0.1429
     19 N         -25.0083   -7.9804  -12.5117 N.ar    1  UNL1       -0.3243
     20 C         -24.0726   -7.0599  -12.1605 C.ar    1  UNL1        0.0600
     21 C         -24.2569   -5.8646  -11.4564 C.ar    1  UNL1        0.0177
     22 C         -23.1316   -5.0556  -11.2168 C.ar    1  UNL1        0.0082
     23 C         -21.8542   -5.4434  -11.6788 C.ar    1  UNL1        0.0347
     24 BR        -20.3429   -4.3259  -11.3429 Br      1  UNL1       -0.0490
     25 C         -21.6891   -6.6460  -12.3886 C.ar    1  UNL1        0.0082
     26 C         -22.8199   -7.4290  -12.6114 C.ar    1  UNL1        0.0177
     27 C         -22.9815   -8.6244  -13.2731 C.ar    1  UNL1        0.0177
     28 C         -22.0681   -9.4441  -13.9330 C.ar    1  UNL1        0.0082
     29 C         -22.5560  -10.6192  -14.5326 C.ar    1  UNL1        0.0347
     30 BR        -21.3542  -11.7836  -15.4519 Br      1  UNL1       -0.0490
     31 C         -23.9298  -10.9415  -14.4602 C.ar    1  UNL1        0.0082
     32 C         -24.8301  -10.0948  -13.7884 C.ar    1  UNL1        0.0177
     33 C         -24.3253   -8.9322  -13.1975 C.ar    1  UNL1        0.0600
@<TRIPOS>BOND
     1    16    17    1
     2    17     6    1
     3     6     7   ar
     4     7     8   ar
     5     8    12    1
     6    12    13    2
     7    12    14    1
     8     8     9   ar
     9     9    10   ar
    10    10     4    1
    11     4     3    1
    12     3     1    1
    13     1     2    1
    14     1    18    1
    15    18    19    1
    16    19    20   ar
    17    20    21   ar
    18    21    22   ar
    19    22    23   ar
    20    23    24    1
    21    23    25   ar
    22    25    26   ar
    23    26    27   ar
    24    27    28   ar
    25    28    29   ar
    26    29    30    1
    27    29    31   ar
    28    31    32   ar
    29    32    33   ar
    30    10    11   ar
    31    11     6   ar
    32    33    19   ar
    33    26    20   ar
    34    33    27   ar
    35    14    15    1
    36     4     5    1
