@<TRIPOS>MOLECULE
*****
 43 48 0 0 0
SMALL
GASTEIGER

@<TRIPOS>ATOM
      1 N          59.7526   89.3779    7.1393 N.pl3   1  UNL1       -0.3041
      2 C          60.0259   89.8608    8.5006 C.3     1  UNL1        0.1122
      3 C          60.6705   88.7608    9.3499 C.3     1  UNL1        0.1122
      4 N          59.8983   87.5097    9.2917 N.pl3   1  UNL1       -0.3041
      5 C          58.9118   87.3059    8.2207 C.3     1  UNL1        0.1122
      6 C          59.3728   87.9733    6.9212 C.3     1  UNL1        0.1122
      7 C          59.8090   92.1039    3.8488 C.ar    1  UNL1        0.0699
      8 C          60.9915   91.4804    4.2789 C.ar    1  UNL1        0.0190
      9 C          60.9745   90.5898    5.3557 C.ar    1  UNL1        0.0160
     10 C          59.7719   90.2965    6.0234 C.ar    1  UNL1        0.0480
     11 C          58.5881   90.9175    5.5877 C.ar    1  UNL1        0.0160
     12 C          58.6060   91.8085    4.5112 C.ar    1  UNL1        0.0190
     13 N          59.6712   93.9123    0.7064 N.ar    1  UNL1       -0.2024
     14 N          60.0405   94.8874    1.5247 N.ar    1  UNL1       -0.1442
     15 C          60.1400   94.3349    2.7535 C.ar    1  UNL1        0.2073
     16 N          59.8329   93.0176    2.7349 N.ar    1  UNL1       -0.2398
     17 C          59.5334   92.7933    1.4399 C.ar    1  UNL1        0.3522
     18 O          59.1325   91.6903    0.9794 O.2     1  UNL1       -0.2444
     19 C          59.3751   94.0881   -0.7189 C.3     1  UNL1        0.1099
     20 C          57.9203   93.6885   -0.9985 C.3     1  UNL1        0.0265
     21 C          61.8327   93.6225   -1.2555 C.3     1  UNL1        0.0021
     22 C          60.3764   93.2656   -1.5537 C.3     1  UNL1        0.0245
     23 C          60.0528   86.5227   10.3363 C.ar    1  UNL1        0.0481
     24 C          61.1710   86.5523   11.1891 C.ar    1  UNL1        0.0176
     25 C          61.3207   85.5993   12.2007 C.ar    1  UNL1        0.0382
     26 C          60.3507   84.5965   12.3806 C.ar    1  UNL1        0.1388
     27 C          59.2360   84.5677   11.5370 C.ar    1  UNL1        0.0382
     28 C          59.0851   85.5190   10.5246 C.ar    1  UNL1        0.0176
     29 O          60.4565   83.6167   13.3784 O.3     1  UNL1       -0.4727
     30 C          61.6831   83.2068   13.9781 C.3     1  UNL1        0.2374
     31 C          62.0010   81.7673   13.5606 C.3     1  UNL1        0.1910
     32 C          63.4826   81.5323   13.4074 C.3     1  UNL1        0.1785
     33 O          63.7454   81.6052   12.0440 O.3     1  UNL1       -0.3244
     34 C          62.5085   81.3582   11.4138 C.3     1  UNL1        0.2610
     35 O          61.4331   81.5052   12.3136 O.3     1  UNL1       -0.3231
     36 C          62.3041   82.2962   10.2431 C.ar    1  UNL1        0.0442
     37 C          63.2116   83.3497   10.0151 C.ar    1  UNL1        0.0023
     38 C          63.0084   84.2505    8.9673 C.ar    1  UNL1        0.0113
     39 C          61.8893   84.1256    8.1426 C.ar    1  UNL1        0.0585
     40 CL         61.6352   85.2611    6.8299 Cl      1  UNL1       -0.0822
     41 C          60.9654   83.1034    8.3720 C.ar    1  UNL1        0.0226
     42 C          61.1582   82.1951    9.4204 C.ar    1  UNL1        0.0592
     43 CL         59.9285   80.9614    9.6817 Cl      1  UNL1       -0.0824
@<TRIPOS>BOND
     1    21    22    1
     2    22    19    1
     3    19    20    1
     4    19    13    1
     5    13    14   ar
     6    14    15   ar
     7    15    16   ar
     8    16     7    1
     9     7     8   ar
    10     8     9   ar
    11     9    10   ar
    12    10     1    1
    13     1     2    1
    14     2     3    1
    15     3     4    1
    16     4    23    1
    17    23    24   ar
    18    24    25   ar
    19    25    26   ar
    20    26    29    1
    21    29    30    1
    22    30    31    1
    23    31    32    1
    24    32    33    1
    25    33    34    1
    26    34    36    1
    27    36    37   ar
    28    37    38   ar
    29    38    39   ar
    30    39    40    1
    31    39    41   ar
    32    41    42   ar
    33    42    43    1
    34    34    35    1
    35    26    27   ar
    36    27    28   ar
    37     4     5    1
    38     5     6    1
    39    10    11   ar
    40    11    12   ar
    41    16    17   ar
    42    17    18    2
    43    17    13   ar
    44    12     7   ar
    45     6     1    1
    46    28    23   ar
    47    35    31    1
    48    42    36   ar
@<TRIPOS>MOLECULE
*****
 43 48 0 0 0
SMALL
GASTEIGER

@<TRIPOS>ATOM
      1 N          61.7888   86.8855   14.1901 N.pl3   1  UNL1       -0.3041
      2 C          62.1432   85.5232   14.6142 C.3     1  UNL1        0.1122
      3 C          61.7352   84.4981   13.5514 C.3     1  UNL1        0.1122
      4 N          60.3292   84.6642   13.1509 N.pl3   1  UNL1       -0.3041
      5 C          59.6222   85.9163   13.4578 C.3     1  UNL1        0.1122
      6 C          60.5767   87.1123   13.3873 C.3     1  UNL1        0.1122
      7 C          64.1159   90.2285   15.4824 C.ar    1  UNL1        0.0699
      8 C          63.1775   89.6369   16.3436 C.ar    1  UNL1        0.0190
      9 C          62.4150   88.5445   15.9216 C.ar    1  UNL1        0.0160
     10 C          62.5786   88.0134   14.6296 C.ar    1  UNL1        0.0480
     11 C          63.5225   88.6037   13.7708 C.ar    1  UNL1        0.0160
     12 C          64.2843   89.6965   14.1933 C.ar    1  UNL1        0.0190
     13 N          66.4838   92.9003   16.1290 N.ar    1  UNL1       -0.2024
     14 N          65.5705   93.1647   17.0524 N.ar    1  UNL1       -0.1442
     15 C          64.6156   92.2177   16.9246 C.ar    1  UNL1        0.2073
     16 N          64.9021   91.3517   15.9256 N.ar    1  UNL1       -0.2398
     17 C          66.0714   91.8186   15.4443 C.ar    1  UNL1        0.3522
     18 O          66.6808   91.3343   14.4525 O.2     1  UNL1       -0.2444
     19 C          67.6661   93.7267   15.8660 C.3     1  UNL1        0.1099
     20 C          67.5912   94.3000   14.4446 C.3     1  UNL1        0.0265
     21 C          69.6586   92.5411   14.7848 C.3     1  UNL1        0.0021
     22 C          68.9377   92.8844   16.0885 C.3     1  UNL1        0.0245
     23 C          59.6251   83.5636   12.5327 C.ar    1  UNL1        0.0481
     24 C          60.0747   82.2414   12.7013 C.ar    1  UNL1        0.0176
     25 C          59.3936   81.1761   12.1053 C.ar    1  UNL1        0.0382
     26 C          58.2450   81.4133   11.3285 C.ar    1  UNL1        0.1388
     27 C          57.7936   82.7263   11.1632 C.ar    1  UNL1        0.0382
     28 C          58.4736   83.7926   11.7575 C.ar    1  UNL1        0.0176
     29 O          57.5288   80.3795   10.7080 O.3     1  UNL1       -0.4727
     30 C          57.8042   79.8800    9.4016 C.3     1  UNL1        0.2374
     31 C          57.6895   81.0191    8.3834 C.3     1  UNL1        0.1910
     32 C          58.2924   80.6547    7.0501 C.3     1  UNL1        0.1785
     33 O          59.5535   81.2398    7.0246 O.3     1  UNL1       -0.3244
     34 C          59.4990   82.2808    7.9741 C.3     1  UNL1        0.2610
     35 O          58.3981   82.1299    8.8417 O.3     1  UNL1       -0.3231
     36 C          60.7707   82.3285    8.7940 C.ar    1  UNL1        0.0442
     37 C          61.3174   81.1410    9.3197 C.ar    1  UNL1        0.0023
     38 C          62.4633   81.1765   10.1173 C.ar    1  UNL1        0.0113
     39 C          63.0710   82.3968   10.4173 C.ar    1  UNL1        0.0585
     40 CL         64.5080   82.4380   11.4226 Cl      1  UNL1       -0.0822
     41 C          62.5260   83.5857    9.9268 C.ar    1  UNL1        0.0226
     42 C          61.3766   83.5623    9.1272 C.ar    1  UNL1        0.0592
     43 CL         60.7163   85.1022    8.5838 Cl      1  UNL1       -0.0824
@<TRIPOS>BOND
     1    21    22    1
     2    22    19    1
     3    19    20    1
     4    19    13    1
     5    13    14   ar
     6    14    15   ar
     7    15    16   ar
     8    16     7    1
     9     7     8   ar
    10     8     9   ar
    11     9    10   ar
    12    10     1    1
    13     1     2    1
    14     2     3    1
    15     3     4    1
    16     4    23    1
    17    23    24   ar
    18    24    25   ar
    19    25    26   ar
    20    26    29    1
    21    29    30    1
    22    30    31    1
    23    31    32    1
    24    32    33    1
    25    33    34    1
    26    34    36    1
    27    36    37   ar
    28    37    38   ar
    29    38    39   ar
    30    39    40    1
    31    39    41   ar
    32    41    42   ar
    33    42    43    1
    34    34    35    1
    35    26    27   ar
    36    27    28   ar
    37     4     5    1
    38     5     6    1
    39    10    11   ar
    40    11    12   ar
    41    16    17   ar
    42    17    18    2
    43    17    13   ar
    44    12     7   ar
    45     6     1    1
    46    28    23   ar
    47    35    31    1
    48    42    36   ar
@<TRIPOS>MOLECULE
*****
 43 48 0 0 0
SMALL
GASTEIGER

@<TRIPOS>ATOM
      1 N          62.2930   87.8760   12.7634 N.pl3   1  UNL1       -0.3041
      2 C          61.1424   87.5540   13.6200 C.3     1  UNL1        0.1122
      3 C          60.7522   86.0795   13.4767 C.3     1  UNL1        0.1122
      4 N          60.5855   85.6984   12.0654 N.pl3   1  UNL1       -0.3041
      5 C          61.1449   86.5495   11.0050 C.3     1  UNL1        0.1122
      6 C          62.4516   87.2039   11.4641 C.3     1  UNL1        0.1122
      7 C          65.0328   90.9452   13.9187 C.ar    1  UNL1        0.0699
      8 C          64.8751   89.7952   14.7091 C.ar    1  UNL1        0.0190
      9 C          63.9785   88.7915   14.3330 C.ar    1  UNL1        0.0160
     10 C          63.2232   88.9116   13.1527 C.ar    1  UNL1        0.0480
     11 C          63.3865   90.0612   12.3598 C.ar    1  UNL1        0.0160
     12 C          64.2830   91.0649   12.7369 C.ar    1  UNL1        0.0190
     13 N          67.6835   93.0705   15.1918 N.ar    1  UNL1       -0.2024
     14 N          66.9756   93.9585   14.5084 N.ar    1  UNL1       -0.1442
     15 C          65.9306   93.2855   13.9793 C.ar    1  UNL1        0.2073
     16 N          65.9626   91.9741   14.3100 N.ar    1  UNL1       -0.2398
     17 C          67.0794   91.8761   15.0582 C.ar    1  UNL1        0.3522
     18 O          67.5280   90.7990   15.5357 O.2     1  UNL1       -0.2444
     19 C          68.9501   93.3597   15.8714 C.3     1  UNL1        0.1099
     20 C          69.0833   94.8717   16.0967 C.3     1  UNL1        0.0265
     21 C          69.6560   92.1408   13.7359 C.3     1  UNL1        0.0021
     22 C          70.1170   92.7889   15.0416 C.3     1  UNL1        0.0245
     23 C          59.7999   84.5338   11.7253 C.ar    1  UNL1        0.0481
     24 C          58.8468   84.0255   12.6262 C.ar    1  UNL1        0.0176
     25 C          58.0853   82.9002   12.2977 C.ar    1  UNL1        0.0382
     26 C          58.2616   82.2610   11.0570 C.ar    1  UNL1        0.1388
     27 C          59.2053   82.7672   10.1580 C.ar    1  UNL1        0.0382
     28 C          59.9681   83.8914   10.4849 C.ar    1  UNL1        0.0176
     29 O          57.5248   81.1282   10.6820 O.3     1  UNL1       -0.4727
     30 C          58.0762   79.9900   10.0244 C.3     1  UNL1        0.2374
     31 C          58.6334   79.0161   11.0676 C.3     1  UNL1        0.1910
     32 C          58.3579   79.4726   12.4781 C.3     1  UNL1        0.1785
     33 O          59.5328   80.0644   12.9281 O.3     1  UNL1       -0.3244
     34 C          60.5516   79.5375   12.1079 C.3     1  UNL1        0.2610
     35 O          60.0210   78.9423   10.9452 O.3     1  UNL1       -0.3231
     36 C          61.5319   80.6187   11.7057 C.ar    1  UNL1        0.0442
     37 C          62.0773   80.6301   10.4065 C.ar    1  UNL1        0.0023
     38 C          63.0186   81.5936   10.0376 C.ar    1  UNL1        0.0113
     39 C          63.4434   82.5488   10.9626 C.ar    1  UNL1        0.0585
     40 CL         64.6286   83.7553   10.4971 Cl      1  UNL1       -0.0822
     41 C          62.9331   82.5346   12.2628 C.ar    1  UNL1        0.0226
     42 C          61.9899   81.5724   12.6443 C.ar    1  UNL1        0.0592
     43 CL         61.4260   81.5837   14.3129 Cl      1  UNL1       -0.0824
@<TRIPOS>BOND
     1    21    22    1
     2    22    19    1
     3    19    20    1
     4    19    13    1
     5    13    14   ar
     6    14    15   ar
     7    15    16   ar
     8    16     7    1
     9     7     8   ar
    10     8     9   ar
    11     9    10   ar
    12    10     1    1
    13     1     2    1
    14     2     3    1
    15     3     4    1
    16     4    23    1
    17    23    24   ar
    18    24    25   ar
    19    25    26   ar
    20    26    29    1
    21    29    30    1
    22    30    31    1
    23    31    32    1
    24    32    33    1
    25    33    34    1
    26    34    36    1
    27    36    37   ar
    28    37    38   ar
    29    38    39   ar
    30    39    40    1
    31    39    41   ar
    32    41    42   ar
    33    42    43    1
    34    34    35    1
    35    26    27   ar
    36    27    28   ar
    37     4     5    1
    38     5     6    1
    39    10    11   ar
    40    11    12   ar
    41    16    17   ar
    42    17    18    2
    43    17    13   ar
    44    12     7   ar
    45     6     1    1
    46    28    23   ar
    47    35    31    1
    48    42    36   ar
