@<TRIPOS>MOLECULE
*****
 34 37 0 0 0
SMALL
GASTEIGER

@<TRIPOS>ATOM
      1 N         -20.5713   53.0831   -9.8352 N.am    1  UNL1       -0.2685
      2 C         -21.8473   53.3256  -10.4473 C.2     1  UNL1        0.2672
      3 O         -22.0228   54.3774  -11.1196 O.2     1  UNL1       -0.2682
      4 C         -22.9404   52.3475  -10.2863 C.ar    1  UNL1        0.1347
      5 C         -23.2672   51.8221   -9.0262 C.ar    1  UNL1        0.0238
      6 C         -24.3390   50.9274   -8.9086 C.ar    1  UNL1        0.0031
      7 C         -24.6953   50.3907   -7.6614 C.ar    1  UNL1        0.0001
      8 C         -25.7708   49.5026   -7.5620 C.ar    1  UNL1        0.0000
      9 C         -26.4961   49.1452   -8.7024 C.ar    1  UNL1        0.0000
     10 C         -26.1508   49.6733   -9.9500 C.ar    1  UNL1        0.0015
     11 C         -25.0733   50.5649  -10.0602 C.ar    1  UNL1        0.0192
     12 C         -24.7081   51.1086  -11.2972 C.ar    1  UNL1        0.0989
     13 N         -23.6651   51.9750  -11.3775 N.ar    1  UNL1       -0.2393
     14 C         -20.0379   51.2316  -11.3991 C.3     1  UNL1        0.0265
     15 C         -19.4919   52.4121  -10.5816 C.3     1  UNL1        0.1007
     16 C         -18.3567   52.0289   -9.6435 C.ar    1  UNL1        0.0234
     17 C         -18.5666   51.8728   -8.2569 C.ar    1  UNL1        0.0019
     18 C         -17.4942   51.6099   -7.4005 C.ar    1  UNL1        0.0295
     19 C         -16.1988   51.5098   -7.9094 C.ar    1  UNL1        0.1424
     20 F         -15.1595   51.2619   -7.0747 F       1  UNL1       -0.2041
     21 C         -15.9719   51.6782   -9.2763 C.ar    1  UNL1        0.0590
     22 C         -17.0391   51.9438  -10.1405 C.ar    1  UNL1        0.1399
     23 F         -16.7807   52.1380  -11.4588 F       1  UNL1       -0.2044
     24 C         -20.3447   53.5554   -8.4664 C.3     1  UNL1        0.1207
     25 C         -19.9759   55.0134   -8.4789 C.ar    1  UNL1       -0.0021
     26 C         -20.3893   55.8395   -9.5342 C.ar    1  UNL1       -0.0026
     27 C         -20.0861   57.2020   -9.5200 C.ar    1  UNL1       -0.0001
     28 C         -19.3758   57.7532   -8.4507 C.ar    1  UNL1        0.0064
     29 C         -18.9620   56.9437   -7.3788 C.ar    1  UNL1        0.0752
     30 C         -19.2704   55.5710   -7.4005 C.ar    1  UNL1        0.0038
     31 C         -18.2175   57.5322   -6.2434 C.2     1  UNL1        0.3380
     32 O         -18.6046   58.6098   -5.7154 O.2     1  UNL1       -0.2451
     33 O         -17.0803   56.9003   -5.7469 O.3     1  UNL1       -0.4771
     34 H         -16.5631   57.2948   -4.9702 H       1  UNL1        0.2954
@<TRIPOS>BOND
     1    14    15    1
     2    15    16    1
     3    16    17   ar
     4    17    18   ar
     5    18    19   ar
     6    19    20    1
     7    19    21   ar
     8    21    22   ar
     9    22    23    1
    10    15     1    1
    11     1    24    1
    12    24    25    1
    13    25    26   ar
    14    26    27   ar
    15    27    28   ar
    16    28    29   ar
    17    29    31    1
    18    31    32    2
    19    31    33    1
    20    29    30   ar
    21     1     2   am
    22     2     3    2
    23     2     4    1
    24     4     5   ar
    25     5     6   ar
    26     6     7   ar
    27     7     8   ar
    28     8     9   ar
    29     9    10   ar
    30    10    11   ar
    31    11    12   ar
    32    12    13   ar
    33    22    16   ar
    34    30    25   ar
    35    13     4   ar
    36    11     6   ar
    37    33    34    1
@<TRIPOS>MOLECULE
*****
 34 37 0 0 0
SMALL
GASTEIGER

@<TRIPOS>ATOM
      1 N         -25.8482   50.7296   -8.7227 N.am    1  UNL1       -0.2685
      2 C         -25.0995   50.7644   -9.9475 C.2     1  UNL1        0.2672
      3 O         -25.4819   50.0705  -10.9280 O.2     1  UNL1       -0.2682
      4 C         -23.8930   51.6078  -10.0507 C.ar    1  UNL1        0.1347
      5 C         -22.9425   51.6477   -9.0184 C.ar    1  UNL1        0.0238
      6 C         -21.7895   52.4287   -9.1721 C.ar    1  UNL1        0.0031
      7 C         -20.8170   52.4834   -8.1614 C.ar    1  UNL1        0.0001
      8 C         -19.6701   53.2646   -8.3339 C.ar    1  UNL1        0.0000
      9 C         -19.4859   53.9940   -9.5122 C.ar    1  UNL1        0.0000
     10 C         -20.4475   53.9473  -10.5261 C.ar    1  UNL1        0.0015
     11 C         -21.6016   53.1667  -10.3626 C.ar    1  UNL1        0.0192
     12 C         -22.5786   53.1019  -11.3627 C.ar    1  UNL1        0.0989
     13 N         -23.6845   52.3338  -11.1839 N.ar    1  UNL1       -0.2393
     14 C         -27.1178   52.0332   -7.0355 C.3     1  UNL1        0.0265
     15 C         -26.9945   51.6320   -8.5133 C.3     1  UNL1        0.1007
     16 C         -28.2644   51.0184   -9.0848 C.ar    1  UNL1        0.0234
     17 C         -29.1780   50.3191   -8.2679 C.ar    1  UNL1        0.0019
     18 C         -30.2911   49.6857   -8.8268 C.ar    1  UNL1        0.0295
     19 C         -30.5045   49.7299  -10.2051 C.ar    1  UNL1        0.1424
     20 F         -31.5816   49.1081  -10.7449 F       1  UNL1       -0.2041
     21 C         -29.6012   50.4034  -11.0290 C.ar    1  UNL1        0.0590
     22 C         -28.4832   51.0383  -10.4784 C.ar    1  UNL1        0.1399
     23 F         -27.6047   51.6539  -11.3102 F       1  UNL1       -0.2044
     24 C         -25.4798   49.7476   -7.6989 C.3     1  UNL1        0.1207
     25 C         -26.4441   48.5938   -7.7211 C.ar    1  UNL1       -0.0021
     26 C         -27.1664   48.2521   -6.5684 C.ar    1  UNL1       -0.0026
     27 C         -28.0954   47.2108   -6.6045 C.ar    1  UNL1       -0.0001
     28 C         -28.3177   46.5075   -7.7909 C.ar    1  UNL1        0.0064
     29 C         -27.6114   46.8419   -8.9592 C.ar    1  UNL1        0.0752
     30 C         -26.6758   47.8919   -8.9150 C.ar    1  UNL1        0.0038
     31 C         -27.8554   46.1008  -10.2165 C.2     1  UNL1        0.3380
     32 O         -28.7332   46.4960  -11.0309 O.2     1  UNL1       -0.2451
     33 O         -27.1168   44.9580  -10.5123 O.3     1  UNL1       -0.4771
     34 H         -27.2760   44.4432  -11.3702 H       1  UNL1        0.2954
@<TRIPOS>BOND
     1    14    15    1
     2    15    16    1
     3    16    17   ar
     4    17    18   ar
     5    18    19   ar
     6    19    20    1
     7    19    21   ar
     8    21    22   ar
     9    22    23    1
    10    15     1    1
    11     1    24    1
    12    24    25    1
    13    25    26   ar
    14    26    27   ar
    15    27    28   ar
    16    28    29   ar
    17    29    31    1
    18    31    32    2
    19    31    33    1
    20    29    30   ar
    21     1     2   am
    22     2     3    2
    23     2     4    1
    24     4     5   ar
    25     5     6   ar
    26     6     7   ar
    27     7     8   ar
    28     8     9   ar
    29     9    10   ar
    30    10    11   ar
    31    11    12   ar
    32    12    13   ar
    33    22    16   ar
    34    30    25   ar
    35    13     4   ar
    36    11     6   ar
    37    33    34    1
@<TRIPOS>MOLECULE
*****
 34 37 0 0 0
SMALL
GASTEIGER

@<TRIPOS>ATOM
      1 N         -30.0069   49.5530   -6.3808 N.am    1  UNL1       -0.2685
      2 C         -29.8982   50.4581   -7.4902 C.2     1  UNL1        0.2672
      3 O         -30.9455   50.9117   -8.0254 O.2     1  UNL1       -0.2682
      4 C         -28.5681   50.8498   -7.9950 C.ar    1  UNL1        0.1347
      5 C         -28.0980   50.3947   -9.2370 C.ar    1  UNL1        0.0238
      6 C         -26.8469   50.8228   -9.7002 C.ar    1  UNL1        0.0031
      7 C         -26.3526   50.3917  -10.9412 C.ar    1  UNL1        0.0001
      8 C         -25.1036   50.8327  -11.3897 C.ar    1  UNL1        0.0000
      9 C         -24.3420   51.7044  -10.6058 C.ar    1  UNL1        0.0000
     10 C         -24.8239   52.1409   -9.3681 C.ar    1  UNL1        0.0015
     11 C         -26.0755   51.7039   -8.9092 C.ar    1  UNL1        0.0192
     12 C         -26.5811   52.1270   -7.6746 C.ar    1  UNL1        0.0989
     13 N         -27.7987   51.6953   -7.2548 N.ar    1  UNL1       -0.2393
     14 C         -30.4547   51.5589   -4.9900 C.3     1  UNL1        0.0265
     15 C         -30.1166   50.0603   -5.0013 C.3     1  UNL1        0.1007
     16 C         -28.8660   49.7129   -4.2070 C.ar    1  UNL1        0.0234
     17 C         -27.6356   50.3605   -4.4481 C.ar    1  UNL1        0.0019
     18 C         -26.4790   49.9641   -3.7716 C.ar    1  UNL1        0.0295
     19 C         -26.5280   48.9127   -2.8556 C.ar    1  UNL1        0.1424
     20 F         -25.4024   48.5258   -2.2063 F       1  UNL1       -0.2041
     21 C         -27.7338   48.2508   -2.6180 C.ar    1  UNL1        0.0590
     22 C         -28.8959   48.6394   -3.2923 C.ar    1  UNL1        0.1399
     23 F         -30.0444   47.9523   -3.0658 F       1  UNL1       -0.2044
     24 C         -30.0519   48.1126   -6.6478 C.3     1  UNL1        0.1207
     25 C         -28.7988   47.6810   -7.3585 C.ar    1  UNL1       -0.0021
     26 C         -27.5404   47.9402   -6.7961 C.ar    1  UNL1       -0.0026
     27 C         -26.3808   47.4971   -7.4344 C.ar    1  UNL1       -0.0001
     28 C         -26.4664   46.7855   -8.6336 C.ar    1  UNL1        0.0064
     29 C         -27.7187   46.5067   -9.2076 C.ar    1  UNL1        0.0752
     30 C         -28.8832   46.9574   -8.5590 C.ar    1  UNL1        0.0038
     31 C         -27.8065   45.7451  -10.4733 C.2     1  UNL1        0.3380
     32 O         -28.6060   46.1032  -11.3802 O.2     1  UNL1       -0.2451
     33 O         -27.0057   44.6239  -10.6747 O.3     1  UNL1       -0.4771
     34 H         -27.0581   44.0952  -11.5374 H       1  UNL1        0.2954
@<TRIPOS>BOND
     1    14    15    1
     2    15    16    1
     3    16    17   ar
     4    17    18   ar
     5    18    19   ar
     6    19    20    1
     7    19    21   ar
     8    21    22   ar
     9    22    23    1
    10    15     1    1
    11     1    24    1
    12    24    25    1
    13    25    26   ar
    14    26    27   ar
    15    27    28   ar
    16    28    29   ar
    17    29    31    1
    18    31    32    2
    19    31    33    1
    20    29    30   ar
    21     1     2   am
    22     2     3    2
    23     2     4    1
    24     4     5   ar
    25     5     6   ar
    26     6     7   ar
    27     7     8   ar
    28     8     9   ar
    29     9    10   ar
    30    10    11   ar
    31    11    12   ar
    32    12    13   ar
    33    22    16   ar
    34    30    25   ar
    35    13     4   ar
    36    11     6   ar
    37    33    34    1
@<TRIPOS>MOLECULE
*****
 34 37 0 0 0
SMALL
GASTEIGER

@<TRIPOS>ATOM
      1 N         -29.4049   49.6654   -4.8864 N.am    1  UNL1       -0.2685
      2 C         -30.2678   48.5416   -5.1188 C.2     1  UNL1        0.2672
      3 O         -31.2191   48.3151   -4.3232 O.2     1  UNL1       -0.2682
      4 C         -30.0372   47.6625   -6.2814 C.ar    1  UNL1        0.1347
      5 C         -30.1073   48.1575   -7.5932 C.ar    1  UNL1        0.0238
      6 C         -29.8408   47.3005   -8.6691 C.ar    1  UNL1        0.0031
      7 C         -29.8952   47.7671   -9.9919 C.ar    1  UNL1        0.0001
      8 C         -29.6218   46.8986  -11.0532 C.ar    1  UNL1        0.0000
      9 C         -29.2928   45.5631  -10.8030 C.ar    1  UNL1        0.0000
     10 C         -29.2353   45.0868   -9.4898 C.ar    1  UNL1        0.0015
     11 C         -29.5082   45.9501   -8.4181 C.ar    1  UNL1        0.0192
     12 C         -29.4561   45.4985   -7.0944 C.ar    1  UNL1        0.0989
     13 N         -29.7180   46.3551   -6.0733 N.ar    1  UNL1       -0.2393
     14 C         -31.2575   51.1235   -5.6611 C.3     1  UNL1        0.0265
     15 C         -29.7470   51.0002   -5.4098 C.3     1  UNL1        0.1007
     16 C         -28.8988   51.3248   -6.6308 C.ar    1  UNL1        0.0234
     17 C         -29.3114   50.9668   -7.9319 C.ar    1  UNL1        0.0019
     18 C         -28.4771   51.1926   -9.0299 C.ar    1  UNL1        0.0295
     19 C         -27.2183   51.7665   -8.8477 C.ar    1  UNL1        0.1424
     20 F         -26.4084   51.9775   -9.9142 F       1  UNL1       -0.2041
     21 C         -26.7884   52.1111   -7.5651 C.ar    1  UNL1        0.0590
     22 C         -27.6160   51.8867   -6.4602 C.ar    1  UNL1        0.1399
     23 F         -27.1544   52.1996   -5.2227 F       1  UNL1       -0.2044
     24 C         -28.1968   49.4718   -4.0794 C.3     1  UNL1        0.1207
     25 C         -27.3141   48.4330   -4.7145 C.ar    1  UNL1       -0.0021
     26 C         -26.7701   47.3971   -3.9412 C.ar    1  UNL1       -0.0026
     27 C         -25.9898   46.4076   -4.5415 C.ar    1  UNL1       -0.0001
     28 C         -25.7520   46.4381   -5.9178 C.ar    1  UNL1        0.0064
     29 C         -26.2972   47.4620   -6.7115 C.ar    1  UNL1        0.0752
     30 C         -27.0819   48.4566   -6.0991 C.ar    1  UNL1        0.0038
     31 C         -26.0510   47.4867   -8.1703 C.2     1  UNL1        0.3380
     32 O         -25.9926   48.5833   -8.7900 O.2     1  UNL1       -0.2451
     33 O         -25.8814   46.2969   -8.8737 O.3     1  UNL1       -0.4771
     34 H         -25.7126   46.3025   -9.8726 H       1  UNL1        0.2954
@<TRIPOS>BOND
     1    14    15    1
     2    15    16    1
     3    16    17   ar
     4    17    18   ar
     5    18    19   ar
     6    19    20    1
     7    19    21   ar
     8    21    22   ar
     9    22    23    1
    10    15     1    1
    11     1    24    1
    12    24    25    1
    13    25    26   ar
    14    26    27   ar
    15    27    28   ar
    16    28    29   ar
    17    29    31    1
    18    31    32    2
    19    31    33    1
    20    29    30   ar
    21     1     2   am
    22     2     3    2
    23     2     4    1
    24     4     5   ar
    25     5     6   ar
    26     6     7   ar
    27     7     8   ar
    28     8     9   ar
    29     9    10   ar
    30    10    11   ar
    31    11    12   ar
    32    12    13   ar
    33    22    16   ar
    34    30    25   ar
    35    13     4   ar
    36    11     6   ar
    37    33    34    1
@<TRIPOS>MOLECULE
*****
 34 37 0 0 0
SMALL
GASTEIGER

@<TRIPOS>ATOM
      1 N         -20.9367   52.6251  -10.3139 N.am    1  UNL1       -0.2685
      2 C         -21.6600   52.0813   -9.1991 C.2     1  UNL1        0.2672
      3 O         -21.0915   51.9862   -8.0779 O.2     1  UNL1       -0.2682
      4 C         -23.0572   51.6390   -9.3712 C.ar    1  UNL1        0.1347
      5 C         -23.8266   51.2154   -8.2762 C.ar    1  UNL1        0.0238
      6 C         -25.1626   50.8428   -8.4745 C.ar    1  UNL1        0.0031
      7 C         -25.9601   50.4221   -7.3987 C.ar    1  UNL1        0.0001
      8 C         -27.2929   50.0582   -7.6145 C.ar    1  UNL1        0.0000
      9 C         -27.8376   50.1117   -8.9009 C.ar    1  UNL1        0.0000
     10 C         -27.0532   50.5292   -9.9803 C.ar    1  UNL1        0.0015
     11 C         -25.7150   50.8962   -9.7742 C.ar    1  UNL1        0.0192
     12 C         -24.9090   51.3188  -10.8375 C.ar    1  UNL1        0.0989
     13 N         -23.6179   51.6753  -10.6118 N.ar    1  UNL1       -0.2393
     14 C         -20.3747   54.3915  -11.9638 C.3     1  UNL1        0.0265
     15 C         -20.9062   54.0786  -10.5568 C.3     1  UNL1        0.1007
     16 C         -20.1428   54.7863   -9.4469 C.ar    1  UNL1        0.0234
     17 C         -19.2497   54.0893   -8.6056 C.ar    1  UNL1        0.0019
     18 C         -18.6278   54.7381   -7.5356 C.ar    1  UNL1        0.0295
     19 C         -18.8937   56.0841   -7.2815 C.ar    1  UNL1        0.1424
     20 F         -18.2942   56.7087   -6.2382 F       1  UNL1       -0.2041
     21 C         -19.7874   56.7835   -8.0943 C.ar    1  UNL1        0.0590
     22 C         -20.4161   56.1415   -9.1660 C.ar    1  UNL1        0.1399
     23 F         -21.3070   56.8396   -9.9153 F       1  UNL1       -0.2044
     24 C         -20.1901   51.7114  -11.1833 C.3     1  UNL1        0.1207
     25 C         -18.7343   51.7154  -10.8058 C.ar    1  UNL1       -0.0021
     26 C         -17.7497   51.9212  -11.7832 C.ar    1  UNL1       -0.0026
     27 C         -16.4020   51.9715  -11.4230 C.ar    1  UNL1       -0.0001
     28 C         -16.0256   51.8252  -10.0856 C.ar    1  UNL1        0.0064
     29 C         -16.9983   51.6287   -9.0902 C.ar    1  UNL1        0.0752
     30 C         -18.3548   51.5781   -9.4609 C.ar    1  UNL1        0.0038
     31 C         -16.5972   51.4829   -7.6734 C.2     1  UNL1        0.3380
     32 O         -15.3785   51.4042   -7.3592 O.2     1  UNL1       -0.2451
     33 O         -17.5635   51.4309   -6.6721 O.3     1  UNL1       -0.4771
     34 H         -17.2997   51.3310   -5.6991 H       1  UNL1        0.2954
@<TRIPOS>BOND
     1    14    15    1
     2    15    16    1
     3    16    17   ar
     4    17    18   ar
     5    18    19   ar
     6    19    20    1
     7    19    21   ar
     8    21    22   ar
     9    22    23    1
    10    15     1    1
    11     1    24    1
    12    24    25    1
    13    25    26   ar
    14    26    27   ar
    15    27    28   ar
    16    28    29   ar
    17    29    31    1
    18    31    32    2
    19    31    33    1
    20    29    30   ar
    21     1     2   am
    22     2     3    2
    23     2     4    1
    24     4     5   ar
    25     5     6   ar
    26     6     7   ar
    27     7     8   ar
    28     8     9   ar
    29     9    10   ar
    30    10    11   ar
    31    11    12   ar
    32    12    13   ar
    33    22    16   ar
    34    30    25   ar
    35    13     4   ar
    36    11     6   ar
    37    33    34    1
@<TRIPOS>MOLECULE
*****
 34 37 0 0 0
SMALL
GASTEIGER

@<TRIPOS>ATOM
      1 N         -28.6886   47.9580   -6.8304 N.am    1  UNL1       -0.2685
      2 C         -27.4978   47.5985   -7.5476 C.2     1  UNL1        0.2672
      3 O         -27.2703   46.3853   -7.8035 O.2     1  UNL1       -0.2682
      4 C         -26.5519   48.6459   -7.9786 C.ar    1  UNL1        0.1347
      5 C         -26.4041   48.9799   -9.3341 C.ar    1  UNL1        0.0238
      6 C         -25.5263   50.0090   -9.6993 C.ar    1  UNL1        0.0031
      7 C         -25.3623   50.3717  -11.0454 C.ar    1  UNL1        0.0001
      8 C         -24.4851   51.4043  -11.3913 C.ar    1  UNL1        0.0000
      9 C         -23.7681   52.0803  -10.3997 C.ar    1  UNL1        0.0000
     10 C         -23.9231   51.7283   -9.0556 C.ar    1  UNL1        0.0015
     11 C         -24.8006   50.6935   -8.6984 C.ar    1  UNL1        0.0192
     12 C         -24.9747   50.3227   -7.3601 C.ar    1  UNL1        0.0989
     13 N         -25.8350   49.3219   -7.0386 N.ar    1  UNL1       -0.2393
     14 C         -30.5641   46.8747   -8.0416 C.3     1  UNL1        0.0265
     15 C         -29.9564   48.1949   -7.5437 C.3     1  UNL1        0.1007
     16 C         -29.7613   49.2278   -8.6440 C.ar    1  UNL1        0.0234
     17 C         -29.8499   48.8779  -10.0082 C.ar    1  UNL1        0.0019
     18 C         -29.5781   49.8206  -11.0032 C.ar    1  UNL1        0.0295
     19 C         -29.2043   51.1192  -10.6554 C.ar    1  UNL1        0.1424
     20 F         -28.9343   52.0295  -11.6232 F       1  UNL1       -0.2041
     21 C         -29.0959   51.4768   -9.3104 C.ar    1  UNL1        0.0590
     22 C         -29.3639   50.5390   -8.3080 C.ar    1  UNL1        0.1399
     23 F         -29.2145   50.9079   -7.0102 F       1  UNL1       -0.2044
     24 C         -28.6327   48.0420   -5.3681 C.3     1  UNL1        0.1207
     25 C         -28.1346   46.7434   -4.7962 C.ar    1  UNL1       -0.0021
     26 C         -28.7871   45.5394   -5.0993 C.ar    1  UNL1       -0.0026
     27 C         -28.2950   44.3301   -4.6055 C.ar    1  UNL1       -0.0001
     28 C         -27.1449   44.3101   -3.8127 C.ar    1  UNL1        0.0064
     29 C         -26.4709   45.5049   -3.5067 C.ar    1  UNL1        0.0752
     30 C         -26.9734   46.7202   -4.0071 C.ar    1  UNL1        0.0038
     31 C         -25.2479   45.4796   -2.6741 C.2     1  UNL1        0.3380
     32 O         -24.2207   46.1195   -3.0279 O.2     1  UNL1       -0.2451
     33 O         -25.2200   44.7472   -1.4900 O.3     1  UNL1       -0.4771
     34 H         -24.3878   44.7228   -0.9128 H       1  UNL1        0.2954
@<TRIPOS>BOND
     1    14    15    1
     2    15    16    1
     3    16    17   ar
     4    17    18   ar
     5    18    19   ar
     6    19    20    1
     7    19    21   ar
     8    21    22   ar
     9    22    23    1
    10    15     1    1
    11     1    24    1
    12    24    25    1
    13    25    26   ar
    14    26    27   ar
    15    27    28   ar
    16    28    29   ar
    17    29    31    1
    18    31    32    2
    19    31    33    1
    20    29    30   ar
    21     1     2   am
    22     2     3    2
    23     2     4    1
    24     4     5   ar
    25     5     6   ar
    26     6     7   ar
    27     7     8   ar
    28     8     9   ar
    29     9    10   ar
    30    10    11   ar
    31    11    12   ar
    32    12    13   ar
    33    22    16   ar
    34    30    25   ar
    35    13     4   ar
    36    11     6   ar
    37    33    34    1
@<TRIPOS>MOLECULE
*****
 34 37 0 0 0
SMALL
GASTEIGER

@<TRIPOS>ATOM
      1 N         -28.2423   49.9325   -4.9275 N.am    1  UNL1       -0.2685
      2 C         -29.1217   50.7177   -5.7471 C.2     1  UNL1        0.2672
      3 O         -29.4378   51.8813   -5.3796 O.2     1  UNL1       -0.2682
      4 C         -29.6480   50.1607   -7.0082 C.ar    1  UNL1        0.1347
      5 C         -29.5309   50.8623   -8.2184 C.ar    1  UNL1        0.0238
      6 C         -30.0059   50.2812   -9.4015 C.ar    1  UNL1        0.0031
      7 C         -29.8965   50.9541  -10.6286 C.ar    1  UNL1        0.0001
      8 C         -30.3720   50.3570  -11.8002 C.ar    1  UNL1        0.0000
      9 C         -30.9577   49.0884  -11.7559 C.ar    1  UNL1        0.0000
     10 C         -31.0721   48.4083  -10.5398 C.ar    1  UNL1        0.0015
     11 C         -30.5983   48.9990   -9.3587 C.ar    1  UNL1        0.0192
     12 C         -30.6997   48.3387   -8.1288 C.ar    1  UNL1        0.0989
     13 N         -30.2277   48.9285   -6.9999 N.ar    1  UNL1       -0.2393
     14 C         -26.2227   51.1949   -4.2304 C.3     1  UNL1        0.0265
     15 C         -26.7795   50.0381   -5.0742 C.3     1  UNL1        0.1007
     16 C         -26.3982   50.1198   -6.5451 C.ar    1  UNL1        0.0234
     17 C         -26.2185   51.3605   -7.1927 C.ar    1  UNL1        0.0019
     18 C         -25.9578   51.4155   -8.5644 C.ar    1  UNL1        0.0295
     19 C         -25.8833   50.2394   -9.3117 C.ar    1  UNL1        0.1424
     20 F         -25.6374   50.2967  -10.6437 F       1  UNL1       -0.2041
     21 C         -26.0751   49.0048   -8.6893 C.ar    1  UNL1        0.0590
     22 C         -26.3387   48.9405   -7.3172 C.ar    1  UNL1        0.1399
     23 F         -26.5562   47.7272   -6.7490 F       1  UNL1       -0.2044
     24 C         -28.8246   49.0544   -3.9086 C.3     1  UNL1        0.1207
     25 C         -28.2353   47.6752   -4.0194 C.ar    1  UNL1       -0.0021
     26 C         -28.7907   46.7363   -4.9010 C.ar    1  UNL1       -0.0026
     27 C         -28.2133   45.4727   -5.0367 C.ar    1  UNL1       -0.0001
     28 C         -27.0738   45.1376   -4.3012 C.ar    1  UNL1        0.0064
     29 C         -26.4963   46.0684   -3.4205 C.ar    1  UNL1        0.0752
     30 C         -27.0844   47.3398   -3.2882 C.ar    1  UNL1        0.0038
     31 C         -25.2842   45.7135   -2.6495 C.2     1  UNL1        0.3380
     32 O         -24.1556   46.1594   -2.9924 O.2     1  UNL1       -0.2451
     33 O         -25.3788   44.8823   -1.5363 O.3     1  UNL1       -0.4771
     34 H         -24.5552   44.6329   -1.0017 H       1  UNL1        0.2954
@<TRIPOS>BOND
     1    14    15    1
     2    15    16    1
     3    16    17   ar
     4    17    18   ar
     5    18    19   ar
     6    19    20    1
     7    19    21   ar
     8    21    22   ar
     9    22    23    1
    10    15     1    1
    11     1    24    1
    12    24    25    1
    13    25    26   ar
    14    26    27   ar
    15    27    28   ar
    16    28    29   ar
    17    29    31    1
    18    31    32    2
    19    31    33    1
    20    29    30   ar
    21     1     2   am
    22     2     3    2
    23     2     4    1
    24     4     5   ar
    25     5     6   ar
    26     6     7   ar
    27     7     8   ar
    28     8     9   ar
    29     9    10   ar
    30    10    11   ar
    31    11    12   ar
    32    12    13   ar
    33    22    16   ar
    34    30    25   ar
    35    13     4   ar
    36    11     6   ar
    37    33    34    1
@<TRIPOS>MOLECULE
*****
 34 37 0 0 0
SMALL
GASTEIGER

@<TRIPOS>ATOM
      1 N         -28.9831   48.0902   -7.9931 N.am    1  UNL1       -0.2685
      2 C         -29.0801   46.8469   -7.2814 C.2     1  UNL1        0.2672
      3 O         -30.0107   46.0436   -7.5603 O.2     1  UNL1       -0.2682
      4 C         -28.0951   46.5184   -6.2329 C.ar    1  UNL1        0.1347
      5 C         -28.5018   46.0544   -4.9719 C.ar    1  UNL1        0.0238
      6 C         -27.5347   45.7134   -4.0173 C.ar    1  UNL1        0.0031
      7 C         -27.9093   45.2392   -2.7504 C.ar    1  UNL1        0.0001
      8 C         -26.9303   44.8993   -1.8115 C.ar    1  UNL1        0.0000
      9 C         -25.5751   45.0293   -2.1293 C.ar    1  UNL1        0.0000
     10 C         -25.1897   45.5003   -3.3880 C.ar    1  UNL1        0.0015
     11 C         -26.1643   45.8442   -4.3367 C.ar    1  UNL1        0.0192
     12 C         -25.8047   46.3168   -5.6041 C.ar    1  UNL1        0.0989
     13 N         -26.7667   46.6371   -6.5081 N.ar    1  UNL1       -0.2393
     14 C         -27.9393   46.7736   -9.8194 C.3     1  UNL1        0.0265
     15 C         -28.2503   48.1738   -9.2692 C.3     1  UNL1        0.1007
     16 C         -27.0189   49.0548   -9.1172 C.ar    1  UNL1        0.0234
     17 C         -26.0289   48.7783   -8.1504 C.ar    1  UNL1        0.0019
     18 C         -24.9523   49.6498   -7.9658 C.ar    1  UNL1        0.0295
     19 C         -24.8515   50.8119   -8.7316 C.ar    1  UNL1        0.1424
     20 F         -23.8095   51.6589   -8.5449 F       1  UNL1       -0.2041
     21 C         -25.8312   51.1084   -9.6806 C.ar    1  UNL1        0.0590
     22 C         -26.9135   50.2430   -9.8705 C.ar    1  UNL1        0.1399
     23 F         -27.8679   50.5779  -10.7757 F       1  UNL1       -0.2044
     24 C         -29.6651   49.2685   -7.4501 C.3     1  UNL1        0.1207
     25 C         -28.6788   50.1510   -6.7360 C.ar    1  UNL1       -0.0021
     26 C         -28.4481   51.4607   -7.1817 C.ar    1  UNL1       -0.0026
     27 C         -27.5674   52.2935   -6.4892 C.ar    1  UNL1       -0.0001
     28 C         -26.9161   51.8307   -5.3433 C.ar    1  UNL1        0.0064
     29 C         -27.1423   50.5249   -4.8748 C.ar    1  UNL1        0.0752
     30 C         -28.0305   49.6908   -5.5786 C.ar    1  UNL1        0.0038
     31 C         -26.4577   50.0405   -3.6557 C.2     1  UNL1        0.3380
     32 O         -25.5385   50.7217   -3.1257 O.2     1  UNL1       -0.2451
     33 O         -26.8228   48.8255   -3.0816 O.3     1  UNL1       -0.4771
     34 H         -26.3604   48.4846   -2.2471 H       1  UNL1        0.2954
@<TRIPOS>BOND
     1    14    15    1
     2    15    16    1
     3    16    17   ar
     4    17    18   ar
     5    18    19   ar
     6    19    20    1
     7    19    21   ar
     8    21    22   ar
     9    22    23    1
    10    15     1    1
    11     1    24    1
    12    24    25    1
    13    25    26   ar
    14    26    27   ar
    15    27    28   ar
    16    28    29   ar
    17    29    31    1
    18    31    32    2
    19    31    33    1
    20    29    30   ar
    21     1     2   am
    22     2     3    2
    23     2     4    1
    24     4     5   ar
    25     5     6   ar
    26     6     7   ar
    27     7     8   ar
    28     8     9   ar
    29     9    10   ar
    30    10    11   ar
    31    11    12   ar
    32    12    13   ar
    33    22    16   ar
    34    30    25   ar
    35    13     4   ar
    36    11     6   ar
    37    33    34    1
@<TRIPOS>MOLECULE
*****
 34 37 0 0 0
SMALL
GASTEIGER

@<TRIPOS>ATOM
      1 N         -26.4796   50.9939   -8.7791 N.am    1  UNL1       -0.2685
      2 C         -25.1038   50.6213   -8.6057 C.2     1  UNL1        0.2672
      3 O         -24.8106   49.6798   -7.8204 O.2     1  UNL1       -0.2682
      4 C         -24.0465   51.3390   -9.3437 C.ar    1  UNL1        0.1347
      5 C         -22.8277   51.6699   -8.7308 C.ar    1  UNL1        0.0238
      6 C         -21.8327   52.3145   -9.4774 C.ar    1  UNL1        0.0031
      7 C         -20.6006   52.6516   -8.8955 C.ar    1  UNL1        0.0001
      8 C         -19.6173   53.2907   -9.6571 C.ar    1  UNL1        0.0000
      9 C         -19.8554   53.5965  -11.0003 C.ar    1  UNL1        0.0000
     10 C         -21.0786   53.2655  -11.5910 C.ar    1  UNL1        0.0015
     11 C         -22.0716   52.6244  -10.8353 C.ar    1  UNL1        0.0192
     12 C         -23.3039   52.2813  -11.4033 C.ar    1  UNL1        0.0989
     13 N         -24.2473   51.6551  -10.6530 N.ar    1  UNL1       -0.2393
     14 C         -28.1588   51.3296  -10.5751 C.3     1  UNL1        0.0265
     15 C         -27.3248   50.3153   -9.7778 C.3     1  UNL1        0.1007
     16 C         -28.1591   49.2281   -9.1163 C.ar    1  UNL1        0.0234
     17 C         -29.4824   49.4705   -8.6903 C.ar    1  UNL1        0.0019
     18 C         -30.1997   48.4873   -8.0038 C.ar    1  UNL1        0.0295
     19 C         -29.6078   47.2554   -7.7224 C.ar    1  UNL1        0.1424
     20 F         -30.3041   46.3062   -7.0498 F       1  UNL1       -0.2041
     21 C         -28.2940   47.0058   -8.1224 C.ar    1  UNL1        0.0590
     22 C         -27.5678   47.9849   -8.8080 C.ar    1  UNL1        0.1399
     23 F         -26.2807   47.7245   -9.1513 F       1  UNL1       -0.2044
     24 C         -27.0432   52.0331   -7.9128 C.3     1  UNL1        0.1207
     25 C         -27.7174   51.4038   -6.7249 C.ar    1  UNL1       -0.0021
     26 C         -27.0858   50.3707   -6.0170 C.ar    1  UNL1       -0.0026
     27 C         -27.6926   49.8205   -4.8868 C.ar    1  UNL1       -0.0001
     28 C         -28.9292   50.3005   -4.4485 C.ar    1  UNL1        0.0064
     29 C         -29.5730   51.3423   -5.1382 C.ar    1  UNL1        0.0752
     30 C         -28.9558   51.8913   -6.2773 C.ar    1  UNL1        0.0038
     31 C         -30.8785   51.8545   -4.6663 C.2     1  UNL1        0.3380
     32 O         -31.5838   51.1728   -3.8740 O.2     1  UNL1       -0.2451
     33 O         -31.3413   53.0964   -5.0939 O.3     1  UNL1       -0.4771
     34 H         -32.2338   53.4563   -4.7772 H       1  UNL1        0.2954
@<TRIPOS>BOND
     1    14    15    1
     2    15    16    1
     3    16    17   ar
     4    17    18   ar
     5    18    19   ar
     6    19    20    1
     7    19    21   ar
     8    21    22   ar
     9    22    23    1
    10    15     1    1
    11     1    24    1
    12    24    25    1
    13    25    26   ar
    14    26    27   ar
    15    27    28   ar
    16    28    29   ar
    17    29    31    1
    18    31    32    2
    19    31    33    1
    20    29    30   ar
    21     1     2   am
    22     2     3    2
    23     2     4    1
    24     4     5   ar
    25     5     6   ar
    26     6     7   ar
    27     7     8   ar
    28     8     9   ar
    29     9    10   ar
    30    10    11   ar
    31    11    12   ar
    32    12    13   ar
    33    22    16   ar
    34    30    25   ar
    35    13     4   ar
    36    11     6   ar
    37    33    34    1
