@<TRIPOS>MOLECULE
*****
 45 51 0 0 0
SMALL
GASTEIGER

@<TRIPOS>ATOM
      1 C         -10.2785   -9.1429   29.7836 C.3     1  UNL1        0.0817
      2 C          -9.0984   -9.7341   28.9834 C.3     1  UNL1        0.0252
      3 C          -9.2095  -11.2658   29.1119 C.3     1  UNL1        0.0278
      4 C         -10.2141  -11.4630   30.1869 C.ar    1  UNL1       -0.0248
      5 C         -10.5974  -12.6755   30.7535 C.ar    1  UNL1       -0.0048
      6 C         -11.5680  -12.6818   31.7728 C.ar    1  UNL1       -0.0042
      7 C         -12.1627  -11.4564   32.2016 C.ar    1  UNL1       -0.0228
      8 C         -11.7442  -10.2483   31.5962 C.ar    1  UNL1       -0.0076
      9 C         -10.7714  -10.2815   30.5981 C.ar    1  UNL1       -0.0120
     10 C         -10.6751   -6.8700   30.8408 C.3     1  UNL1        0.1158
     11 N         -10.0415   -5.9033   31.5494 N.3     1  UNL1       -0.2851
     12 C          -8.8239   -6.4245   31.7578 C.3     1  UNL1        0.0910
     13 C          -7.7677   -5.8236   32.4218 C.3     1  UNL1        0.1018
     14 C          -6.5713   -6.5458   32.5148 C.3     1  UNL1        0.3136
     15 N          -6.4633   -7.8165   31.9903 N.am    1  UNL1       -0.1294
     16 C          -7.5132   -8.3748   31.2870 C.2     1  UNL1        0.4047
     17 O          -7.3893   -9.5027   30.7425 O.2     1  UNL1       -0.2174
     18 C          -8.7178   -7.6582   31.1908 C.3     1  UNL1        0.2038
     19 N          -9.8954   -7.9647   30.5897 N.3     1  UNL1       -0.2473
     20 H         -10.5191   -5.7249   32.4329 H       1  UNL1        0.1244
     21 C         -13.0900   -6.9954   31.4591 C.3     1  UNL1        0.0029
     22 C         -12.0857   -6.6798   30.3558 C.3     1  UNL1        0.0326
     23 C          -5.1853   -8.5407   32.1403 C.3     1  UNL1        0.3394
     24 C          -4.7576   -9.2226   30.8528 C.ar    1  UNL1        0.0505
     25 C          -4.6260   -8.4406   29.6901 C.ar    1  UNL1        0.0021
     26 C          -4.2389   -9.0194   28.4810 C.ar    1  UNL1       -0.0001
     27 C          -3.9766  -10.3859   28.4126 C.ar    1  UNL1       -0.0003
     28 C          -4.1053  -11.1806   29.5521 C.ar    1  UNL1       -0.0044
     29 C          -4.5104  -10.6199   30.7763 C.ar    1  UNL1       -0.0193
     30 C          -4.5902  -11.5171   31.9829 C.3     1  UNL1        0.0309
     31 C         -11.9717  -13.9848   32.3403 C.ar    1  UNL1        0.0027
     32 C         -12.8877  -14.7633   31.6152 C.ar    1  UNL1        0.0001
     33 C         -13.3666  -15.9643   32.1387 C.ar    1  UNL1        0.0000
     34 C         -12.9396  -16.3983   33.3926 C.ar    1  UNL1        0.0001
     35 C         -12.0265  -15.6369   34.1252 C.ar    1  UNL1        0.0031
     36 C         -11.5246  -14.4265   33.6120 C.ar    1  UNL1        0.0371
     37 C         -10.5309  -13.6657   34.4084 C.ar    1  UNL1        0.1806
     38 N          -9.8300  -12.6073   33.9589 N.ar    1  UNL1       -0.1084
     39 N          -9.0227  -12.2781   34.9573 N.ar    1  UNL1       -0.0229
     40 N          -9.2143  -13.0948   35.9816 N.ar    1  UNL1       -0.0464
     41 N         -10.1479  -13.9713   35.6603 N.ar    1  UNL1       -0.2388
     42 H         -10.5006  -14.7300   36.2842 H       1  UNL1        0.1923
     43 C         -13.2208  -11.4181   33.2992 C.3     1  UNL1        0.0223
     44 C         -13.6235   -9.9741   33.6105 C.3     1  UNL1        0.0047
     45 C         -14.4447  -12.2686   32.9344 C.3     1  UNL1        0.0047
@<TRIPOS>BOND
     1    21    22    1
     2    22    10    1
     3    10    11    1
     4    11    12    1
     5    12    13    1
     6    13    14    1
     7    14    15    1
     8    15    23    1
     9    23    24    1
    10    24    25   ar
    11    25    26   ar
    12    26    27   ar
    13    27    28   ar
    14    28    29   ar
    15    29    30    1
    16    15    16    1
    17    16    17    2
    18    16    18    1
    19    18    19    1
    20    19     1    1
    21     1     2    1
    22     2     3    1
    23     3     4    1
    24     4     5   ar
    25     5     6   ar
    26     6    31    1
    27    31    32   ar
    28    32    33   ar
    29    33    34   ar
    30    34    35   ar
    31    35    36   ar
    32    36    37    1
    33    37    38   ar
    34    38    39   ar
    35    39    40   ar
    36    40    41   ar
    37     6     7   ar
    38     7    43    1
    39    43    44    1
    40    43    45    1
    41     7     8   ar
    42     8     9   ar
    43    19    10    1
    44     9     1    1
    45    18    12    1
    46     9     4   ar
    47    29    24   ar
    48    36    31   ar
    49    41    37   ar
    50    41    42    1
    51    11    20    1
@<TRIPOS>MOLECULE
*****
 45 51 0 0 0
SMALL
GASTEIGER

@<TRIPOS>ATOM
      1 C          -7.4611  -10.4141   29.2788 C.3     1  UNL1        0.0817
      2 C          -6.5280  -11.5795   28.8870 C.3     1  UNL1        0.0252
      3 C          -7.2590  -12.8757   29.2876 C.3     1  UNL1        0.0278
      4 C          -8.3830  -12.4055   30.1355 C.ar    1  UNL1       -0.0248
      5 C          -9.2874  -13.2019   30.8328 C.ar    1  UNL1       -0.0048
      6 C         -10.2971  -12.5878   31.5972 C.ar    1  UNL1       -0.0042
      7 C         -10.3986  -11.1641   31.6364 C.ar    1  UNL1       -0.0228
      8 C          -9.4592  -10.3946   30.9105 C.ar    1  UNL1       -0.0076
      9 C          -8.4660  -11.0390   30.1745 C.ar    1  UNL1       -0.0120
     10 C          -5.4970   -9.3310   30.4661 C.3     1  UNL1        0.1158
     11 N          -5.1110   -8.1594   31.0287 N.3     1  UNL1       -0.2851
     12 C          -6.1515   -7.3480   30.7910 C.3     1  UNL1        0.0910
     13 C          -6.2782   -6.0260   31.1832 C.3     1  UNL1        0.1018
     14 C          -7.4627   -5.3629   30.8384 C.3     1  UNL1        0.3136
     15 N          -8.4485   -5.9965   30.1115 N.am    1  UNL1       -0.1294
     16 C          -8.3226   -7.3308   29.7764 C.2     1  UNL1        0.4047
     17 O          -9.2548   -7.9304   29.1800 O.2     1  UNL1       -0.2174
     18 C          -7.1367   -8.0030   30.1163 C.3     1  UNL1        0.2038
     19 N          -6.7407   -9.2831   29.9004 N.3     1  UNL1       -0.2473
     20 H          -4.2622   -7.8043   30.5884 H       1  UNL1        0.1244
     21 C          -4.7010  -11.2040   31.9111 C.3     1  UNL1        0.0029
     22 C          -4.6216  -10.5518   30.5351 C.3     1  UNL1        0.0326
     23 C          -9.6653   -5.2399   29.7547 C.3     1  UNL1        0.3394
     24 C         -10.8748   -5.6875   30.5562 C.ar    1  UNL1        0.0505
     25 C         -11.2710   -4.9136   31.6630 C.ar    1  UNL1        0.0021
     26 C         -12.3736   -5.2833   32.4340 C.ar    1  UNL1       -0.0001
     27 C         -13.0981   -6.4292   32.1132 C.ar    1  UNL1       -0.0003
     28 C         -12.7200   -7.2134   31.0230 C.ar    1  UNL1       -0.0044
     29 C         -11.6020   -6.8676   30.2434 C.ar    1  UNL1       -0.0193
     30 C         -11.2664   -7.7262   29.0529 C.3     1  UNL1        0.0309
     31 C         -11.2564  -13.4576   32.3087 C.ar    1  UNL1        0.0027
     32 C         -12.3184  -14.0066   31.5729 C.ar    1  UNL1        0.0001
     33 C         -13.2995  -14.7690   32.2069 C.ar    1  UNL1        0.0000
     34 C         -13.2329  -14.9879   33.5819 C.ar    1  UNL1        0.0001
     35 C         -12.1812  -14.4512   34.3276 C.ar    1  UNL1        0.0031
     36 C         -11.1766  -13.6860   33.7065 C.ar    1  UNL1        0.0371
     37 C         -10.0595  -13.1628   34.5304 C.ar    1  UNL1        0.1806
     38 N          -9.2430  -12.1540   34.1708 N.ar    1  UNL1       -0.1084
     39 N          -8.3596  -12.0571   35.1542 N.ar    1  UNL1       -0.0229
     40 N          -8.6163  -12.9645   36.0835 N.ar    1  UNL1       -0.0464
     41 N          -9.6703  -13.6685   35.7136 N.ar    1  UNL1       -0.2388
     42 H         -10.0950  -14.4484   36.2620 H       1  UNL1        0.1923
     43 C         -11.4796  -10.4579   32.4478 C.3     1  UNL1        0.0223
     44 C         -10.9869   -9.0902   32.9283 C.3     1  UNL1        0.0047
     45 C         -12.7874  -10.3291   31.6558 C.3     1  UNL1        0.0047
@<TRIPOS>BOND
     1    21    22    1
     2    22    10    1
     3    10    11    1
     4    11    12    1
     5    12    13    1
     6    13    14    1
     7    14    15    1
     8    15    23    1
     9    23    24    1
    10    24    25   ar
    11    25    26   ar
    12    26    27   ar
    13    27    28   ar
    14    28    29   ar
    15    29    30    1
    16    15    16    1
    17    16    17    2
    18    16    18    1
    19    18    19    1
    20    19     1    1
    21     1     2    1
    22     2     3    1
    23     3     4    1
    24     4     5   ar
    25     5     6   ar
    26     6    31    1
    27    31    32   ar
    28    32    33   ar
    29    33    34   ar
    30    34    35   ar
    31    35    36   ar
    32    36    37    1
    33    37    38   ar
    34    38    39   ar
    35    39    40   ar
    36    40    41   ar
    37     6     7   ar
    38     7    43    1
    39    43    44    1
    40    43    45    1
    41     7     8   ar
    42     8     9   ar
    43    19    10    1
    44     9     1    1
    45    18    12    1
    46     9     4   ar
    47    29    24   ar
    48    36    31   ar
    49    41    37   ar
    50    41    42    1
    51    11    20    1
@<TRIPOS>MOLECULE
*****
 45 51 0 0 0
SMALL
GASTEIGER

@<TRIPOS>ATOM
      1 C          -4.0190  -16.2868   21.4801 C.3     1  UNL1        0.0817
      2 C          -4.9363  -15.5688   20.4675 C.3     1  UNL1        0.0252
      3 C          -5.8883  -14.6831   21.2945 C.3     1  UNL1        0.0278
      4 C          -5.6917  -15.1514   22.6894 C.ar    1  UNL1       -0.0248
      5 C          -6.4010  -14.7359   23.8131 C.ar    1  UNL1       -0.0048
      6 C          -6.0860  -15.2892   25.0683 C.ar    1  UNL1       -0.0042
      7 C          -5.0364  -16.2505   25.1832 C.ar    1  UNL1       -0.0228
      8 C          -4.3409  -16.6416   24.0150 C.ar    1  UNL1       -0.0076
      9 C          -4.6899  -16.0800   22.7877 C.ar    1  UNL1       -0.0120
     10 C          -2.5927  -18.3526   21.1076 C.3     1  UNL1        0.1158
     11 N          -2.6788  -19.6435   20.7020 N.3     1  UNL1       -0.2851
     12 C          -3.9927  -19.8131   20.4967 C.3     1  UNL1        0.0910
     13 C          -4.6197  -20.9629   20.0466 C.3     1  UNL1        0.1018
     14 C          -6.0107  -20.9182   19.8893 C.3     1  UNL1        0.3136
     15 N          -6.7268  -19.7814   20.1996 N.am    1  UNL1       -0.1294
     16 C          -6.0746  -18.6303   20.5972 C.2     1  UNL1        0.4047
     17 O          -6.7200  -17.5702   20.8069 O.2     1  UNL1       -0.2174
     18 C          -4.6796  -18.6669   20.7599 C.3     1  UNL1        0.2038
     19 N          -3.7991  -17.7105   21.1498 N.3     1  UNL1       -0.2473
     20 H          -2.3365  -20.2774   21.4240 H       1  UNL1        0.1244
     21 C          -0.4728  -17.4584   20.1401 C.3     1  UNL1        0.0029
     22 C          -1.2630  -17.7224   21.4173 C.3     1  UNL1        0.0326
     23 C          -8.1944  -19.8002   20.0381 C.3     1  UNL1        0.3394
     24 C          -8.9161  -19.9391   21.3668 C.ar    1  UNL1        0.0505
     25 C          -8.1660  -20.2881   22.5054 C.ar    1  UNL1        0.0021
     26 C          -8.7820  -20.4314   23.7491 C.ar    1  UNL1       -0.0001
     27 C         -10.1544  -20.2286   23.8769 C.ar    1  UNL1       -0.0003
     28 C         -10.9177  -19.8866   22.7603 C.ar    1  UNL1       -0.0044
     29 C         -10.3192  -19.7536   21.4949 C.ar    1  UNL1       -0.0193
     30 C         -11.1842  -19.3402   20.3338 C.3     1  UNL1        0.0309
     31 C          -6.8397  -14.8133   26.2466 C.ar    1  UNL1        0.0027
     32 C          -6.1381  -14.1050   27.2350 C.ar    1  UNL1        0.0001
     33 C          -6.7789  -13.7013   28.4063 C.ar    1  UNL1        0.0000
     34 C          -8.1249  -14.0039   28.6051 C.ar    1  UNL1        0.0001
     35 C          -8.8377  -14.7052   27.6303 C.ar    1  UNL1        0.0031
     36 C          -8.2127  -15.1146   26.4378 C.ar    1  UNL1        0.0371
     37 C          -9.0152  -15.8279   25.4143 C.ar    1  UNL1        0.1806
     38 N          -9.1260  -17.1665   25.3166 N.ar    1  UNL1       -0.1084
     39 N          -9.8719  -17.3739   24.2407 N.ar    1  UNL1       -0.0229
     40 N         -10.2101  -16.2161   23.6950 N.ar    1  UNL1       -0.0464
     41 N          -9.6834  -15.2376   24.4081 N.ar    1  UNL1       -0.2388
     42 H          -9.7942  -14.2197   24.2063 H       1  UNL1        0.1923
     43 C          -4.6593  -16.8717   26.5240 C.3     1  UNL1        0.0223
     44 C          -5.8687  -17.5652   27.1567 C.3     1  UNL1        0.0047
     45 C          -3.4754  -17.8380   26.3863 C.3     1  UNL1        0.0047
@<TRIPOS>BOND
     1    21    22    1
     2    22    10    1
     3    10    11    1
     4    11    12    1
     5    12    13    1
     6    13    14    1
     7    14    15    1
     8    15    23    1
     9    23    24    1
    10    24    25   ar
    11    25    26   ar
    12    26    27   ar
    13    27    28   ar
    14    28    29   ar
    15    29    30    1
    16    15    16    1
    17    16    17    2
    18    16    18    1
    19    18    19    1
    20    19     1    1
    21     1     2    1
    22     2     3    1
    23     3     4    1
    24     4     5   ar
    25     5     6   ar
    26     6    31    1
    27    31    32   ar
    28    32    33   ar
    29    33    34   ar
    30    34    35   ar
    31    35    36   ar
    32    36    37    1
    33    37    38   ar
    34    38    39   ar
    35    39    40   ar
    36    40    41   ar
    37     6     7   ar
    38     7    43    1
    39    43    44    1
    40    43    45    1
    41     7     8   ar
    42     8     9   ar
    43    19    10    1
    44     9     1    1
    45    18    12    1
    46     9     4   ar
    47    29    24   ar
    48    36    31   ar
    49    41    37   ar
    50    41    42    1
    51    11    20    1
@<TRIPOS>MOLECULE
*****
 45 51 0 0 0
SMALL
GASTEIGER

@<TRIPOS>ATOM
      1 C          -7.1572  -10.5662   29.4748 C.3     1  UNL1        0.0817
      2 C          -6.4620  -11.8246   28.9134 C.3     1  UNL1        0.0252
      3 C          -7.4444  -12.9937   29.1207 C.3     1  UNL1        0.0278
      4 C          -8.4760  -12.4371   30.0316 C.ar    1  UNL1       -0.0248
      5 C          -9.5378  -13.1302   30.6065 C.ar    1  UNL1       -0.0048
      6 C         -10.4268  -12.4449   31.4556 C.ar    1  UNL1       -0.0042
      7 C         -10.2467  -11.0503   31.7041 C.ar    1  UNL1       -0.0228
      8 C          -9.1552  -10.3862   31.0970 C.ar    1  UNL1       -0.0076
      9 C          -8.2891  -11.1018   30.2715 C.ar    1  UNL1       -0.0120
     10 C          -5.1511  -10.1164   30.9627 C.3     1  UNL1        0.1158
     11 N          -4.5380   -9.1185   31.6456 N.3     1  UNL1       -0.2851
     12 C          -5.2730   -8.0403   31.3382 C.3     1  UNL1        0.0910
     13 C          -5.0834   -6.7486   31.8001 C.3     1  UNL1        0.1018
     14 C          -5.9817   -5.7688   31.3590 C.3     1  UNL1        0.3136
     15 N          -6.9956   -6.0768   30.4766 N.am    1  UNL1       -0.1294
     16 C          -7.1972   -7.3817   30.0703 C.2     1  UNL1        0.4047
     17 O          -8.1683   -7.6763   29.3258 O.2     1  UNL1       -0.2174
     18 C          -6.2993   -8.3706   30.5060 C.3     1  UNL1        0.2038
     19 N          -6.2450   -9.7031   30.2542 N.3     1  UNL1       -0.2473
     20 H          -3.5727   -9.0032   31.3368 H       1  UNL1        0.1244
     21 C          -3.8963  -11.7660   32.3534 C.3     1  UNL1        0.0029
     22 C          -4.6628  -11.5356   31.0554 C.3     1  UNL1        0.0326
     23 C          -7.8974   -4.9979   30.0260 C.3     1  UNL1        0.3394
     24 C          -9.3349   -5.2358   30.4533 C.ar    1  UNL1        0.0505
     25 C          -9.5875   -6.1824   31.4637 C.ar    1  UNL1        0.0021
     26 C         -10.8908   -6.4402   31.8901 C.ar    1  UNL1       -0.0001
     27 C         -11.9616   -5.7583   31.3165 C.ar    1  UNL1       -0.0003
     28 C         -11.7343   -4.8191   30.3102 C.ar    1  UNL1       -0.0044
     29 C         -10.4301   -4.5568   29.8544 C.ar    1  UNL1       -0.0193
     30 C         -10.2402   -3.5018   28.7969 C.3     1  UNL1        0.0309
     31 C         -11.5573  -13.2002   32.0339 C.ar    1  UNL1        0.0027
     32 C         -12.6564  -13.4773   31.2056 C.ar    1  UNL1        0.0001
     33 C         -13.7858  -14.1158   31.7178 C.ar    1  UNL1        0.0000
     34 C         -13.8316  -14.4806   33.0623 C.ar    1  UNL1        0.0001
     35 C         -12.7454  -14.2147   33.8987 C.ar    1  UNL1        0.0031
     36 C         -11.5930  -13.5790   33.4005 C.ar    1  UNL1        0.0371
     37 C         -10.4489  -13.3457   34.3154 C.ar    1  UNL1        0.1806
     38 N         -10.2591  -13.9778   35.4894 N.ar    1  UNL1       -0.1084
     39 N          -9.1684  -13.4289   36.0050 N.ar    1  UNL1       -0.0229
     40 N          -8.7009  -12.4982   35.1876 N.ar    1  UNL1       -0.0464
     41 N          -9.4863  -12.4260   34.1287 N.ar    1  UNL1       -0.2388
     42 H          -9.3494  -11.7786   33.3217 H       1  UNL1        0.1923
     43 C         -11.1887  -10.2684   32.6136 C.3     1  UNL1        0.0223
     44 C         -10.3973   -9.3495   33.5482 C.3     1  UNL1        0.0047
     45 C         -12.2265   -9.4773   31.8064 C.3     1  UNL1        0.0047
@<TRIPOS>BOND
     1    21    22    1
     2    22    10    1
     3    10    11    1
     4    11    12    1
     5    12    13    1
     6    13    14    1
     7    14    15    1
     8    15    23    1
     9    23    24    1
    10    24    25   ar
    11    25    26   ar
    12    26    27   ar
    13    27    28   ar
    14    28    29   ar
    15    29    30    1
    16    15    16    1
    17    16    17    2
    18    16    18    1
    19    18    19    1
    20    19     1    1
    21     1     2    1
    22     2     3    1
    23     3     4    1
    24     4     5   ar
    25     5     6   ar
    26     6    31    1
    27    31    32   ar
    28    32    33   ar
    29    33    34   ar
    30    34    35   ar
    31    35    36   ar
    32    36    37    1
    33    37    38   ar
    34    38    39   ar
    35    39    40   ar
    36    40    41   ar
    37     6     7   ar
    38     7    43    1
    39    43    44    1
    40    43    45    1
    41     7     8   ar
    42     8     9   ar
    43    19    10    1
    44     9     1    1
    45    18    12    1
    46     9     4   ar
    47    29    24   ar
    48    36    31   ar
    49    41    37   ar
    50    41    42    1
    51    11    20    1
@<TRIPOS>MOLECULE
*****
 45 51 0 0 0
SMALL
GASTEIGER

@<TRIPOS>ATOM
      1 C          -8.5121  -16.7335   21.2341 C.3     1  UNL1        0.0817
      2 C          -8.4661  -15.3882   21.9893 C.3     1  UNL1        0.0252
      3 C          -6.9976  -14.9221   21.9589 C.3     1  UNL1        0.0278
      4 C          -6.2527  -16.1158   21.4857 C.ar    1  UNL1       -0.0248
      5 C          -4.8704  -16.2457   21.3828 C.ar    1  UNL1       -0.0048
      6 C          -4.3266  -17.4568   20.9155 C.ar    1  UNL1       -0.0042
      7 C          -5.1898  -18.5285   20.5343 C.ar    1  UNL1       -0.0228
      8 C          -6.5882  -18.3513   20.6535 C.ar    1  UNL1       -0.0076
      9 C          -7.0887  -17.1413   21.1319 C.ar    1  UNL1       -0.0120
     10 C         -10.1672  -18.6569   21.2787 C.3     1  UNL1        0.1158
     11 N         -10.8993  -19.4082   22.1376 N.3     1  UNL1       -0.2851
     12 C         -10.5280  -18.9474   23.3406 C.3     1  UNL1        0.0910
     13 C         -11.0029  -19.3674   24.5718 C.3     1  UNL1        0.1018
     14 C         -10.4845  -18.7380   25.7106 C.3     1  UNL1        0.3136
     15 N          -9.5181  -17.7598   25.6066 N.am    1  UNL1       -0.1294
     16 C          -9.0976  -17.3208   24.3661 C.2     1  UNL1        0.4047
     17 O          -8.2724  -16.3754   24.2689 O.2     1  UNL1       -0.2174
     18 C          -9.6107  -17.9482   23.2185 C.3     1  UNL1        0.2038
     19 N          -9.3663  -17.7393   21.8999 N.3     1  UNL1       -0.2473
     20 H         -10.6750  -20.3984   22.0401 H       1  UNL1        0.1244
     21 C          -9.7091  -20.1504   19.3321 C.3     1  UNL1        0.0029
     22 C         -10.3037  -18.8231   19.7904 C.3     1  UNL1        0.0326
     23 C          -8.9899  -17.1490   26.8427 C.3     1  UNL1        0.3394
     24 C          -7.7710  -16.2827   26.5791 C.ar    1  UNL1        0.0505
     25 C          -6.8139  -16.7344   25.6513 C.ar    1  UNL1        0.0021
     26 C          -5.6747  -15.9774   25.3757 C.ar    1  UNL1       -0.0001
     27 C          -5.4725  -14.7589   26.0200 C.ar    1  UNL1       -0.0003
     28 C          -6.4062  -14.2944   26.9468 C.ar    1  UNL1       -0.0044
     29 C          -7.5525  -15.0499   27.2512 C.ar    1  UNL1       -0.0193
     30 C          -8.5476  -14.4792   28.2265 C.3     1  UNL1        0.0309
     31 C          -2.8575  -17.5586   20.7953 C.ar    1  UNL1        0.0027
     32 C          -2.2899  -17.4184   19.5190 C.ar    1  UNL1        0.0001
     33 C          -0.9177  -17.5848   19.3321 C.ar    1  UNL1        0.0000
     34 C          -0.0987  -17.8968   20.4160 C.ar    1  UNL1        0.0001
     35 C          -0.6473  -18.0368   21.6925 C.ar    1  UNL1        0.0031
     36 C          -2.0279  -17.8650   21.9046 C.ar    1  UNL1        0.0371
     37 C          -2.5642  -17.9896   23.2820 C.ar    1  UNL1        0.1806
     38 N          -3.7509  -18.5409   23.6004 N.ar    1  UNL1       -0.1084
     39 N          -3.8616  -18.3890   24.9125 N.ar    1  UNL1       -0.0229
     40 N          -2.7911  -17.7719   25.3880 N.ar    1  UNL1       -0.0464
     41 N          -1.9699  -17.5093   24.3881 N.ar    1  UNL1       -0.2388
     42 H          -1.0463  -17.0317   24.4782 H       1  UNL1        0.1923
     43 C          -4.6431  -19.8556   20.0188 C.3     1  UNL1        0.0223
     44 C          -3.5508  -20.3878   20.9502 C.3     1  UNL1        0.0047
     45 C          -5.7597  -20.8902   19.8258 C.3     1  UNL1        0.0047
@<TRIPOS>BOND
     1    21    22    1
     2    22    10    1
     3    10    11    1
     4    11    12    1
     5    12    13    1
     6    13    14    1
     7    14    15    1
     8    15    23    1
     9    23    24    1
    10    24    25   ar
    11    25    26   ar
    12    26    27   ar
    13    27    28   ar
    14    28    29   ar
    15    29    30    1
    16    15    16    1
    17    16    17    2
    18    16    18    1
    19    18    19    1
    20    19     1    1
    21     1     2    1
    22     2     3    1
    23     3     4    1
    24     4     5   ar
    25     5     6   ar
    26     6    31    1
    27    31    32   ar
    28    32    33   ar
    29    33    34   ar
    30    34    35   ar
    31    35    36   ar
    32    36    37    1
    33    37    38   ar
    34    38    39   ar
    35    39    40   ar
    36    40    41   ar
    37     6     7   ar
    38     7    43    1
    39    43    44    1
    40    43    45    1
    41     7     8   ar
    42     8     9   ar
    43    19    10    1
    44     9     1    1
    45    18    12    1
    46     9     4   ar
    47    29    24   ar
    48    36    31   ar
    49    41    37   ar
    50    41    42    1
    51    11    20    1
@<TRIPOS>MOLECULE
*****
 45 51 0 0 0
SMALL
GASTEIGER

@<TRIPOS>ATOM
      1 C          -5.9304  -10.4422   30.6343 C.3     1  UNL1        0.0817
      2 C          -5.2301  -10.5844   32.0024 C.3     1  UNL1        0.0252
      3 C          -6.2078  -11.3514   32.9139 C.3     1  UNL1        0.0278
      4 C          -7.4863  -11.3373   32.1598 C.ar    1  UNL1       -0.0248
      5 C          -8.7170  -11.8152   32.6019 C.ar    1  UNL1       -0.0048
      6 C          -9.8364  -11.7194   31.7543 C.ar    1  UNL1       -0.0042
      7 C          -9.6995  -11.1555   30.4496 C.ar    1  UNL1       -0.0228
      8 C          -8.4295  -10.6847   30.0415 C.ar    1  UNL1       -0.0076
      9 C          -7.3468  -10.7858   30.9140 C.ar    1  UNL1       -0.0120
     10 C          -4.8278   -8.7525   29.0947 C.3     1  UNL1        0.1158
     11 N          -4.8464   -7.4345   28.7773 N.3     1  UNL1       -0.2851
     12 C          -5.8356   -6.9494   29.5413 C.3     1  UNL1        0.0910
     13 C          -6.2554   -5.6319   29.6156 C.3     1  UNL1        0.1018
     14 C          -7.3058   -5.3396   30.4948 C.3     1  UNL1        0.3136
     15 N          -7.9145   -6.3325   31.2332 N.am    1  UNL1       -0.1294
     16 C          -7.4446   -7.6306   31.1816 C.2     1  UNL1        0.4047
     17 O          -7.9495   -8.5224   31.9123 O.2     1  UNL1       -0.2174
     18 C          -6.3928   -7.9331   30.3007 C.3     1  UNL1        0.2038
     19 N          -5.7570   -9.1024   30.0347 N.3     1  UNL1       -0.2473
     20 H          -5.0494   -7.2996   27.7869 H       1  UNL1        0.1244
     21 C          -4.3841  -10.3446   27.2244 C.3     1  UNL1        0.0029
     22 C          -3.8220   -9.6859   28.4796 C.3     1  UNL1        0.0326
     23 C          -9.0339   -5.9697   32.1249 C.3     1  UNL1        0.3394
     24 C         -10.3420   -6.6084   31.6928 C.ar    1  UNL1        0.0505
     25 C         -10.7017   -7.8480   32.2538 C.ar    1  UNL1        0.0021
     26 C         -11.8915   -8.4783   31.8880 C.ar    1  UNL1       -0.0001
     27 C         -12.7408   -7.8824   30.9582 C.ar    1  UNL1       -0.0003
     28 C         -12.4015   -6.6560   30.3862 C.ar    1  UNL1       -0.0044
     29 C         -11.1990   -6.0124   30.7287 C.ar    1  UNL1       -0.0193
     30 C         -10.9052   -4.6701   30.1131 C.3     1  UNL1        0.0309
     31 C         -11.1247  -12.2549   32.2409 C.ar    1  UNL1        0.0027
     32 C         -12.2235  -12.2214   31.3678 C.ar    1  UNL1        0.0001
     33 C         -13.4830  -12.6383   31.7985 C.ar    1  UNL1        0.0000
     34 C         -13.6596  -13.0888   33.1058 C.ar    1  UNL1        0.0001
     35 C         -12.5760  -13.1310   33.9857 C.ar    1  UNL1        0.0031
     36 C         -11.2953  -12.7229   33.5692 C.ar    1  UNL1        0.0371
     37 C         -10.1653  -12.8155   34.5257 C.ar    1  UNL1        0.1806
     38 N          -9.8290  -13.9212   35.2170 N.ar    1  UNL1       -0.1084
     39 N          -8.8183  -13.5511   35.9906 N.ar    1  UNL1       -0.0229
     40 N          -8.5387  -12.2729   35.7883 N.ar    1  UNL1       -0.0464
     41 N          -9.3691  -11.7923   34.8813 N.ar    1  UNL1       -0.2388
     42 H          -9.3703  -10.8104   34.5275 H       1  UNL1        0.1923
     43 C         -10.8849  -11.0367   29.4975 C.3     1  UNL1        0.0223
     44 C         -10.8415   -9.7039   28.7452 C.3     1  UNL1        0.0047
     45 C         -10.9489  -12.2210   28.5240 C.3     1  UNL1        0.0047
@<TRIPOS>BOND
     1    21    22    1
     2    22    10    1
     3    10    11    1
     4    11    12    1
     5    12    13    1
     6    13    14    1
     7    14    15    1
     8    15    23    1
     9    23    24    1
    10    24    25   ar
    11    25    26   ar
    12    26    27   ar
    13    27    28   ar
    14    28    29   ar
    15    29    30    1
    16    15    16    1
    17    16    17    2
    18    16    18    1
    19    18    19    1
    20    19     1    1
    21     1     2    1
    22     2     3    1
    23     3     4    1
    24     4     5   ar
    25     5     6   ar
    26     6    31    1
    27    31    32   ar
    28    32    33   ar
    29    33    34   ar
    30    34    35   ar
    31    35    36   ar
    32    36    37    1
    33    37    38   ar
    34    38    39   ar
    35    39    40   ar
    36    40    41   ar
    37     6     7   ar
    38     7    43    1
    39    43    44    1
    40    43    45    1
    41     7     8   ar
    42     8     9   ar
    43    19    10    1
    44     9     1    1
    45    18    12    1
    46     9     4   ar
    47    29    24   ar
    48    36    31   ar
    49    41    37   ar
    50    41    42    1
    51    11    20    1
@<TRIPOS>MOLECULE
*****
 45 51 0 0 0
SMALL
GASTEIGER

@<TRIPOS>ATOM
      1 C         -10.1412  -12.1913   31.6708 C.3     1  UNL1        0.0817
      2 C         -10.6507  -12.9737   30.4417 C.3     1  UNL1        0.0252
      3 C          -9.4817  -13.0173   29.4385 C.3     1  UNL1        0.0278
      4 C          -8.5086  -12.0356   29.9796 C.ar    1  UNL1       -0.0248
      5 C          -7.3199  -11.6275   29.3808 C.ar    1  UNL1       -0.0048
      6 C          -6.5114  -10.6785   30.0339 C.ar    1  UNL1       -0.0042
      7 C          -6.9028  -10.1594   31.3053 C.ar    1  UNL1       -0.0228
      8 C          -8.1178  -10.6042   31.8773 C.ar    1  UNL1       -0.0076
      9 C          -8.8975  -11.5364   31.1942 C.ar    1  UNL1       -0.0120
     10 C         -11.9604  -11.4495   33.2773 C.3     1  UNL1        0.1158
     11 N         -12.8328  -10.4356   33.4989 N.3     1  UNL1       -0.2851
     12 C         -12.5329   -9.5568   32.5319 C.3     1  UNL1        0.0910
     13 C         -13.1543   -8.3423   32.2938 C.3     1  UNL1        0.1018
     14 C         -12.6874   -7.5809   31.2149 C.3     1  UNL1        0.3136
     15 N         -11.6312   -8.0137   30.4412 N.am    1  UNL1       -0.1294
     16 C         -11.0612   -9.2521   30.6651 C.2     1  UNL1        0.4047
     17 O         -10.1485   -9.6809   29.9119 O.2     1  UNL1       -0.2174
     18 C         -11.5218  -10.0214   31.7467 C.3     1  UNL1        0.2038
     19 N         -11.1400  -11.2411   32.2036 N.3     1  UNL1       -0.2473
     20 H         -12.6908  -10.0261   34.4222 H       1  UNL1        0.1244
     21 C         -12.8911  -13.7510   33.5356 C.3     1  UNL1        0.0029
     22 C         -11.9747  -12.6875   34.1309 C.3     1  UNL1        0.0326
     23 C         -11.1652   -7.1574   29.3323 C.3     1  UNL1        0.3394
     24 C          -9.8498   -6.4696   29.6523 C.ar    1  UNL1        0.0505
     25 C          -8.6669   -7.2313   29.6143 C.ar    1  UNL1        0.0021
     26 C          -7.4329   -6.6476   29.9032 C.ar    1  UNL1       -0.0001
     27 C          -7.3593   -5.2963   30.2337 C.ar    1  UNL1       -0.0003
     28 C          -8.5200   -4.5237   30.2817 C.ar    1  UNL1       -0.0044
     29 C          -9.7752   -5.0965   30.0104 C.ar    1  UNL1       -0.0193
     30 C         -10.9888   -4.2054   30.0343 C.3     1  UNL1        0.0309
     31 C          -5.2447  -10.2806   29.3859 C.ar    1  UNL1        0.0027
     32 C          -5.3183   -9.5484   28.1904 C.ar    1  UNL1        0.0001
     33 C          -4.1580   -9.2147   27.4918 C.ar    1  UNL1        0.0000
     34 C          -2.9130   -9.6117   27.9768 C.ar    1  UNL1        0.0001
     35 C          -2.8225  -10.3380   29.1661 C.ar    1  UNL1        0.0031
     36 C          -3.9800  -10.6780   29.8908 C.ar    1  UNL1        0.0371
     37 C          -3.8364  -11.4212   31.1665 C.ar    1  UNL1        0.1806
     38 N          -4.8441  -12.0255   31.8244 N.ar    1  UNL1       -0.1084
     39 N          -4.2955  -12.5054   32.9315 N.ar    1  UNL1       -0.0229
     40 N          -3.0045  -12.2132   32.9596 N.ar    1  UNL1       -0.0464
     41 N          -2.6965  -11.5334   31.8704 N.ar    1  UNL1       -0.2388
     42 H          -1.7442  -11.1792   31.6320 H       1  UNL1        0.1923
     43 C          -6.0547   -9.1335   32.0496 C.3     1  UNL1        0.0223
     44 C          -5.4052   -8.1553   31.0671 C.3     1  UNL1        0.0047
     45 C          -6.8723   -8.3894   33.1137 C.3     1  UNL1        0.0047
@<TRIPOS>BOND
     1    21    22    1
     2    22    10    1
     3    10    11    1
     4    11    12    1
     5    12    13    1
     6    13    14    1
     7    14    15    1
     8    15    23    1
     9    23    24    1
    10    24    25   ar
    11    25    26   ar
    12    26    27   ar
    13    27    28   ar
    14    28    29   ar
    15    29    30    1
    16    15    16    1
    17    16    17    2
    18    16    18    1
    19    18    19    1
    20    19     1    1
    21     1     2    1
    22     2     3    1
    23     3     4    1
    24     4     5   ar
    25     5     6   ar
    26     6    31    1
    27    31    32   ar
    28    32    33   ar
    29    33    34   ar
    30    34    35   ar
    31    35    36   ar
    32    36    37    1
    33    37    38   ar
    34    38    39   ar
    35    39    40   ar
    36    40    41   ar
    37     6     7   ar
    38     7    43    1
    39    43    44    1
    40    43    45    1
    41     7     8   ar
    42     8     9   ar
    43    19    10    1
    44     9     1    1
    45    18    12    1
    46     9     4   ar
    47    29    24   ar
    48    36    31   ar
    49    41    37   ar
    50    41    42    1
    51    11    20    1
@<TRIPOS>MOLECULE
*****
 45 51 0 0 0
SMALL
GASTEIGER

@<TRIPOS>ATOM
      1 C          -9.8166   -9.5639   29.3566 C.3     1  UNL1        0.0817
      2 C          -8.4131  -10.1586   29.1139 C.3     1  UNL1        0.0252
      3 C          -8.4523  -11.6012   29.6543 C.3     1  UNL1        0.0278
      4 C          -9.7174  -11.6592   30.4289 C.ar    1  UNL1       -0.0248
      5 C         -10.1691  -12.7239   31.2038 C.ar    1  UNL1       -0.0048
      6 C         -11.3982  -12.6094   31.8799 C.ar    1  UNL1       -0.0042
      7 C         -12.1767  -11.4192   31.7518 C.ar    1  UNL1       -0.0228
      8 C         -11.6796  -10.3635   30.9521 C.ar    1  UNL1       -0.0076
      9 C         -10.4521  -10.5098   30.3075 C.ar    1  UNL1       -0.0120
     10 C         -10.8549   -7.3903   30.1554 C.3     1  UNL1        0.1158
     11 N         -10.5254   -6.1255   30.5160 N.3     1  UNL1       -0.2851
     12 C          -9.1866   -6.1256   30.4448 C.3     1  UNL1        0.0910
     13 C          -8.3432   -5.0563   30.6952 C.3     1  UNL1        0.1018
     14 C          -6.9673   -5.2734   30.5483 C.3     1  UNL1        0.3136
     15 N          -6.4749   -6.5125   30.1968 N.am    1  UNL1       -0.1294
     16 C          -7.3376   -7.5503   29.9014 C.2     1  UNL1        0.4047
     17 O          -6.8918   -8.6591   29.5065 O.2     1  UNL1       -0.2174
     18 C          -8.7193   -7.3419   30.0483 C.3     1  UNL1        0.2038
     19 N          -9.7750   -8.1715   29.8505 N.3     1  UNL1       -0.2473
     20 H         -10.8412   -5.9214   31.4641 H       1  UNL1        0.1244
     21 C         -13.0919   -7.3169   31.2599 C.3     1  UNL1        0.0029
     22 C         -12.2922   -7.8229   30.0642 C.3     1  UNL1        0.0326
     23 C          -5.0135   -6.6896   30.0815 C.3     1  UNL1        0.3394
     24 C          -4.3154   -6.5885   31.4261 C.ar    1  UNL1        0.0505
     25 C          -3.2318   -5.6997   31.5552 C.ar    1  UNL1        0.0021
     26 C          -2.5545   -5.5719   32.7684 C.ar    1  UNL1       -0.0001
     27 C          -2.9473   -6.3273   33.8711 C.ar    1  UNL1       -0.0003
     28 C          -4.0160   -7.2178   33.7639 C.ar    1  UNL1       -0.0044
     29 C          -4.7009   -7.3739   32.5458 C.ar    1  UNL1       -0.0193
     30 C          -5.8740   -8.3169   32.5001 C.3     1  UNL1        0.0309
     31 C         -11.8634  -13.7633   32.6768 C.ar    1  UNL1        0.0027
     32 C         -12.8862  -14.5628   32.1428 C.ar    1  UNL1        0.0001
     33 C         -13.4211  -15.6166   32.8837 C.ar    1  UNL1        0.0000
     34 C         -12.9437  -15.8807   34.1664 C.ar    1  UNL1        0.0001
     35 C         -11.9245  -15.0965   34.7108 C.ar    1  UNL1        0.0031
     36 C         -11.3652  -14.0337   33.9773 C.ar    1  UNL1        0.0371
     37 C         -10.2615  -13.2472   34.5802 C.ar    1  UNL1        0.1806
     38 N          -9.7592  -12.1067   34.0697 N.ar    1  UNL1       -0.1084
     39 N          -8.7594  -11.7782   34.8756 N.ar    1  UNL1       -0.0229
     40 N          -8.6464  -12.6739   35.8440 N.ar    1  UNL1       -0.0464
     41 N          -9.5707  -13.6020   35.6776 N.ar    1  UNL1       -0.2388
     42 H          -9.7134  -14.4269   36.3007 H       1  UNL1        0.1923
     43 C         -13.5157  -11.2549   32.4632 C.3     1  UNL1        0.0223
     44 C         -14.5614  -12.2035   31.8711 C.3     1  UNL1        0.0047
     45 C         -13.3793  -11.4560   33.9782 C.3     1  UNL1        0.0047
@<TRIPOS>BOND
     1    21    22    1
     2    22    10    1
     3    10    11    1
     4    11    12    1
     5    12    13    1
     6    13    14    1
     7    14    15    1
     8    15    23    1
     9    23    24    1
    10    24    25   ar
    11    25    26   ar
    12    26    27   ar
    13    27    28   ar
    14    28    29   ar
    15    29    30    1
    16    15    16    1
    17    16    17    2
    18    16    18    1
    19    18    19    1
    20    19     1    1
    21     1     2    1
    22     2     3    1
    23     3     4    1
    24     4     5   ar
    25     5     6   ar
    26     6    31    1
    27    31    32   ar
    28    32    33   ar
    29    33    34   ar
    30    34    35   ar
    31    35    36   ar
    32    36    37    1
    33    37    38   ar
    34    38    39   ar
    35    39    40   ar
    36    40    41   ar
    37     6     7   ar
    38     7    43    1
    39    43    44    1
    40    43    45    1
    41     7     8   ar
    42     8     9   ar
    43    19    10    1
    44     9     1    1
    45    18    12    1
    46     9     4   ar
    47    29    24   ar
    48    36    31   ar
    49    41    37   ar
    50    41    42    1
    51    11    20    1
