@<TRIPOS>MOLECULE
*****
 53 59 0 0 0
SMALL
GASTEIGER

@<TRIPOS>ATOM
      1 C          -6.1571   -6.8795   30.8277 C.3     1  UNL1        0.1239
      2 C          -6.8638   -6.5719   32.1426 C.3     1  UNL1        0.0374
      3 C          -8.0884   -5.7836   31.7230 C.3     1  UNL1        0.0739
      4 N          -7.7282   -5.0348   30.5084 N.3     1  UNL1       -0.2638
      5 C          -6.4616   -5.6093   30.0118 C.3     1  UNL1        0.0913
      6 C          -6.7400   -8.1403   30.2035 C.2     1  UNL1        0.2359
      7 O          -7.3739   -8.0793   29.1139 O.2     1  UNL1       -0.2739
      8 N          -6.5044   -9.4199   30.8122 N.am    1  UNL1       -0.2832
      9 H          -5.6288   -9.5442   31.3692 H       1  UNL1        0.1549
     10 C          -7.4199  -10.5258   30.7260 C.ar    1  UNL1        0.0505
     11 C          -8.5267  -10.5809   31.6126 C.ar    1  UNL1        0.0162
     12 C          -9.4777  -11.6141   31.5179 C.ar    1  UNL1        0.0198
     13 C          -9.2879  -12.5785   30.5331 C.ar    1  UNL1        0.0754
     14 N         -10.0805  -13.6167   30.2232 N.ar    1  UNL1       -0.2757
     15 N          -9.5484  -14.2605   29.1902 N.ar    1  UNL1       -0.1726
     16 C          -8.3994  -13.6305   28.8412 C.ar    1  UNL1        0.1036
     17 C          -8.2207  -12.5452   29.6832 C.ar    1  UNL1        0.0376
     18 C          -7.2790  -11.5179   29.7249 C.ar    1  UNL1        0.0177
     19 H         -10.9744  -13.8843   30.6916 H       1  UNL1        0.1889
     20 C          -7.5147  -14.0804   27.7486 C.ar    1  UNL1        0.0388
     21 C          -7.9459  -15.0609   26.8459 C.ar    1  UNL1        0.0079
     22 C          -7.1063  -15.4827   25.8122 C.ar    1  UNL1        0.0578
     23 C          -5.8191  -14.9272   25.6957 C.ar    1  UNL1        0.2247
     24 N          -5.4149  -14.0025   26.6055 N.ar    1  UNL1       -0.2101
     25 C          -6.2159  -13.5715   27.6134 C.ar    1  UNL1        0.1036
     26 O          -4.9190  -15.2937   24.6827 O.3     1  UNL1       -0.4640
     27 C          -5.2406  -16.0303   23.5016 C.3     1  UNL1        0.1678
     28 C          -4.3108  -17.2392   23.4128 C.3     1  UNL1        0.0473
     29 C          -5.0747  -15.1441   22.2628 C.3     1  UNL1        0.0473
     30 C          -4.4151   -7.2675   32.9437 C.3     1  UNL1        0.0696
     31 S          -4.3521   -7.0952   31.1276 S.3     1  UNL1       -0.1308
     32 C          -8.8077   -5.0866   29.5002 C.3     1  UNL1        0.1587
     33 C         -10.1648   -5.1691   30.1551 C.2     1  UNL1        0.2423
     34 O         -10.8615   -4.1202   30.2464 O.2     1  UNL1       -0.2733
     35 N         -10.6712   -6.4068   30.7046 N.am    1  UNL1       -0.2731
     36 C         -12.0840   -6.4595   31.1208 C.3     1  UNL1        0.1196
     37 C         -12.5476   -7.8406   31.5149 C.2     1  UNL1       -0.0081
     38 C         -11.8028   -8.9454   31.3396 C.2     1  UNL1       -0.0129
     39 C         -10.4456   -8.8473   30.6902 C.3     1  UNL1        0.0988
     40 BR        -10.6397   -9.0068   28.7625 Br      1  UNL1       -0.0751
     41 C          -9.7778   -7.5228   31.0496 C.3     1  UNL1        0.1095
     42 C         -12.3455  -10.2758   31.7094 C.ar    1  UNL1       -0.0034
     43 C         -12.7788  -11.1716   30.7174 C.ar    1  UNL1       -0.0002
     44 C         -13.2808  -12.4282   31.0673 C.ar    1  UNL1        0.0031
     45 C         -13.3611  -12.8129   32.4161 C.ar    1  UNL1        0.0375
     46 C         -12.9314  -11.9156   33.4080 C.ar    1  UNL1        0.0031
     47 C         -12.4289  -10.6597   33.0576 C.ar    1  UNL1       -0.0002
     48 C         -13.8918  -14.1424   32.7870 C.ar    1  UNL1        0.1832
     49 N         -13.1134  -15.2247   33.0227 N.ar    1  UNL1       -0.2034
     50 C         -14.0209  -16.1778   33.3098 C.ar    1  UNL1        0.1972
     51 N         -15.2695  -15.6881   33.2586 N.ar    1  UNL1       -0.2281
     52 C         -16.5060  -16.4361   33.4341 C.3     1  UNL1        0.1556
     53 N         -15.2071  -14.4149   32.9176 N.ar    1  UNL1       -0.1484
@<TRIPOS>BOND
     1    30    31    1
     2     1    31    1
     3     1     6    1
     4     6     7    2
     5     6     8   am
     6     8    10    1
     7    10    11   ar
     8    11    12   ar
     9    12    13   ar
    10    13    14   ar
    11    14    15   ar
    12    15    16   ar
    13    16    20    1
    14    20    21   ar
    15    21    22   ar
    16    22    23   ar
    17    23    26    1
    18    26    27    1
    19    27    28    1
    20    27    29    1
    21    23    24   ar
    22    24    25   ar
    23    16    17   ar
    24    17    18   ar
    25     1     2    1
    26     2     3    1
    27     3     4    1
    28     4    32    1
    29    32    33    1
    30    33    34    2
    31    33    35   am
    32    35    36    1
    33    36    37    1
    34    37    38    2
    35    38    42    1
    36    42    43   ar
    37    43    44   ar
    38    44    45   ar
    39    45    48    1
    40    48    49   ar
    41    49    50   ar
    42    50    51   ar
    43    51    52    1
    44    51    53   ar
    45    45    46   ar
    46    46    47   ar
    47    38    39    1
    48    39    40    1
    49    39    41    1
    50     4     5    1
    51     5     1    1
    52    18    10   ar
    53    41    35    1
    54    17    13   ar
    55    47    42   ar
    56    25    20   ar
    57    53    48   ar
    58     8     9    1
    59    14    19    1
@<TRIPOS>MOLECULE
*****
 53 59 0 0 0
SMALL
GASTEIGER

@<TRIPOS>ATOM
      1 C          -6.2417   -6.0726   30.7468 C.3     1  UNL1        0.1239
      2 C          -5.2530   -6.7017   29.7723 C.3     1  UNL1        0.0374
      3 C          -4.5635   -7.7733   30.5930 C.3     1  UNL1        0.0739
      4 N          -4.5289   -7.2993   31.9858 N.3     1  UNL1       -0.2638
      5 C          -5.4619   -6.1577   32.0721 C.3     1  UNL1        0.0913
      6 C          -7.5368   -6.8734   30.7673 C.2     1  UNL1        0.2359
      7 O          -7.7488   -7.7674   29.9021 O.2     1  UNL1       -0.2739
      8 N          -8.4925   -6.6694   31.8201 N.am    1  UNL1       -0.2832
      9 H          -8.1382   -6.3429   32.7476 H       1  UNL1        0.1549
     10 C          -9.9095   -6.8567   31.6596 C.ar    1  UNL1        0.0505
     11 C         -10.7226   -5.7435   31.3228 C.ar    1  UNL1        0.0162
     12 C         -12.1030   -5.8989   31.0968 C.ar    1  UNL1        0.0198
     13 C         -12.6385   -7.1768   31.2238 C.ar    1  UNL1        0.0754
     14 N         -13.9031   -7.5729   31.0090 N.ar    1  UNL1       -0.2757
     15 N         -13.9730   -8.8853   31.2020 N.ar    1  UNL1       -0.1726
     16 C         -12.7408   -9.3311   31.5509 C.ar    1  UNL1        0.1036
     17 C         -11.8706   -8.2534   31.5606 C.ar    1  UNL1        0.0376
     18 C         -10.4947   -8.1430   31.7568 C.ar    1  UNL1        0.0177
     19 H         -14.7082   -6.9719   30.7250 H       1  UNL1        0.1889
     20 C         -12.4374  -10.7391   31.8741 C.ar    1  UNL1        0.0388
     21 C         -11.4394  -11.0532   32.8055 C.ar    1  UNL1        0.0079
     22 C         -11.1566  -12.3869   33.1100 C.ar    1  UNL1        0.0578
     23 C         -11.8702  -13.4111   32.4613 C.ar    1  UNL1        0.2247
     24 N         -12.8092  -13.0780   31.5377 N.ar    1  UNL1       -0.2101
     25 C         -13.1068  -11.7893   31.2313 C.ar    1  UNL1        0.1036
     26 O         -11.6490  -14.7739   32.7158 O.3     1  UNL1       -0.4640
     27 C         -12.3847  -15.5858   33.6326 C.3     1  UNL1        0.1678
     28 C         -13.7035  -15.9901   32.9758 C.3     1  UNL1        0.0473
     29 C         -12.6546  -14.8119   34.9271 C.3     1  UNL1        0.0473
     30 C          -8.3393   -4.5292   29.8085 C.3     1  UNL1        0.0696
     31 S          -6.5798   -4.3305   30.2516 S.3     1  UNL1       -0.1308
     32 C          -4.8674   -8.3809   32.9345 C.3     1  UNL1        0.1587
     33 C          -6.3049   -8.8137   32.7808 C.2     1  UNL1        0.2423
     34 O          -7.2049   -8.1592   33.3772 O.2     1  UNL1       -0.2733
     35 N          -6.6719   -9.9712   31.9961 N.am    1  UNL1       -0.2731
     36 C          -8.1000  -10.1961   31.7094 C.3     1  UNL1        0.1196
     37 C          -8.3523  -11.3282   30.7437 C.2     1  UNL1       -0.0081
     38 C          -7.3715  -11.9575   30.0742 C.2     1  UNL1       -0.0129
     39 C          -5.9389  -11.5190   30.2428 C.3     1  UNL1        0.0988
     40 BR         -5.5381  -10.1157   28.9586 Br      1  UNL1       -0.0751
     41 C          -5.6978  -11.0222   31.6657 C.3     1  UNL1        0.1095
     42 C          -7.7017  -13.0316   29.1054 C.ar    1  UNL1       -0.0034
     43 C          -6.6869  -13.6668   28.3699 C.ar    1  UNL1       -0.0002
     44 C          -6.9989  -14.6851   27.4647 C.ar    1  UNL1        0.0031
     45 C          -8.3319  -15.0867   27.2760 C.ar    1  UNL1        0.0375
     46 C          -9.3466  -14.4489   28.0088 C.ar    1  UNL1        0.0031
     47 C          -9.0341  -13.4314   28.9141 C.ar    1  UNL1       -0.0002
     48 C          -8.6627  -16.1642   26.3188 C.ar    1  UNL1        0.1832
     49 N          -9.0253  -17.4150   26.6890 N.ar    1  UNL1       -0.2034
     50 C          -9.2142  -18.0253   25.5032 C.ar    1  UNL1        0.1972
     51 N          -8.9874  -17.1823   24.4836 N.ar    1  UNL1       -0.2281
     52 C          -9.0175  -17.5046   23.0643 C.3     1  UNL1        0.1556
     53 N          -8.6261  -16.0136   24.9782 N.ar    1  UNL1       -0.1484
@<TRIPOS>BOND
     1    30    31    1
     2     1    31    1
     3     1     6    1
     4     6     7    2
     5     6     8   am
     6     8    10    1
     7    10    11   ar
     8    11    12   ar
     9    12    13   ar
    10    13    14   ar
    11    14    15   ar
    12    15    16   ar
    13    16    20    1
    14    20    21   ar
    15    21    22   ar
    16    22    23   ar
    17    23    26    1
    18    26    27    1
    19    27    28    1
    20    27    29    1
    21    23    24   ar
    22    24    25   ar
    23    16    17   ar
    24    17    18   ar
    25     1     2    1
    26     2     3    1
    27     3     4    1
    28     4    32    1
    29    32    33    1
    30    33    34    2
    31    33    35   am
    32    35    36    1
    33    36    37    1
    34    37    38    2
    35    38    42    1
    36    42    43   ar
    37    43    44   ar
    38    44    45   ar
    39    45    48    1
    40    48    49   ar
    41    49    50   ar
    42    50    51   ar
    43    51    52    1
    44    51    53   ar
    45    45    46   ar
    46    46    47   ar
    47    38    39    1
    48    39    40    1
    49    39    41    1
    50     4     5    1
    51     5     1    1
    52    18    10   ar
    53    41    35    1
    54    17    13   ar
    55    47    42   ar
    56    25    20   ar
    57    53    48   ar
    58     8     9    1
    59    14    19    1
@<TRIPOS>MOLECULE
*****
 53 59 0 0 0
SMALL
GASTEIGER

@<TRIPOS>ATOM
      1 C         -12.0514  -12.5161   32.7238 C.3     1  UNL1        0.1239
      2 C         -10.6702  -12.3232   33.3387 C.3     1  UNL1        0.0374
      3 C          -9.7198  -12.5540   32.1808 C.3     1  UNL1        0.0739
      4 N         -10.3576  -13.5301   31.2828 N.3     1  UNL1       -0.2638
      5 C         -11.7744  -13.6228   31.6893 C.3     1  UNL1        0.0913
      6 C         -12.5274  -11.2160   32.0896 C.2     1  UNL1        0.2359
      7 O         -13.2024  -11.2350   31.0234 O.2     1  UNL1       -0.2739
      8 N         -12.2772   -9.9621   32.7442 N.am    1  UNL1       -0.2832
      9 H         -12.1897   -9.9615   33.7856 H       1  UNL1        0.1549
     10 C         -12.1075   -8.7165   32.0454 C.ar    1  UNL1        0.0505
     11 C         -13.1947   -7.8072   31.9743 C.ar    1  UNL1        0.0162
     12 C         -13.0483   -6.5528   31.3531 C.ar    1  UNL1        0.0198
     13 C         -11.8066   -6.2435   30.8070 C.ar    1  UNL1        0.0754
     14 N         -11.4197   -5.1014   30.2169 N.ar    1  UNL1       -0.2757
     15 N         -10.1397   -5.2132   29.8793 N.ar    1  UNL1       -0.1726
     16 C          -9.7066   -6.4432   30.2514 C.ar    1  UNL1        0.1036
     17 C         -10.7568   -7.1140   30.8561 C.ar    1  UNL1        0.0376
     18 C         -10.8553   -8.3498   31.4942 C.ar    1  UNL1        0.0177
     19 H         -12.0039   -4.2519   30.0526 H       1  UNL1        0.1889
     20 C          -8.3375   -6.9397   30.0109 C.ar    1  UNL1        0.0388
     21 C          -7.2291   -6.1446   30.3293 C.ar    1  UNL1        0.0079
     22 C          -5.9350   -6.6189   30.1018 C.ar    1  UNL1        0.0578
     23 C          -5.7549   -7.8939   29.5352 C.ar    1  UNL1        0.2247
     24 N          -6.8484   -8.6296   29.2051 N.ar    1  UNL1       -0.2101
     25 C          -8.1152   -8.1929   29.4240 C.ar    1  UNL1        0.1036
     26 O          -4.4884   -8.4435   29.2808 O.3     1  UNL1       -0.4640
     27 C          -4.1991   -9.8292   29.0878 C.3     1  UNL1        0.1678
     28 C          -4.7603  -10.2603   27.7340 C.3     1  UNL1        0.0473
     29 C          -4.8269  -10.6628   30.2097 C.3     1  UNL1        0.0473
     30 C         -12.2647  -14.4535   34.6893 C.3     1  UNL1        0.0696
     31 S         -13.2393  -13.0618   34.0221 S.3     1  UNL1       -0.1308
     32 C         -10.1989  -13.1454   29.8646 C.3     1  UNL1        0.1587
     33 C          -8.7485  -12.9117   29.5199 C.2     1  UNL1        0.2423
     34 O          -8.0586  -12.1619   30.2655 O.2     1  UNL1       -0.2733
     35 N          -8.1407  -13.4978   28.3462 N.am    1  UNL1       -0.2731
     36 C          -6.6767  -13.4098   28.2004 C.3     1  UNL1        0.1196
     37 C          -6.1362  -14.2008   27.0343 C.2     1  UNL1       -0.0081
     38 C          -6.8873  -15.0429   26.3042 C.2     1  UNL1       -0.0129
     39 C          -8.3371  -15.2615   26.6557 C.3     1  UNL1        0.0988
     40 BR         -8.4762  -16.7019   27.9538 Br      1  UNL1       -0.0751
     41 C          -8.9483  -13.9800   27.2159 C.3     1  UNL1        0.1095
     42 C          -6.2736  -15.8221   25.2007 C.ar    1  UNL1       -0.0034
     43 C          -6.9941  -16.0813   24.0227 C.ar    1  UNL1       -0.0002
     44 C          -6.4109  -16.8073   22.9803 C.ar    1  UNL1        0.0031
     45 C          -5.0966  -17.2898   23.0965 C.ar    1  UNL1        0.0375
     46 C          -4.3779  -17.0338   24.2760 C.ar    1  UNL1        0.0031
     47 C          -4.9611  -16.3073   25.3175 C.ar    1  UNL1       -0.0002
     48 C          -4.4789  -18.0577   21.9940 C.ar    1  UNL1        0.1832
     49 N          -4.8142  -19.3323   21.6842 N.ar    1  UNL1       -0.2034
     50 C          -4.0019  -19.6013   20.6439 C.ar    1  UNL1        0.1972
     51 N          -3.2334  -18.5425   20.3437 N.ar    1  UNL1       -0.2281
     52 C          -2.1861  -18.4852   19.3343 C.3     1  UNL1        0.1556
     53 N          -3.5102  -17.5697   21.1911 N.ar    1  UNL1       -0.1484
@<TRIPOS>BOND
     1    30    31    1
     2     1    31    1
     3     1     6    1
     4     6     7    2
     5     6     8   am
     6     8    10    1
     7    10    11   ar
     8    11    12   ar
     9    12    13   ar
    10    13    14   ar
    11    14    15   ar
    12    15    16   ar
    13    16    20    1
    14    20    21   ar
    15    21    22   ar
    16    22    23   ar
    17    23    26    1
    18    26    27    1
    19    27    28    1
    20    27    29    1
    21    23    24   ar
    22    24    25   ar
    23    16    17   ar
    24    17    18   ar
    25     1     2    1
    26     2     3    1
    27     3     4    1
    28     4    32    1
    29    32    33    1
    30    33    34    2
    31    33    35   am
    32    35    36    1
    33    36    37    1
    34    37    38    2
    35    38    42    1
    36    42    43   ar
    37    43    44   ar
    38    44    45   ar
    39    45    48    1
    40    48    49   ar
    41    49    50   ar
    42    50    51   ar
    43    51    52    1
    44    51    53   ar
    45    45    46   ar
    46    46    47   ar
    47    38    39    1
    48    39    40    1
    49    39    41    1
    50     4     5    1
    51     5     1    1
    52    18    10   ar
    53    41    35    1
    54    17    13   ar
    55    47    42   ar
    56    25    20   ar
    57    53    48   ar
    58     8     9    1
    59    14    19    1
@<TRIPOS>MOLECULE
*****
 53 59 0 0 0
SMALL
GASTEIGER

@<TRIPOS>ATOM
      1 C          -5.5729   -8.2428   30.5577 C.3     1  UNL1        0.1239
      2 C          -5.7918   -8.5270   29.0764 C.3     1  UNL1        0.0374
      3 C          -5.9924  -10.0283   29.0186 C.3     1  UNL1        0.0739
      4 N          -5.1963  -10.6155   30.1082 N.3     1  UNL1       -0.2638
      5 C          -4.8111   -9.5052   31.0026 C.3     1  UNL1        0.0913
      6 C          -6.9130   -8.0788   31.2620 C.2     1  UNL1        0.2359
      7 O          -7.2714   -8.8984   32.1523 O.2     1  UNL1       -0.2739
      8 N          -7.7443   -6.9437   30.9721 N.am    1  UNL1       -0.2832
      9 H          -7.2787   -6.0627   30.6570 H       1  UNL1        0.1549
     10 C          -9.1799   -6.9624   31.0587 C.ar    1  UNL1        0.0505
     11 C          -9.9044   -5.7642   30.8279 C.ar    1  UNL1        0.0162
     12 C         -11.3117   -5.7564   30.8428 C.ar    1  UNL1        0.0198
     13 C         -11.9616   -6.9595   31.0995 C.ar    1  UNL1        0.0754
     14 N         -13.2815   -7.2043   31.1139 N.ar    1  UNL1       -0.2757
     15 N         -13.4686   -8.4966   31.3583 N.ar    1  UNL1       -0.1726
     16 C         -12.2547   -9.0821   31.5088 C.ar    1  UNL1        0.1036
     17 C         -11.2771   -8.1159   31.3368 C.ar    1  UNL1        0.0376
     18 C          -9.8844   -8.1683   31.2948 C.ar    1  UNL1        0.0177
     19 H         -14.0484   -6.5150   30.9502 H       1  UNL1        0.1889
     20 C         -12.0653  -10.5121   31.8217 C.ar    1  UNL1        0.0388
     21 C         -11.0259  -10.9210   32.6670 C.ar    1  UNL1        0.0079
     22 C         -10.8512  -12.2752   32.9621 C.ar    1  UNL1        0.0578
     23 C         -11.7166  -13.2254   32.3902 C.ar    1  UNL1        0.2247
     24 N         -12.6951  -12.8034   31.5472 N.ar    1  UNL1       -0.2101
     25 C         -12.8890  -11.4925   31.2520 C.ar    1  UNL1        0.1036
     26 O         -11.6103  -14.6025   32.6411 O.3     1  UNL1       -0.4640
     27 C         -12.2728  -15.3181   33.6852 C.3     1  UNL1        0.1678
     28 C         -13.6509  -15.7465   33.1841 C.3     1  UNL1        0.0473
     29 C         -12.4141  -14.4326   34.9275 C.3     1  UNL1        0.0473
     30 C          -4.4659   -6.7078   32.5778 C.3     1  UNL1        0.0696
     31 S          -4.5605   -6.7162   30.7550 S.3     1  UNL1       -0.1308
     32 C          -5.9438  -11.6779   30.8132 C.3     1  UNL1        0.1587
     33 C          -7.3644  -11.7719   30.3128 C.2     1  UNL1        0.2423
     34 O          -8.1975  -10.8962   30.6776 O.2     1  UNL1       -0.2733
     35 N          -7.7998  -12.8512   29.4550 N.am    1  UNL1       -0.2731
     36 C          -9.1305  -12.7522   28.8293 C.3     1  UNL1        0.1196
     37 C          -9.4090  -13.8428   27.8239 C.2     1  UNL1       -0.0081
     38 C          -8.4764  -14.7166   27.4079 C.2     1  UNL1       -0.0129
     39 C          -7.0625  -14.6153   27.9216 C.3     1  UNL1        0.0988
     40 BR         -6.0467  -13.4118   26.7820 Br      1  UNL1       -0.0751
     41 C          -7.0543  -14.1155   29.3637 C.3     1  UNL1        0.1095
     42 C          -8.8137  -15.7329   26.3810 C.ar    1  UNL1       -0.0034
     43 C          -9.0472  -17.0690   26.7479 C.ar    1  UNL1       -0.0002
     44 C          -9.3742  -18.0231   25.7802 C.ar    1  UNL1        0.0031
     45 C          -9.4721  -17.6602   24.4265 C.ar    1  UNL1        0.0375
     46 C          -9.2347  -16.3251   24.0595 C.ar    1  UNL1        0.0031
     47 C          -8.9086  -15.3715   25.0274 C.ar    1  UNL1       -0.0002
     48 C          -9.8183  -18.6690   23.4023 C.ar    1  UNL1        0.1832
     49 N         -10.0809  -19.9672   23.6829 N.ar    1  UNL1       -0.2034
     50 C         -10.3298  -20.4830   22.4637 C.ar    1  UNL1        0.1972
     51 N         -10.2317  -19.5423   21.5112 N.ar    1  UNL1       -0.2281
     52 C         -10.3570  -19.7416   20.0746 C.3     1  UNL1        0.1556
     53 N          -9.8970  -18.4008   22.0821 N.ar    1  UNL1       -0.1484
@<TRIPOS>BOND
     1    30    31    1
     2     1    31    1
     3     1     6    1
     4     6     7    2
     5     6     8   am
     6     8    10    1
     7    10    11   ar
     8    11    12   ar
     9    12    13   ar
    10    13    14   ar
    11    14    15   ar
    12    15    16   ar
    13    16    20    1
    14    20    21   ar
    15    21    22   ar
    16    22    23   ar
    17    23    26    1
    18    26    27    1
    19    27    28    1
    20    27    29    1
    21    23    24   ar
    22    24    25   ar
    23    16    17   ar
    24    17    18   ar
    25     1     2    1
    26     2     3    1
    27     3     4    1
    28     4    32    1
    29    32    33    1
    30    33    34    2
    31    33    35   am
    32    35    36    1
    33    36    37    1
    34    37    38    2
    35    38    42    1
    36    42    43   ar
    37    43    44   ar
    38    44    45   ar
    39    45    48    1
    40    48    49   ar
    41    49    50   ar
    42    50    51   ar
    43    51    52    1
    44    51    53   ar
    45    45    46   ar
    46    46    47   ar
    47    38    39    1
    48    39    40    1
    49    39    41    1
    50     4     5    1
    51     5     1    1
    52    18    10   ar
    53    41    35    1
    54    17    13   ar
    55    47    42   ar
    56    25    20   ar
    57    53    48   ar
    58     8     9    1
    59    14    19    1
@<TRIPOS>MOLECULE
*****
 53 59 0 0 0
SMALL
GASTEIGER

@<TRIPOS>ATOM
      1 C          -5.5225   -7.1961   31.4150 C.3     1  UNL1        0.1239
      2 C          -5.5687   -8.0216   30.1346 C.3     1  UNL1        0.0374
      3 C          -6.1271   -9.3578   30.5819 C.3     1  UNL1        0.0739
      4 N          -5.6858   -9.5708   31.9696 N.3     1  UNL1       -0.2638
      5 C          -5.1813   -8.2730   32.4618 C.3     1  UNL1        0.0913
      6 C          -6.8728   -6.5362   31.6604 C.2     1  UNL1        0.2359
      7 O          -7.1533   -6.0576   32.7940 O.2     1  UNL1       -0.2739
      8 N          -7.8067   -6.3845   30.5796 N.am    1  UNL1       -0.2832
      9 H          -7.4256   -6.3069   29.6095 H       1  UNL1        0.1549
     10 C          -9.2343   -6.3672   30.7543 C.ar    1  UNL1        0.0505
     11 C          -9.9438   -5.1556   30.5484 C.ar    1  UNL1        0.0162
     12 C         -11.3469   -5.1137   30.6494 C.ar    1  UNL1        0.0198
     13 C         -12.0074   -6.2968   30.9654 C.ar    1  UNL1        0.0754
     14 N         -13.3291   -6.5095   31.0647 N.ar    1  UNL1       -0.2757
     15 N         -13.5306   -7.7930   31.3416 N.ar    1  UNL1       -0.1726
     16 C         -12.3237   -8.4052   31.4272 C.ar    1  UNL1        0.1036
     17 C         -11.3364   -7.4656   31.1795 C.ar    1  UNL1        0.0376
     18 C          -9.9506   -7.5521   31.0531 C.ar    1  UNL1        0.0177
     19 H         -14.0886   -5.8045   30.9369 H       1  UNL1        0.1889
     20 C         -12.1484   -9.8345   31.7516 C.ar    1  UNL1        0.0388
     21 C         -12.3141  -10.8114   30.7614 C.ar    1  UNL1        0.0079
     22 C         -12.1456  -12.1629   31.0721 C.ar    1  UNL1        0.0578
     23 C         -11.8249  -12.5352   32.3902 C.ar    1  UNL1        0.2247
     24 N         -11.7034  -11.5690   33.3376 N.ar    1  UNL1       -0.2101
     25 C         -11.8548  -10.2491   33.0578 C.ar    1  UNL1        0.1036
     26 O         -11.6342  -13.8701   32.7807 O.3     1  UNL1       -0.4640
     27 C         -12.6510  -14.7633   33.2383 C.3     1  UNL1        0.1678
     28 C         -12.5108  -14.9279   34.7506 C.3     1  UNL1        0.0473
     29 C         -12.5140  -16.1223   32.5440 C.3     1  UNL1        0.0473
     30 C          -3.4241   -6.1844   32.9103 C.3     1  UNL1        0.0696
     31 S          -4.2044   -5.9157   31.2821 S.3     1  UNL1       -0.1308
     32 C          -6.7772  -10.1094   32.8083 C.3     1  UNL1        0.1587
     33 C          -7.9164  -10.6215   31.9614 C.2     1  UNL1        0.2423
     34 O          -9.0815  -10.1876   32.1815 O.2     1  UNL1       -0.2733
     35 N          -7.7124  -11.6138   30.9299 N.am    1  UNL1       -0.2731
     36 C          -8.8223  -11.8946   30.0018 C.3     1  UNL1        0.1196
     37 C          -8.4438  -12.8139   28.8664 C.2     1  UNL1       -0.0081
     38 C          -7.1802  -13.2008   28.6220 C.2     1  UNL1       -0.0129
     39 C          -6.0524  -12.6868   29.4807 C.3     1  UNL1        0.0988
     40 BR         -5.3904  -11.0145   28.7431 Br      1  UNL1       -0.0751
     41 C          -6.5267  -12.4837   30.9172 C.3     1  UNL1        0.1095
     42 C          -6.8794  -14.0699   27.4578 C.ar    1  UNL1       -0.0034
     43 C          -7.8396  -14.9749   26.9749 C.ar    1  UNL1       -0.0002
     44 C          -7.5579  -15.7859   25.8719 C.ar    1  UNL1        0.0031
     45 C          -6.3097  -15.7092   25.2316 C.ar    1  UNL1        0.0375
     46 C          -5.3485  -14.8070   25.7170 C.ar    1  UNL1        0.0031
     47 C          -5.6309  -13.9959   26.8192 C.ar    1  UNL1       -0.0002
     48 C          -6.0111  -16.5668   24.0645 C.ar    1  UNL1        0.1832
     49 N          -6.8735  -16.7727   23.0413 N.ar    1  UNL1       -0.2034
     50 C          -6.1810  -17.6066   22.2416 C.ar    1  UNL1        0.1972
     51 N          -4.9697  -17.8738   22.7543 N.ar    1  UNL1       -0.2281
     52 C          -3.9776  -18.7906   22.2115 C.3     1  UNL1        0.1556
     53 N          -4.8525  -17.2403   23.9058 N.ar    1  UNL1       -0.1484
@<TRIPOS>BOND
     1    30    31    1
     2     1    31    1
     3     1     6    1
     4     6     7    2
     5     6     8   am
     6     8    10    1
     7    10    11   ar
     8    11    12   ar
     9    12    13   ar
    10    13    14   ar
    11    14    15   ar
    12    15    16   ar
    13    16    20    1
    14    20    21   ar
    15    21    22   ar
    16    22    23   ar
    17    23    26    1
    18    26    27    1
    19    27    28    1
    20    27    29    1
    21    23    24   ar
    22    24    25   ar
    23    16    17   ar
    24    17    18   ar
    25     1     2    1
    26     2     3    1
    27     3     4    1
    28     4    32    1
    29    32    33    1
    30    33    34    2
    31    33    35   am
    32    35    36    1
    33    36    37    1
    34    37    38    2
    35    38    42    1
    36    42    43   ar
    37    43    44   ar
    38    44    45   ar
    39    45    48    1
    40    48    49   ar
    41    49    50   ar
    42    50    51   ar
    43    51    52    1
    44    51    53   ar
    45    45    46   ar
    46    46    47   ar
    47    38    39    1
    48    39    40    1
    49    39    41    1
    50     4     5    1
    51     5     1    1
    52    18    10   ar
    53    41    35    1
    54    17    13   ar
    55    47    42   ar
    56    25    20   ar
    57    53    48   ar
    58     8     9    1
    59    14    19    1
