@<TRIPOS>MOLECULE
*****
 45 50 0 0 0
SMALL
GASTEIGER

@<TRIPOS>ATOM
      1 C         -62.9782  -43.3812  -22.8977 C.ar    1  UNL1        0.0751
      2 C         -62.6913  -44.3349  -21.9099 C.ar    1  UNL1        0.0196
      3 C         -63.0456  -44.1005  -20.5810 C.ar    1  UNL1        0.0356
      4 C         -63.7037  -42.9085  -20.2379 C.ar    1  UNL1        0.1323
      5 N         -63.9819  -42.0039  -21.2174 N.ar    1  UNL1       -0.2227
      6 C         -63.6506  -42.2068  -22.5193 C.ar    1  UNL1        0.1301
      7 BR        -64.0920  -40.8482  -23.7917 Br      1  UNL1       -0.0267
      8 N         -64.1058  -42.6385  -18.8773 N.pl3   1  UNL1       -0.2932
      9 C         -65.4285  -43.0571  -18.3826 C.3     1  UNL1        0.0923
     10 C         -65.8950  -42.1765  -17.2088 C.3     1  UNL1        0.0252
     11 C         -65.4641  -40.7057  -17.4010 C.3     1  UNL1        0.0472
     12 C         -63.9175  -40.5902  -17.4981 C.3     1  UNL1        0.0252
     13 C         -63.2287  -41.8811  -17.9746 C.3     1  UNL1        0.0923
     14 C         -66.1946  -40.0712  -18.6067 C.3     1  UNL1        0.2054
     15 O         -65.2767  -39.7400  -19.6525 O.3     1  UNL1       -0.4755
     16 C         -64.5305  -38.5532  -19.7743 C.ar    1  UNL1        0.1388
     17 C         -63.3060  -38.4746  -20.4683 C.ar    1  UNL1        0.0369
     18 C         -62.6263  -37.2590  -20.5586 C.ar    1  UNL1        0.0033
     19 C         -63.1494  -36.1132  -19.9580 C.ar    1  UNL1        0.0066
     20 C         -64.3597  -36.1714  -19.2465 C.ar    1  UNL1        0.0785
     21 C         -65.0446  -37.3982  -19.1696 C.ar    1  UNL1        0.0433
     22 C         -64.9046  -34.9464  -18.6120 C.2     1  UNL1        0.3381
     23 O         -64.5861  -34.6620  -17.4267 O.2     1  UNL1       -0.2451
     24 O         -65.7810  -34.0970  -19.2867 O.3     1  UNL1       -0.4771
     25 H         -66.1606  -34.3170  -20.1983 H       1  UNL1        0.2954
     26 C         -61.3933  -43.2660  -24.8714 C.2     1  UNL1        0.2840
     27 O         -60.4742  -42.7694  -24.1667 O.2     1  UNL1       -0.2665
     28 N         -62.6530  -43.6229  -24.2768 N.am    1  UNL1       -0.2763
     29 H         -63.3818  -44.0725  -24.8718 H       1  UNL1        0.1553
     30 C         -62.7337  -41.7376  -27.3896 C.3     1  UNL1        0.0345
     31 C         -61.7271  -42.8477  -27.3950 C.ar    1  UNL1        0.0202
     32 C         -61.1336  -43.4939  -26.3035 C.ar    1  UNL1        0.1946
     33 O         -60.2451  -44.3748  -26.7285 O.2     1  UNL1       -0.4492
     34 C         -60.2494  -44.3509  -28.0390 C.ar    1  UNL1        0.1452
     35 C         -59.4745  -45.1185  -28.9016 C.ar    1  UNL1        0.0375
     36 C         -59.6400  -44.9268  -30.2846 C.ar    1  UNL1        0.0031
     37 C         -60.5718  -43.9758  -30.7823 C.ar    1  UNL1        0.0002
     38 C         -61.3402  -43.2144  -29.8690 C.ar    1  UNL1        0.0028
     39 C         -61.1507  -43.4327  -28.5044 C.ar    1  UNL1        0.0337
     40 C         -60.7383  -43.7818  -32.2450 C.ar    1  UNL1        0.0000
     41 C         -61.9777  -43.3780  -32.7771 C.ar    1  UNL1        0.0000
     42 C         -62.1317  -43.1972  -34.1551 C.ar    1  UNL1        0.0000
     43 C         -61.0538  -43.4156  -35.0157 C.ar    1  UNL1        0.0000
     44 C         -59.8191  -43.8161  -34.5003 C.ar    1  UNL1        0.0000
     45 C         -59.6595  -43.9994  -33.1233 C.ar    1  UNL1        0.0000
@<TRIPOS>BOND
     1    30    31    1
     2    31    32   ar
     3    32    26    1
     4    26    27    2
     5    26    28   am
     6    28     1    1
     7     1     2   ar
     8     2     3   ar
     9     3     4   ar
    10     4     8    1
    11     8     9    1
    12     9    10    1
    13    10    11    1
    14    11    14    1
    15    14    15    1
    16    15    16    1
    17    16    17   ar
    18    17    18   ar
    19    18    19   ar
    20    19    20   ar
    21    20    22    1
    22    22    23    2
    23    22    24    1
    24    20    21   ar
    25    11    12    1
    26    12    13    1
    27     4     5   ar
    28     5     6   ar
    29     6     7    1
    30    32    33   ar
    31    33    34   ar
    32    34    35   ar
    33    35    36   ar
    34    36    37   ar
    35    37    40    1
    36    40    41   ar
    37    41    42   ar
    38    42    43   ar
    39    43    44   ar
    40    44    45   ar
    41    37    38   ar
    42    38    39   ar
    43    39    31   ar
    44     6     1   ar
    45    39    34   ar
    46    13     8    1
    47    45    40   ar
    48    21    16   ar
    49    28    29    1
    50    24    25    1
@<TRIPOS>MOLECULE
*****
 45 50 0 0 0
SMALL
GASTEIGER

@<TRIPOS>ATOM
      1 C         -63.8835  -43.0857  -23.1751 C.ar    1  UNL1        0.0751
      2 C         -63.5933  -44.0057  -22.1568 C.ar    1  UNL1        0.0196
      3 C         -64.0630  -43.7925  -20.8605 C.ar    1  UNL1        0.0356
      4 C         -64.8404  -42.6568  -20.5818 C.ar    1  UNL1        0.1323
      5 N         -65.1186  -41.7851  -21.5906 N.ar    1  UNL1       -0.2227
      6 C         -64.6762  -41.9685  -22.8621 C.ar    1  UNL1        0.1301
      7 BR        -65.1324  -40.6598  -24.1807 Br      1  UNL1       -0.0267
      8 N         -65.3630  -42.4120  -19.2580 N.pl3   1  UNL1       -0.2932
      9 C         -66.5040  -41.5037  -19.0515 C.3     1  UNL1        0.0923
     10 C         -66.4985  -40.9067  -17.6322 C.3     1  UNL1        0.0252
     11 C         -65.0605  -40.6208  -17.1460 C.3     1  UNL1        0.0472
     12 C         -64.2163  -41.9251  -17.1175 C.3     1  UNL1        0.0252
     13 C         -64.7251  -43.0133  -18.0792 C.3     1  UNL1        0.0923
     14 C         -64.4092  -39.4972  -17.9846 C.3     1  UNL1        0.2054
     15 O         -63.0565  -39.8193  -18.3201 O.3     1  UNL1       -0.4755
     16 C         -62.5460  -40.0791  -19.6054 C.ar    1  UNL1        0.1388
     17 C         -62.8246  -39.2734  -20.7281 C.ar    1  UNL1        0.0369
     18 C         -62.2725  -39.5855  -21.9713 C.ar    1  UNL1        0.0033
     19 C         -61.4458  -40.7003  -22.1151 C.ar    1  UNL1        0.0066
     20 C         -61.1680  -41.5277  -21.0138 C.ar    1  UNL1        0.0785
     21 C         -61.7193  -41.1999  -19.7613 C.ar    1  UNL1        0.0433
     22 C         -60.2882  -42.7102  -21.1800 C.2     1  UNL1        0.3381
     23 O         -60.5680  -43.7856  -20.5864 O.2     1  UNL1       -0.2451
     24 O         -59.1388  -42.6660  -21.9685 O.3     1  UNL1       -0.4771
     25 H         -58.7973  -41.8109  -22.3877 H       1  UNL1        0.2954
     26 C         -62.0576  -43.2656  -24.9228 C.2     1  UNL1        0.2840
     27 O         -61.1518  -43.0873  -24.0651 O.2     1  UNL1       -0.2665
     28 N         -63.4383  -43.3089  -24.5235 N.am    1  UNL1       -0.2763
     29 H         -64.1659  -43.5014  -25.2452 H       1  UNL1        0.1553
     30 C         -63.4301  -41.9648  -27.5492 C.3     1  UNL1        0.0345
     31 C         -62.2685  -42.9083  -27.4689 C.ar    1  UNL1        0.0202
     32 C         -61.6638  -43.4541  -26.3297 C.ar    1  UNL1        0.1946
     33 O         -60.6234  -44.1899  -26.6793 O.2     1  UNL1       -0.4492
     34 C         -60.5370  -44.1696  -27.9869 C.ar    1  UNL1        0.1452
     35 C         -59.5942  -44.8117  -28.7824 C.ar    1  UNL1        0.0375
     36 C         -59.6869  -44.6504  -30.1761 C.ar    1  UNL1        0.0031
     37 C         -60.7143  -43.8537  -30.7508 C.ar    1  UNL1        0.0002
     38 C         -61.6533  -43.2167  -29.9043 C.ar    1  UNL1        0.0028
     39 C         -61.5316  -43.4008  -28.5269 C.ar    1  UNL1        0.0337
     40 C         -60.8025  -43.6904  -32.2241 C.ar    1  UNL1        0.0000
     41 C         -62.0266  -43.3585  -32.8355 C.ar    1  UNL1        0.0000
     42 C         -62.1069  -43.2064  -34.2232 C.ar    1  UNL1        0.0000
     43 C         -60.9699  -43.3823  -35.0147 C.ar    1  UNL1        0.0000
     44 C         -59.7497  -43.7114  -34.4204 C.ar    1  UNL1        0.0000
     45 C         -59.6637  -43.8658  -33.0332 C.ar    1  UNL1        0.0000
@<TRIPOS>BOND
     1    30    31    1
     2    31    32   ar
     3    32    26    1
     4    26    27    2
     5    26    28   am
     6    28     1    1
     7     1     2   ar
     8     2     3   ar
     9     3     4   ar
    10     4     8    1
    11     8     9    1
    12     9    10    1
    13    10    11    1
    14    11    14    1
    15    14    15    1
    16    15    16    1
    17    16    17   ar
    18    17    18   ar
    19    18    19   ar
    20    19    20   ar
    21    20    22    1
    22    22    23    2
    23    22    24    1
    24    20    21   ar
    25    11    12    1
    26    12    13    1
    27     4     5   ar
    28     5     6   ar
    29     6     7    1
    30    32    33   ar
    31    33    34   ar
    32    34    35   ar
    33    35    36   ar
    34    36    37   ar
    35    37    40    1
    36    40    41   ar
    37    41    42   ar
    38    42    43   ar
    39    43    44   ar
    40    44    45   ar
    41    37    38   ar
    42    38    39   ar
    43    39    31   ar
    44     6     1   ar
    45    39    34   ar
    46    13     8    1
    47    45    40   ar
    48    21    16   ar
    49    28    29    1
    50    24    25    1
@<TRIPOS>MOLECULE
*****
 45 50 0 0 0
SMALL
GASTEIGER

@<TRIPOS>ATOM
      1 C         -64.3624  -40.7497  -23.8595 C.ar    1  UNL1        0.0751
      2 C         -63.2999  -40.5476  -22.9662 C.ar    1  UNL1        0.0196
      3 C         -63.5529  -40.2322  -21.6309 C.ar    1  UNL1        0.0356
      4 C         -64.8792  -40.1304  -21.1810 C.ar    1  UNL1        0.1323
      5 N         -65.8931  -40.3433  -22.0651 N.ar    1  UNL1       -0.2227
      6 C         -65.6761  -40.6537  -23.3699 C.ar    1  UNL1        0.1301
      7 BR        -67.1926  -40.9173  -24.5057 Br      1  UNL1       -0.0267
      8 N         -65.1821  -39.8269  -19.8019 N.pl3   1  UNL1       -0.2932
      9 C         -64.1363  -39.3360  -18.8884 C.3     1  UNL1        0.0923
     10 C         -64.4687  -39.6677  -17.4220 C.3     1  UNL1        0.0252
     11 C         -65.1556  -41.0456  -17.2971 C.3     1  UNL1        0.0472
     12 C         -66.4823  -41.0780  -18.1055 C.3     1  UNL1        0.0252
     13 C         -66.5276  -40.0641  -19.2622 C.3     1  UNL1        0.0923
     14 C         -64.1830  -42.1827  -17.6855 C.3     1  UNL1        0.2054
     15 O         -64.5828  -42.8116  -18.9064 O.3     1  UNL1       -0.4755
     16 C         -63.7372  -43.3666  -19.8847 C.ar    1  UNL1        0.1388
     17 C         -64.0825  -44.4918  -20.6605 C.ar    1  UNL1        0.0369
     18 C         -63.1973  -44.9804  -21.6226 C.ar    1  UNL1        0.0033
     19 C         -61.9613  -44.3637  -21.8204 C.ar    1  UNL1        0.0066
     20 C         -61.5886  -43.2514  -21.0470 C.ar    1  UNL1        0.0785
     21 C         -62.4912  -42.7578  -20.0869 C.ar    1  UNL1        0.0433
     22 C         -60.2716  -42.6053  -21.2666 C.2     1  UNL1        0.3381
     23 O         -59.9686  -41.5680  -20.6190 O.2     1  UNL1       -0.2451
     24 O         -59.3526  -43.1050  -22.1889 O.3     1  UNL1       -0.4771
     25 H         -59.5695  -43.8685  -22.8162 H       1  UNL1        0.2954
     26 C         -63.3741  -42.2755  -25.6246 C.2     1  UNL1        0.2840
     27 O         -62.9464  -43.0830  -24.7568 O.2     1  UNL1       -0.2665
     28 N         -64.1195  -41.1112  -25.2293 N.am    1  UNL1       -0.2763
     29 H         -64.5002  -40.4816  -25.9682 H       1  UNL1        0.1553
     30 C         -60.5169  -42.3127  -27.1442 C.3     1  UNL1        0.0345
     31 C         -61.8817  -42.5668  -27.7085 C.ar    1  UNL1        0.0202
     32 C         -63.1148  -42.5698  -27.0446 C.ar    1  UNL1        0.1946
     33 O         -64.0789  -42.9047  -27.8838 O.2     1  UNL1       -0.4492
     34 C         -63.5386  -43.0948  -29.0627 C.ar    1  UNL1        0.1452
     35 C         -64.1837  -43.4552  -30.2407 C.ar    1  UNL1        0.0375
     36 C         -63.4032  -43.6096  -31.3999 C.ar    1  UNL1        0.0031
     37 C         -61.9972  -43.4031  -31.3648 C.ar    1  UNL1        0.0002
     38 C         -61.3803  -43.0379  -30.1440 C.ar    1  UNL1        0.0028
     39 C         -62.1863  -42.8920  -29.0149 C.ar    1  UNL1        0.0337
     40 C         -61.1828  -43.5689  -32.5953 C.ar    1  UNL1        0.0000
     41 C         -59.8557  -44.0329  -32.5182 C.ar    1  UNL1        0.0000
     42 C         -59.0908  -44.1870  -33.6786 C.ar    1  UNL1        0.0000
     43 C         -59.6398  -43.8816  -34.9259 C.ar    1  UNL1        0.0000
     44 C         -60.9550  -43.4207  -35.0157 C.ar    1  UNL1        0.0000
     45 C         -61.7243  -43.2638  -33.8586 C.ar    1  UNL1        0.0000
@<TRIPOS>BOND
     1    30    31    1
     2    31    32   ar
     3    32    26    1
     4    26    27    2
     5    26    28   am
     6    28     1    1
     7     1     2   ar
     8     2     3   ar
     9     3     4   ar
    10     4     8    1
    11     8     9    1
    12     9    10    1
    13    10    11    1
    14    11    14    1
    15    14    15    1
    16    15    16    1
    17    16    17   ar
    18    17    18   ar
    19    18    19   ar
    20    19    20   ar
    21    20    22    1
    22    22    23    2
    23    22    24    1
    24    20    21   ar
    25    11    12    1
    26    12    13    1
    27     4     5   ar
    28     5     6   ar
    29     6     7    1
    30    32    33   ar
    31    33    34   ar
    32    34    35   ar
    33    35    36   ar
    34    36    37   ar
    35    37    40    1
    36    40    41   ar
    37    41    42   ar
    38    42    43   ar
    39    43    44   ar
    40    44    45   ar
    41    37    38   ar
    42    38    39   ar
    43    39    31   ar
    44     6     1   ar
    45    39    34   ar
    46    13     8    1
    47    45    40   ar
    48    21    16   ar
    49    28    29    1
    50    24    25    1
@<TRIPOS>MOLECULE
*****
 45 50 0 0 0
SMALL
GASTEIGER

@<TRIPOS>ATOM
      1 C         -64.4202  -52.1389  -24.9122 C.ar    1  UNL1        0.0751
      2 C         -64.5136  -52.1215  -23.5127 C.ar    1  UNL1        0.0196
      3 C         -65.1651  -53.1542  -22.8376 C.ar    1  UNL1        0.0356
      4 C         -65.7171  -54.2201  -23.5662 C.ar    1  UNL1        0.1323
      5 N         -65.6024  -54.2198  -24.9234 N.ar    1  UNL1       -0.2227
      6 C         -64.9719  -53.2289  -25.6065 C.ar    1  UNL1        0.1301
      7 BR        -64.8919  -53.3488  -27.5140 Br      1  UNL1       -0.0267
      8 N         -66.3804  -55.3181  -22.9029 N.pl3   1  UNL1       -0.2932
      9 C         -67.6593  -55.8455  -23.4084 C.3     1  UNL1        0.0923
     10 C         -68.4728  -56.5189  -22.2879 C.3     1  UNL1        0.0252
     11 C         -68.3101  -55.7719  -20.9458 C.3     1  UNL1        0.0472
     12 C         -66.8206  -55.7463  -20.5037 C.3     1  UNL1        0.0252
     13 C         -65.8261  -55.8910  -21.6689 C.3     1  UNL1        0.0923
     14 C         -68.9433  -54.3635  -21.0194 C.3     1  UNL1        0.2054
     15 O         -70.3469  -54.4119  -20.7480 O.3     1  UNL1       -0.4755
     16 C         -70.9663  -54.2996  -19.4895 C.ar    1  UNL1        0.1388
     17 C         -70.7889  -55.2366  -18.4513 C.ar    1  UNL1        0.0369
     18 C         -71.4262  -55.0536  -17.2233 C.ar    1  UNL1        0.0033
     19 C         -72.2488  -53.9459  -17.0147 C.ar    1  UNL1        0.0066
     20 C         -72.4540  -53.0081  -18.0407 C.ar    1  UNL1        0.0785
     21 C         -71.7990  -53.1936  -19.2722 C.ar    1  UNL1        0.0433
     22 C         -73.3314  -51.8352  -17.8065 C.2     1  UNL1        0.3381
     23 O         -73.0814  -51.0478  -16.8554 O.2     1  UNL1       -0.2451
     24 O         -74.4466  -51.5809  -18.6042 O.3     1  UNL1       -0.4771
     25 H         -74.7665  -52.2247  -19.3160 H       1  UNL1        0.2954
     26 C         -63.9905  -49.7000  -25.4486 C.2     1  UNL1        0.2840
     27 O         -64.8339  -49.3135  -24.5958 O.2     1  UNL1       -0.2665
     28 N         -63.7209  -51.1019  -25.6205 N.am    1  UNL1       -0.2763
     29 H         -62.9873  -51.3943  -26.3015 H       1  UNL1        0.1553
     30 C         -64.1044  -49.2457  -28.6509 C.3     1  UNL1        0.0345
     31 C         -63.3073  -48.4972  -27.6260 C.ar    1  UNL1        0.0202
     32 C         -63.2751  -48.6829  -26.2383 C.ar    1  UNL1        0.1946
     33 O         -62.4952  -47.7745  -25.6791 O.2     1  UNL1       -0.4492
     34 C         -62.0007  -47.0253  -26.6341 C.ar    1  UNL1        0.1452
     35 C         -61.1278  -45.9511  -26.5003 C.ar    1  UNL1        0.0375
     36 C         -60.7232  -45.2803  -27.6678 C.ar    1  UNL1        0.0031
     37 C         -61.1947  -45.6903  -28.9445 C.ar    1  UNL1        0.0002
     38 C         -62.0832  -46.7886  -29.0357 C.ar    1  UNL1        0.0028
     39 C         -62.4615  -47.4311  -27.8568 C.ar    1  UNL1        0.0337
     40 C         -60.7606  -44.9744  -30.1709 C.ar    1  UNL1        0.0000
     41 C         -61.6488  -44.1225  -30.8548 C.ar    1  UNL1        0.0000
     42 C         -61.2375  -43.4505  -32.0101 C.ar    1  UNL1        0.0000
     43 C         -59.9387  -43.6195  -32.4945 C.ar    1  UNL1        0.0000
     44 C         -59.0480  -44.4615  -31.8252 C.ar    1  UNL1        0.0000
     45 C         -59.4541  -45.1368  -30.6700 C.ar    1  UNL1        0.0000
@<TRIPOS>BOND
     1    30    31    1
     2    31    32   ar
     3    32    26    1
     4    26    27    2
     5    26    28   am
     6    28     1    1
     7     1     2   ar
     8     2     3   ar
     9     3     4   ar
    10     4     8    1
    11     8     9    1
    12     9    10    1
    13    10    11    1
    14    11    14    1
    15    14    15    1
    16    15    16    1
    17    16    17   ar
    18    17    18   ar
    19    18    19   ar
    20    19    20   ar
    21    20    22    1
    22    22    23    2
    23    22    24    1
    24    20    21   ar
    25    11    12    1
    26    12    13    1
    27     4     5   ar
    28     5     6   ar
    29     6     7    1
    30    32    33   ar
    31    33    34   ar
    32    34    35   ar
    33    35    36   ar
    34    36    37   ar
    35    37    40    1
    36    40    41   ar
    37    41    42   ar
    38    42    43   ar
    39    43    44   ar
    40    44    45   ar
    41    37    38   ar
    42    38    39   ar
    43    39    31   ar
    44     6     1   ar
    45    39    34   ar
    46    13     8    1
    47    45    40   ar
    48    21    16   ar
    49    28    29    1
    50    24    25    1
@<TRIPOS>MOLECULE
*****
 45 50 0 0 0
SMALL
GASTEIGER

@<TRIPOS>ATOM
      1 C         -61.1036  -46.0647  -21.9795 C.ar    1  UNL1        0.0751
      2 C         -61.2403  -47.0523  -20.9926 C.ar    1  UNL1        0.0196
      3 C         -61.0258  -48.3948  -21.3057 C.ar    1  UNL1        0.0356
      4 C         -60.6589  -48.7528  -22.6129 C.ar    1  UNL1        0.1323
      5 N         -60.5206  -47.7741  -23.5499 N.ar    1  UNL1       -0.2227
      6 C         -60.7212  -46.4591  -23.2728 C.ar    1  UNL1        0.1301
      7 BR        -60.5026  -45.1889  -24.6864 Br      1  UNL1       -0.0267
      8 N         -60.4072  -50.1290  -22.9711 N.pl3   1  UNL1       -0.2932
      9 C         -60.1821  -50.5162  -24.3742 C.3     1  UNL1        0.0923
     10 C         -60.5544  -51.9902  -24.6181 C.3     1  UNL1        0.0252
     11 C         -61.7903  -52.4044  -23.7894 C.3     1  UNL1        0.0472
     12 C         -61.5225  -52.2259  -22.2692 C.3     1  UNL1        0.0252
     13 C         -60.4354  -51.1847  -21.9499 C.3     1  UNL1        0.0923
     14 C         -63.0534  -51.6556  -24.2728 C.3     1  UNL1        0.2054
     15 O         -62.8938  -50.2393  -24.1518 O.3     1  UNL1       -0.4755
     16 C         -63.2003  -49.2704  -25.1252 C.ar    1  UNL1        0.1388
     17 C         -63.2134  -47.8852  -24.8636 C.ar    1  UNL1        0.0369
     18 C         -63.5149  -46.9806  -25.8827 C.ar    1  UNL1        0.0033
     19 C         -63.8118  -47.4393  -27.1667 C.ar    1  UNL1        0.0066
     20 C         -63.8217  -48.8163  -27.4464 C.ar    1  UNL1        0.0785
     21 C         -63.5056  -49.7214  -26.4164 C.ar    1  UNL1        0.0433
     22 C         -64.1397  -49.2910  -28.8152 C.2     1  UNL1        0.3381
     23 O         -64.0585  -50.5188  -29.0854 O.2     1  UNL1       -0.2451
     24 O         -64.5149  -48.4107  -29.8297 O.3     1  UNL1       -0.4771
     25 H         -64.4994  -47.4058  -29.7134 H       1  UNL1        0.2954
     26 C         -62.5425  -44.1082  -21.2568 C.2     1  UNL1        0.2840
     27 O         -63.5500  -44.8471  -21.0926 O.2     1  UNL1       -0.2665
     28 N         -61.2852  -44.6739  -21.6652 N.am    1  UNL1       -0.2763
     29 H         -60.4555  -44.0483  -21.7519 H       1  UNL1        0.1553
     30 C         -64.6872  -42.6493  -19.3214 C.3     1  UNL1        0.0345
     31 C         -63.6208  -42.0303  -20.1731 C.ar    1  UNL1        0.0202
     32 C         -62.6808  -42.6653  -20.9944 C.ar    1  UNL1        0.1946
     33 O         -61.8690  -41.7695  -21.5280 O.2     1  UNL1       -0.4492
     34 C         -62.2490  -40.5851  -21.1151 C.ar    1  UNL1        0.1452
     35 C         -61.6812  -39.3561  -21.4329 C.ar    1  UNL1        0.0375
     36 C         -62.2519  -38.2005  -20.8710 C.ar    1  UNL1        0.0031
     37 C         -63.3748  -38.2898  -20.0041 C.ar    1  UNL1        0.0002
     38 C         -63.9214  -39.5612  -19.7060 C.ar    1  UNL1        0.0028
     39 C         -63.3305  -40.6854  -20.2830 C.ar    1  UNL1        0.0337
     40 C         -63.9694  -37.0626  -19.4163 C.ar    1  UNL1        0.0000
     41 C         -63.1795  -36.1763  -18.6594 C.ar    1  UNL1        0.0000
     42 C         -63.7424  -35.0220  -18.1062 C.ar    1  UNL1        0.0000
     43 C         -65.0958  -34.7388  -18.3021 C.ar    1  UNL1        0.0000
     44 C         -65.8900  -35.6098  -19.0511 C.ar    1  UNL1        0.0000
     45 C         -65.3327  -36.7662  -19.6059 C.ar    1  UNL1        0.0000
@<TRIPOS>BOND
     1    30    31    1
     2    31    32   ar
     3    32    26    1
     4    26    27    2
     5    26    28   am
     6    28     1    1
     7     1     2   ar
     8     2     3   ar
     9     3     4   ar
    10     4     8    1
    11     8     9    1
    12     9    10    1
    13    10    11    1
    14    11    14    1
    15    14    15    1
    16    15    16    1
    17    16    17   ar
    18    17    18   ar
    19    18    19   ar
    20    19    20   ar
    21    20    22    1
    22    22    23    2
    23    22    24    1
    24    20    21   ar
    25    11    12    1
    26    12    13    1
    27     4     5   ar
    28     5     6   ar
    29     6     7    1
    30    32    33   ar
    31    33    34   ar
    32    34    35   ar
    33    35    36   ar
    34    36    37   ar
    35    37    40    1
    36    40    41   ar
    37    41    42   ar
    38    42    43   ar
    39    43    44   ar
    40    44    45   ar
    41    37    38   ar
    42    38    39   ar
    43    39    31   ar
    44     6     1   ar
    45    39    34   ar
    46    13     8    1
    47    45    40   ar
    48    21    16   ar
    49    28    29    1
    50    24    25    1
@<TRIPOS>MOLECULE
*****
 45 50 0 0 0
SMALL
GASTEIGER

@<TRIPOS>ATOM
      1 C         -62.4267  -41.7199  -20.6718 C.ar    1  UNL1        0.0751
      2 C         -61.1274  -41.4961  -21.1510 C.ar    1  UNL1        0.0196
      3 C         -60.3268  -42.5696  -21.5422 C.ar    1  UNL1        0.0356
      4 C         -60.8330  -43.8771  -21.4662 C.ar    1  UNL1        0.1323
      5 N         -62.1019  -44.0669  -21.0091 N.ar    1  UNL1       -0.2227
      6 C         -62.9043  -43.0405  -20.6235 C.ar    1  UNL1        0.1301
      7 BR        -64.6629  -43.4497  -19.9915 Br      1  UNL1       -0.0267
      8 N         -60.0432  -45.0125  -21.8817 N.pl3   1  UNL1       -0.2932
      9 C         -58.7611  -44.8261  -22.5823 C.3     1  UNL1        0.0923
     10 C         -58.4138  -46.0462  -23.4550 C.3     1  UNL1        0.0252
     11 C         -59.6774  -46.6552  -24.1017 C.3     1  UNL1        0.0472
     12 C         -60.6869  -47.1185  -23.0149 C.3     1  UNL1        0.0252
     13 C         -60.5338  -46.3814  -21.6729 C.3     1  UNL1        0.0923
     14 C         -60.2979  -45.6769  -25.1254 C.3     1  UNL1        0.2054
     15 O         -61.3654  -44.9248  -24.5416 O.3     1  UNL1       -0.4755
     16 C         -62.0268  -43.8201  -25.1093 C.ar    1  UNL1        0.1388
     17 C         -62.0096  -43.5308  -26.4889 C.ar    1  UNL1        0.0369
     18 C         -62.6997  -42.4230  -26.9832 C.ar    1  UNL1        0.0033
     19 C         -63.4070  -41.5893  -26.1161 C.ar    1  UNL1        0.0066
     20 C         -63.4240  -41.8482  -24.7351 C.ar    1  UNL1        0.0785
     21 C         -62.7351  -42.9735  -24.2459 C.ar    1  UNL1        0.0433
     22 C         -64.1790  -40.9539  -23.8238 C.2     1  UNL1        0.3381
     23 O         -64.7545  -41.4347  -22.8116 O.2     1  UNL1       -0.2451
     24 O         -64.2874  -39.5841  -24.0619 O.3     1  UNL1       -0.4771
     25 H         -63.9415  -39.1481  -24.9067 H       1  UNL1        0.2954
     26 C         -62.9211  -39.2419  -20.4824 C.2     1  UNL1        0.2840
     27 O         -61.8410  -38.9332  -21.0533 O.2     1  UNL1       -0.2665
     28 N         -63.2775  -40.6229  -20.2992 N.am    1  UNL1       -0.2763
     29 H         -64.1965  -40.8527  -19.8634 H       1  UNL1        0.1553
     30 C         -66.1527  -39.1543  -20.6355 C.3     1  UNL1        0.0345
     31 C         -65.2104  -38.1094  -20.1199 C.ar    1  UNL1        0.0202
     32 C         -63.8133  -38.1579  -20.0363 C.ar    1  UNL1        0.1946
     33 O         -63.3569  -37.0600  -19.4596 O.2     1  UNL1       -0.4492
     34 C         -64.3833  -36.2916  -19.1875 C.ar    1  UNL1        0.1452
     35 C         -64.3656  -35.0389  -18.5840 C.ar    1  UNL1        0.0375
     36 C         -65.5944  -34.3859  -18.3831 C.ar    1  UNL1        0.0031
     37 C         -66.8159  -34.9913  -18.7855 C.ar    1  UNL1        0.0002
     38 C         -66.7888  -36.2685  -19.3956 C.ar    1  UNL1        0.0028
     39 C         -65.5515  -36.8854  -19.5807 C.ar    1  UNL1        0.0337
     40 C         -68.1079  -34.2924  -18.5683 C.ar    1  UNL1        0.0000
     41 C         -68.1948  -33.2109  -17.6709 C.ar    1  UNL1        0.0000
     42 C         -69.4131  -32.5554  -17.4676 C.ar    1  UNL1        0.0000
     43 C         -70.5554  -32.9694  -18.1560 C.ar    1  UNL1        0.0000
     44 C         -70.4824  -34.0406  -19.0491 C.ar    1  UNL1        0.0000
     45 C         -69.2669  -34.7005  -19.2556 C.ar    1  UNL1        0.0000
@<TRIPOS>BOND
     1    30    31    1
     2    31    32   ar
     3    32    26    1
     4    26    27    2
     5    26    28   am
     6    28     1    1
     7     1     2   ar
     8     2     3   ar
     9     3     4   ar
    10     4     8    1
    11     8     9    1
    12     9    10    1
    13    10    11    1
    14    11    14    1
    15    14    15    1
    16    15    16    1
    17    16    17   ar
    18    17    18   ar
    19    18    19   ar
    20    19    20   ar
    21    20    22    1
    22    22    23    2
    23    22    24    1
    24    20    21   ar
    25    11    12    1
    26    12    13    1
    27     4     5   ar
    28     5     6   ar
    29     6     7    1
    30    32    33   ar
    31    33    34   ar
    32    34    35   ar
    33    35    36   ar
    34    36    37   ar
    35    37    40    1
    36    40    41   ar
    37    41    42   ar
    38    42    43   ar
    39    43    44   ar
    40    44    45   ar
    41    37    38   ar
    42    38    39   ar
    43    39    31   ar
    44     6     1   ar
    45    39    34   ar
    46    13     8    1
    47    45    40   ar
    48    21    16   ar
    49    28    29    1
    50    24    25    1
@<TRIPOS>MOLECULE
*****
 45 50 0 0 0
SMALL
GASTEIGER

@<TRIPOS>ATOM
      1 C         -64.3430  -52.1863  -24.8096 C.ar    1  UNL1        0.0751
      2 C         -64.3615  -52.2073  -23.4071 C.ar    1  UNL1        0.0196
      3 C         -64.9850  -53.2537  -22.7269 C.ar    1  UNL1        0.0356
      4 C         -65.5843  -54.2948  -23.4539 C.ar    1  UNL1        0.1323
      5 N         -65.5421  -54.2575  -24.8147 N.ar    1  UNL1       -0.2227
      6 C         -64.9403  -53.2525  -25.5031 C.ar    1  UNL1        0.1301
      7 BR        -64.9630  -53.3196  -27.4148 Br      1  UNL1       -0.0267
      8 N         -66.2208  -55.4062  -22.7864 N.pl3   1  UNL1       -0.2932
      9 C         -66.8570  -56.4877  -23.5578 C.3     1  UNL1        0.0923
     10 C         -67.9617  -57.1854  -22.7432 C.3     1  UNL1        0.0252
     11 C         -68.7309  -56.1796  -21.8587 C.3     1  UNL1        0.0472
     12 C         -67.7725  -55.4769  -20.8576 C.3     1  UNL1        0.0252
     13 C         -66.3052  -55.4492  -21.3205 C.3     1  UNL1        0.0923
     14 C         -69.5335  -55.1841  -22.7275 C.3     1  UNL1        0.2054
     15 O         -70.0535  -55.8208  -23.8981 O.3     1  UNL1       -0.4755
     16 C         -70.1062  -55.2826  -25.1972 C.ar    1  UNL1        0.1388
     17 C         -69.1059  -55.4973  -26.1669 C.ar    1  UNL1        0.0369
     18 C         -69.2313  -54.9413  -27.4408 C.ar    1  UNL1        0.0033
     19 C         -70.3439  -54.1634  -27.7634 C.ar    1  UNL1        0.0066
     20 C         -71.3451  -53.9216  -26.8076 C.ar    1  UNL1        0.0785
     21 C         -71.2169  -54.4951  -25.5290 C.ar    1  UNL1        0.0433
     22 C         -72.5225  -53.0923  -27.1629 C.2     1  UNL1        0.3381
     23 O         -73.2181  -53.3934  -28.1692 O.2     1  UNL1       -0.2451
     24 O         -72.8802  -51.9675  -26.4201 O.3     1  UNL1       -0.4771
     25 H         -72.3097  -51.6076  -25.6661 H       1  UNL1        0.2954
     26 C         -63.9915  -49.7410  -25.3732 C.2     1  UNL1        0.2840
     27 O         -64.8542  -49.3728  -24.5317 O.2     1  UNL1       -0.2665
     28 N         -63.6734  -51.1350  -25.5255 N.am    1  UNL1       -0.2763
     29 H         -62.9249  -51.4107  -26.1972 H       1  UNL1        0.1553
     30 C         -64.1045  -49.3228  -28.5804 C.3     1  UNL1        0.0345
     31 C         -63.3360  -48.5395  -27.5598 C.ar    1  UNL1        0.0202
     32 C         -63.3046  -48.7100  -26.1702 C.ar    1  UNL1        0.1946
     33 O         -62.5561  -47.7720  -25.6168 O.2     1  UNL1       -0.4492
     34 C         -62.0808  -47.0174  -26.5773 C.ar    1  UNL1        0.1452
     35 C         -61.2425  -45.9151  -26.4507 C.ar    1  UNL1        0.0375
     36 C         -60.8536  -45.2438  -27.6232 C.ar    1  UNL1        0.0031
     37 C         -61.3060  -45.6812  -28.8978 C.ar    1  UNL1        0.0002
     38 C         -62.1594  -46.8077  -28.9816 C.ar    1  UNL1        0.0028
     39 C         -62.5229  -47.4498  -27.7978 C.ar    1  UNL1        0.0337
     40 C         -60.8888  -44.9645  -30.1295 C.ar    1  UNL1        0.0000
     41 C         -59.5816  -45.1073  -30.6328 C.ar    1  UNL1        0.0000
     42 C         -59.1912  -44.4303  -31.7923 C.ar    1  UNL1        0.0000
     43 C         -60.0982  -43.6059  -32.4618 C.ar    1  UNL1        0.0000
     44 C         -61.3977  -43.4560  -31.9729 C.ar    1  UNL1        0.0000
     45 C         -61.7934  -44.1299  -30.8132 C.ar    1  UNL1        0.0000
@<TRIPOS>BOND
     1    30    31    1
     2    31    32   ar
     3    32    26    1
     4    26    27    2
     5    26    28   am
     6    28     1    1
     7     1     2   ar
     8     2     3   ar
     9     3     4   ar
    10     4     8    1
    11     8     9    1
    12     9    10    1
    13    10    11    1
    14    11    14    1
    15    14    15    1
    16    15    16    1
    17    16    17   ar
    18    17    18   ar
    19    18    19   ar
    20    19    20   ar
    21    20    22    1
    22    22    23    2
    23    22    24    1
    24    20    21   ar
    25    11    12    1
    26    12    13    1
    27     4     5   ar
    28     5     6   ar
    29     6     7    1
    30    32    33   ar
    31    33    34   ar
    32    34    35   ar
    33    35    36   ar
    34    36    37   ar
    35    37    40    1
    36    40    41   ar
    37    41    42   ar
    38    42    43   ar
    39    43    44   ar
    40    44    45   ar
    41    37    38   ar
    42    38    39   ar
    43    39    31   ar
    44     6     1   ar
    45    39    34   ar
    46    13     8    1
    47    45    40   ar
    48    21    16   ar
    49    28    29    1
    50    24    25    1
@<TRIPOS>MOLECULE
*****
 45 50 0 0 0
SMALL
GASTEIGER

@<TRIPOS>ATOM
      1 C         -60.9651  -46.6991  -21.7840 C.ar    1  UNL1        0.0751
      2 C         -61.1217  -47.7667  -20.8877 C.ar    1  UNL1        0.0196
      3 C         -60.8557  -49.0738  -21.2964 C.ar    1  UNL1        0.0356
      4 C         -60.4170  -49.3154  -22.6082 C.ar    1  UNL1        0.1323
      5 N         -60.2610  -48.2606  -23.4555 N.ar    1  UNL1       -0.2227
      6 C         -60.5106  -46.9777  -23.0842 C.ar    1  UNL1        0.1301
      7 BR        -60.2595  -45.5916  -24.3786 Br      1  UNL1       -0.0267
      8 N         -60.1108  -50.6516  -23.0626 N.pl3   1  UNL1       -0.2932
      9 C         -59.8519  -50.9252  -24.4865 C.3     1  UNL1        0.0923
     10 C         -60.1673  -52.3891  -24.8448 C.3     1  UNL1        0.0252
     11 C         -61.3993  -52.9066  -24.0700 C.3     1  UNL1        0.0472
     12 C         -61.1599  -52.8324  -22.5364 C.3     1  UNL1        0.0252
     13 C         -60.1157  -51.7806  -22.1228 C.3     1  UNL1        0.0923
     14 C         -62.6814  -52.1683  -24.5182 C.3     1  UNL1        0.2054
     15 O         -62.6740  -50.8062  -24.0817 O.3     1  UNL1       -0.4755
     16 C         -63.0722  -49.6805  -24.8263 C.ar    1  UNL1        0.1388
     17 C         -63.2403  -48.3986  -24.2643 C.ar    1  UNL1        0.0369
     18 C         -63.6258  -47.3243  -25.0675 C.ar    1  UNL1        0.0033
     19 C         -63.8542  -47.5109  -26.4313 C.ar    1  UNL1        0.0066
     20 C         -63.7096  -48.7831  -27.0101 C.ar    1  UNL1        0.0785
     21 C         -63.3096  -49.8588  -26.1959 C.ar    1  UNL1        0.0433
     22 C         -63.9560  -48.9683  -28.4610 C.2     1  UNL1        0.3381
     23 O         -63.9462  -50.1278  -28.9535 O.2     1  UNL1       -0.2451
     24 O         -64.1854  -47.8870  -29.3113 O.3     1  UNL1       -0.4771
     25 H         -64.1038  -46.9260  -29.0060 H       1  UNL1        0.2954
     26 C         -62.5041  -44.7401  -21.3207 C.2     1  UNL1        0.2840
     27 O         -63.5304  -45.4202  -21.5893 O.2     1  UNL1       -0.2665
     28 N         -61.1996  -45.3431  -21.3686 N.am    1  UNL1       -0.2763
     29 H         -60.3699  -44.7715  -21.0998 H       1  UNL1        0.1553
     30 C         -61.5466  -42.1114  -22.9476 C.3     1  UNL1        0.0345
     31 C         -62.2479  -42.1914  -21.6256 C.ar    1  UNL1        0.0202
     32 C         -62.6791  -43.3297  -20.9331 C.ar    1  UNL1        0.1946
     33 O         -63.3165  -42.9739  -19.8317 O.2     1  UNL1       -0.4492
     34 C         -63.2995  -41.6653  -19.7615 C.ar    1  UNL1        0.1452
     35 C         -63.8485  -40.8644  -18.7660 C.ar    1  UNL1        0.0375
     36 C         -63.7158  -39.4704  -18.8926 C.ar    1  UNL1        0.0031
     37 C         -63.0406  -38.9006  -20.0061 C.ar    1  UNL1        0.0002
     38 C         -62.4970  -39.7525  -20.9975 C.ar    1  UNL1        0.0028
     39 C         -62.6461  -41.1302  -20.8380 C.ar    1  UNL1        0.0337
     40 C         -62.9063  -37.4269  -20.1293 C.ar    1  UNL1        0.0000
     41 C         -61.9582  -36.8653  -21.0057 C.ar    1  UNL1        0.0000
     42 C         -61.8334  -35.4772  -21.1188 C.ar    1  UNL1        0.0000
     43 C         -62.6513  -34.6356  -20.3617 C.ar    1  UNL1        0.0000
     44 C         -63.5957  -35.1803  -19.4890 C.ar    1  UNL1        0.0000
     45 C         -63.7243  -36.5677  -19.3710 C.ar    1  UNL1        0.0000
@<TRIPOS>BOND
     1    30    31    1
     2    31    32   ar
     3    32    26    1
     4    26    27    2
     5    26    28   am
     6    28     1    1
     7     1     2   ar
     8     2     3   ar
     9     3     4   ar
    10     4     8    1
    11     8     9    1
    12     9    10    1
    13    10    11    1
    14    11    14    1
    15    14    15    1
    16    15    16    1
    17    16    17   ar
    18    17    18   ar
    19    18    19   ar
    20    19    20   ar
    21    20    22    1
    22    22    23    2
    23    22    24    1
    24    20    21   ar
    25    11    12    1
    26    12    13    1
    27     4     5   ar
    28     5     6   ar
    29     6     7    1
    30    32    33   ar
    31    33    34   ar
    32    34    35   ar
    33    35    36   ar
    34    36    37   ar
    35    37    40    1
    36    40    41   ar
    37    41    42   ar
    38    42    43   ar
    39    43    44   ar
    40    44    45   ar
    41    37    38   ar
    42    38    39   ar
    43    39    31   ar
    44     6     1   ar
    45    39    34   ar
    46    13     8    1
    47    45    40   ar
    48    21    16   ar
    49    28    29    1
    50    24    25    1
@<TRIPOS>MOLECULE
*****
 45 50 0 0 0
SMALL
GASTEIGER

@<TRIPOS>ATOM
      1 C         -62.8755  -45.9798  -25.8309 C.ar    1  UNL1        0.0751
      2 C         -62.5000  -44.9363  -24.9718 C.ar    1  UNL1        0.0196
      3 C         -62.1925  -43.6766  -25.4867 C.ar    1  UNL1        0.0356
      4 C         -62.2733  -43.4537  -26.8707 C.ar    1  UNL1        0.1323
      5 N         -62.6522  -44.4797  -27.6823 N.ar    1  UNL1       -0.2227
      6 C         -62.9592  -45.7155  -27.2084 C.ar    1  UNL1        0.1301
      7 BR        -63.4673  -47.0690  -28.4613 Br      1  UNL1       -0.0267
      8 N         -61.9838  -42.1584  -27.4400 N.pl3   1  UNL1       -0.2932
      9 C         -62.9990  -41.0913  -27.4463 C.3     1  UNL1        0.0923
     10 C         -62.7522  -40.0863  -28.5864 C.3     1  UNL1        0.0252
     11 C         -62.2237  -40.7912  -29.8552 C.3     1  UNL1        0.0472
     12 C         -60.8831  -41.5213  -29.5650 C.3     1  UNL1        0.0252
     13 C         -60.6903  -41.8974  -28.0854 C.3     1  UNL1        0.0923
     14 C         -63.3013  -41.7222  -30.4568 C.3     1  UNL1        0.2054
     15 O         -62.7742  -43.0273  -30.7119 O.3     1  UNL1       -0.4755
     16 C         -61.8103  -43.3730  -31.6771 C.ar    1  UNL1        0.1388
     17 C         -61.9434  -43.0735  -33.0482 C.ar    1  UNL1        0.0369
     18 C         -60.9398  -43.4367  -33.9474 C.ar    1  UNL1        0.0033
     19 C         -59.7998  -44.1045  -33.4985 C.ar    1  UNL1        0.0066
     20 C         -59.6533  -44.4287  -32.1391 C.ar    1  UNL1        0.0785
     21 C         -60.6643  -44.0490  -31.2370 C.ar    1  UNL1        0.0433
     22 C         -58.4370  -45.1394  -31.6748 C.2     1  UNL1        0.3381
     23 O         -58.5412  -46.2816  -31.1538 O.2     1  UNL1       -0.2451
     24 O         -57.1679  -44.5715  -31.7828 O.3     1  UNL1       -0.4771
     25 H         -57.0206  -43.6197  -32.0926 H       1  UNL1        0.2954
     26 C         -62.2667  -48.2646  -24.9201 C.2     1  UNL1        0.2840
     27 O         -61.0343  -48.0042  -24.9556 O.2     1  UNL1       -0.2665
     28 N         -63.2308  -47.2730  -25.3137 N.am    1  UNL1       -0.2763
     29 H         -64.2460  -47.4974  -25.2339 H       1  UNL1        0.1553
     30 C         -65.1415  -49.6911  -25.3378 C.3     1  UNL1        0.0345
     31 C         -63.9391  -50.2032  -24.6045 C.ar    1  UNL1        0.0202
     32 C         -62.6894  -49.5924  -24.4422 C.ar    1  UNL1        0.1946
     33 O         -61.8742  -50.3991  -23.7859 O.2     1  UNL1       -0.4492
     34 C         -62.5377  -51.4907  -23.4927 C.ar    1  UNL1        0.1452
     35 C         -62.0714  -52.6045  -22.8030 C.ar    1  UNL1        0.0375
     36 C         -62.9601  -53.6750  -22.6004 C.ar    1  UNL1        0.0031
     37 C         -64.2941  -53.6171  -23.0879 C.ar    1  UNL1        0.0002
     38 C         -64.7279  -52.4643  -23.7858 C.ar    1  UNL1        0.0028
     39 C         -63.8194  -51.4213  -23.9664 C.ar    1  UNL1        0.0337
     40 C         -65.2241  -54.7536  -22.8680 C.ar    1  UNL1        0.0000
     41 C         -65.0385  -55.6308  -21.7824 C.ar    1  UNL1        0.0000
     42 C         -65.9153  -56.7008  -21.5786 C.ar    1  UNL1        0.0000
     43 C         -66.9849  -56.9071  -22.4525 C.ar    1  UNL1        0.0000
     44 C         -67.1799  -56.0440  -23.5330 C.ar    1  UNL1        0.0000
     45 C         -66.3057  -54.9729  -23.7423 C.ar    1  UNL1        0.0000
@<TRIPOS>BOND
     1    30    31    1
     2    31    32   ar
     3    32    26    1
     4    26    27    2
     5    26    28   am
     6    28     1    1
     7     1     2   ar
     8     2     3   ar
     9     3     4   ar
    10     4     8    1
    11     8     9    1
    12     9    10    1
    13    10    11    1
    14    11    14    1
    15    14    15    1
    16    15    16    1
    17    16    17   ar
    18    17    18   ar
    19    18    19   ar
    20    19    20   ar
    21    20    22    1
    22    22    23    2
    23    22    24    1
    24    20    21   ar
    25    11    12    1
    26    12    13    1
    27     4     5   ar
    28     5     6   ar
    29     6     7    1
    30    32    33   ar
    31    33    34   ar
    32    34    35   ar
    33    35    36   ar
    34    36    37   ar
    35    37    40    1
    36    40    41   ar
    37    41    42   ar
    38    42    43   ar
    39    43    44   ar
    40    44    45   ar
    41    37    38   ar
    42    38    39   ar
    43    39    31   ar
    44     6     1   ar
    45    39    34   ar
    46    13     8    1
    47    45    40   ar
    48    21    16   ar
    49    28    29    1
    50    24    25    1
