@<TRIPOS>MOLECULE
*****
 33 36 0 0 0
SMALL
GASTEIGER

@<TRIPOS>ATOM
      1 N         -24.7736   -9.0637  -12.0614 N.am    1  UNL1       -0.2686
      2 C         -25.3093   -9.7248  -13.2225 C.2     1  UNL1        0.2690
      3 O         -26.4420   -9.3837  -13.6601 O.2     1  UNL1       -0.2682
      4 C         -24.5359  -10.7731  -13.9211 C.ar    1  UNL1        0.1562
      5 C         -24.9435  -12.1143  -13.8987 C.ar    1  UNL1        0.0271
      6 C         -24.1957  -13.0680  -14.5950 C.ar    1  UNL1        0.0211
      7 C         -24.5606  -14.4229  -14.6010 C.ar    1  UNL1        0.0016
      8 C         -23.7890  -15.3502  -15.3097 C.ar    1  UNL1        0.0001
      9 C         -22.6544  -14.9308  -16.0129 C.ar    1  UNL1        0.0016
     10 C         -22.2854  -13.5817  -16.0114 C.ar    1  UNL1        0.0209
     11 C         -23.0529  -12.6495  -15.3043 C.ar    1  UNL1        0.1029
     12 N         -22.7061  -11.3369  -15.2963 N.ar    1  UNL1       -0.1479
     13 N         -23.4247  -10.4325  -14.6292 N.ar    1  UNL1       -0.1434
     14 C         -25.3003   -9.2929   -9.6582 C.3     1  UNL1        0.0264
     15 C         -24.5099   -9.8609  -10.8457 C.3     1  UNL1        0.0986
     16 C         -23.0171  -10.0071  -10.5810 C.ar    1  UNL1       -0.0041
     17 C         -22.3711   -9.3509   -9.5115 C.ar    1  UNL1       -0.0004
     18 C         -20.9873   -9.4611   -9.3443 C.ar    1  UNL1        0.0294
     19 C         -20.2288  -10.2121  -10.2444 C.ar    1  UNL1        0.1401
     20 F         -18.8857  -10.3069  -10.0861 F       1  UNL1       -0.2042
     21 C         -20.8535  -10.8576  -11.3130 C.ar    1  UNL1        0.0294
     22 C         -22.2370  -10.7562  -11.4816 C.ar    1  UNL1       -0.0004
     23 C         -24.7516   -7.5901  -12.0378 C.3     1  UNL1        0.1207
     24 C         -23.3386   -7.0802  -11.8978 C.ar    1  UNL1       -0.0021
     25 C         -22.3747   -7.3884  -12.8698 C.ar    1  UNL1       -0.0026
     26 C         -21.0827   -6.8720  -12.7679 C.ar    1  UNL1       -0.0001
     27 C         -20.7340   -6.0598  -11.6873 C.ar    1  UNL1        0.0064
     28 C         -21.6717   -5.7699  -10.6804 C.ar    1  UNL1        0.0752
     29 C         -22.9739   -6.2905  -10.7939 C.ar    1  UNL1        0.0038
     30 C         -21.2885   -4.9018   -9.5395 C.2     1  UNL1        0.3380
     31 O         -20.2470   -4.1969   -9.6141 O.2     1  UNL1       -0.2451
     32 O         -22.0439   -4.8474   -8.3684 O.3     1  UNL1       -0.4771
     33 H         -22.8305   -5.4593   -8.1952 H       1  UNL1        0.2954
@<TRIPOS>BOND
     1    14    15    1
     2    15    16    1
     3    16    17   ar
     4    17    18   ar
     5    18    19   ar
     6    19    20    1
     7    19    21   ar
     8    21    22   ar
     9    15     1    1
    10     1    23    1
    11    23    24    1
    12    24    25   ar
    13    25    26   ar
    14    26    27   ar
    15    27    28   ar
    16    28    30    1
    17    30    31    2
    18    30    32    1
    19    28    29   ar
    20     1     2   am
    21     2     3    2
    22     2     4    1
    23     4     5   ar
    24     5     6   ar
    25     6     7   ar
    26     7     8   ar
    27     8     9   ar
    28     9    10   ar
    29    10    11   ar
    30    11    12   ar
    31    12    13   ar
    32    22    16   ar
    33    29    24   ar
    34    13     4   ar
    35    11     6   ar
    36    32    33    1
@<TRIPOS>MOLECULE
*****
 33 36 0 0 0
SMALL
GASTEIGER

@<TRIPOS>ATOM
      1 N         -22.1797   -9.5261  -12.1623 N.am    1  UNL1       -0.2686
      2 C         -22.0092  -10.9078  -11.7963 C.2     1  UNL1        0.2690
      3 O         -21.6912  -11.1982  -10.6108 O.2     1  UNL1       -0.2682
      4 C         -22.2312  -11.9855  -12.7835 C.ar    1  UNL1        0.1562
      5 C         -23.5215  -12.3181  -13.2193 C.ar    1  UNL1        0.0271
      6 C         -23.6822  -13.3268  -14.1734 C.ar    1  UNL1        0.0211
      7 C         -24.9526  -13.6983  -14.6394 C.ar    1  UNL1        0.0016
      8 C         -25.0760  -14.7119  -15.5959 C.ar    1  UNL1        0.0001
      9 C         -23.9365  -15.3565  -16.0896 C.ar    1  UNL1        0.0016
     10 C         -22.6673  -14.9908  -15.6296 C.ar    1  UNL1        0.0209
     11 C         -22.5373  -13.9779  -14.6730 C.ar    1  UNL1        0.1029
     12 N         -21.3108  -13.6127  -14.2196 N.ar    1  UNL1       -0.1479
     13 N         -21.1654  -12.6491  -13.3087 N.ar    1  UNL1       -0.1434
     14 C         -20.7691   -7.5774  -12.7263 C.3     1  UNL1        0.0264
     15 C         -21.2895   -8.9458  -13.1889 C.3     1  UNL1        0.0986
     16 C         -21.9512   -8.9236  -14.5605 C.ar    1  UNL1       -0.0041
     17 C         -21.8929  -10.0210  -15.4460 C.ar    1  UNL1       -0.0004
     18 C         -22.4587   -9.9335  -16.7216 C.ar    1  UNL1        0.0294
     19 C         -23.0759   -8.7519  -17.1366 C.ar    1  UNL1        0.1401
     20 F         -23.6128   -8.6667  -18.3784 F       1  UNL1       -0.2042
     21 C         -23.1313   -7.6550  -16.2748 C.ar    1  UNL1        0.0294
     22 C         -22.5730   -7.7386  -14.9964 C.ar    1  UNL1       -0.0004
     23 C         -23.0498   -8.6788  -11.3272 C.3     1  UNL1        0.1207
     24 C         -24.3301   -8.3498  -12.0542 C.ar    1  UNL1       -0.0021
     25 C         -25.0751   -9.3657  -12.6721 C.ar    1  UNL1       -0.0026
     26 C         -26.2864   -9.0688  -13.2975 C.ar    1  UNL1       -0.0001
     27 C         -26.7568   -7.7548  -13.3297 C.ar    1  UNL1        0.0064
     28 C         -26.0080   -6.7141  -12.7521 C.ar    1  UNL1        0.0752
     29 C         -24.7903   -7.0233  -12.1188 C.ar    1  UNL1        0.0038
     30 C         -26.5221   -5.3226  -12.7902 C.2     1  UNL1        0.3380
     31 O         -26.8563   -4.7513  -11.7183 O.2     1  UNL1       -0.2451
     32 O         -26.6611   -4.6207  -13.9873 O.3     1  UNL1       -0.4771
     33 H         -26.5127   -5.0470  -14.8925 H       1  UNL1        0.2954
@<TRIPOS>BOND
     1    14    15    1
     2    15    16    1
     3    16    17   ar
     4    17    18   ar
     5    18    19   ar
     6    19    20    1
     7    19    21   ar
     8    21    22   ar
     9    15     1    1
    10     1    23    1
    11    23    24    1
    12    24    25   ar
    13    25    26   ar
    14    26    27   ar
    15    27    28   ar
    16    28    30    1
    17    30    31    2
    18    30    32    1
    19    28    29   ar
    20     1     2   am
    21     2     3    2
    22     2     4    1
    23     4     5   ar
    24     5     6   ar
    25     6     7   ar
    26     7     8   ar
    27     8     9   ar
    28     9    10   ar
    29    10    11   ar
    30    11    12   ar
    31    12    13   ar
    32    22    16   ar
    33    29    24   ar
    34    13     4   ar
    35    11     6   ar
    36    32    33    1
@<TRIPOS>MOLECULE
*****
 33 36 0 0 0
SMALL
GASTEIGER

@<TRIPOS>ATOM
      1 N         -22.4421  -11.7166  -12.7375 N.am    1  UNL1       -0.2686
      2 C         -21.4850  -11.3550  -11.7250 C.2     1  UNL1        0.2690
      3 O         -20.6378  -12.2078  -11.3429 O.2     1  UNL1       -0.2682
      4 C         -21.4662   -9.9921  -11.1531 C.ar    1  UNL1        0.1562
      5 C         -21.3754   -8.8597  -11.9747 C.ar    1  UNL1        0.0271
      6 C         -21.3870   -7.5893  -11.3921 C.ar    1  UNL1        0.0211
      7 C         -21.2957   -6.4257  -12.1709 C.ar    1  UNL1        0.0016
      8 C         -21.3113   -5.1701  -11.5538 C.ar    1  UNL1        0.0001
      9 C         -21.4179   -5.0709  -10.1622 C.ar    1  UNL1        0.0016
     10 C         -21.5096   -6.2268   -9.3801 C.ar    1  UNL1        0.0209
     11 C         -21.4944   -7.4854   -9.9913 C.ar    1  UNL1        0.1029
     12 N         -21.5844   -8.6149   -9.2434 N.ar    1  UNL1       -0.1479
     13 N         -21.5724   -9.8240   -9.8067 N.ar    1  UNL1       -0.1434
     14 C         -24.6473  -12.6831  -13.2929 C.3     1  UNL1        0.0264
     15 C         -23.8799  -11.6998  -12.3976 C.3     1  UNL1        0.0986
     16 C         -24.4444  -10.2852  -12.4079 C.ar    1  UNL1       -0.0041
     17 C         -24.5572   -9.5247  -13.5914 C.ar    1  UNL1       -0.0004
     18 C         -25.0203   -8.2062  -13.5454 C.ar    1  UNL1        0.0294
     19 C         -25.3631   -7.6245  -12.3232 C.ar    1  UNL1        0.1401
     20 F         -25.8003   -6.3420  -12.2811 F       1  UNL1       -0.2042
     21 C         -25.2462   -8.3618  -11.1436 C.ar    1  UNL1        0.0294
     22 C         -24.7899   -9.6821  -11.1841 C.ar    1  UNL1       -0.0004
     23 C         -21.9506  -12.3341  -13.9824 C.3     1  UNL1        0.1207
     24 C         -22.2866  -11.4719  -15.1739 C.ar    1  UNL1       -0.0021
     25 C         -23.1751  -11.9356  -16.1559 C.ar    1  UNL1       -0.0026
     26 C         -23.5272  -11.1169  -17.2293 C.ar    1  UNL1       -0.0001
     27 C         -22.9829   -9.8364  -17.3442 C.ar    1  UNL1        0.0064
     28 C         -22.0599   -9.3651  -16.3938 C.ar    1  UNL1        0.0752
     29 C         -21.7146  -10.1955  -15.3117 C.ar    1  UNL1        0.0038
     30 C         -21.4923   -8.0005  -16.5263 C.2     1  UNL1        0.3380
     31 O         -22.2583   -7.0007  -16.4975 O.2     1  UNL1       -0.2451
     32 O         -20.1250   -7.7841  -16.6955 O.3     1  UNL1       -0.4771
     33 H         -19.4641   -8.5375  -16.8320 H       1  UNL1        0.2954
@<TRIPOS>BOND
     1    14    15    1
     2    15    16    1
     3    16    17   ar
     4    17    18   ar
     5    18    19   ar
     6    19    20    1
     7    19    21   ar
     8    21    22   ar
     9    15     1    1
    10     1    23    1
    11    23    24    1
    12    24    25   ar
    13    25    26   ar
    14    26    27   ar
    15    27    28   ar
    16    28    30    1
    17    30    31    2
    18    30    32    1
    19    28    29   ar
    20     1     2   am
    21     2     3    2
    22     2     4    1
    23     4     5   ar
    24     5     6   ar
    25     6     7   ar
    26     7     8   ar
    27     8     9   ar
    28     9    10   ar
    29    10    11   ar
    30    11    12   ar
    31    12    13   ar
    32    22    16   ar
    33    29    24   ar
    34    13     4   ar
    35    11     6   ar
    36    32    33    1
@<TRIPOS>MOLECULE
*****
 33 36 0 0 0
SMALL
GASTEIGER

@<TRIPOS>ATOM
      1 N         -24.1409   -9.3067  -12.4007 N.am    1  UNL1       -0.2686
      2 C         -25.0895   -9.9138  -13.2972 C.2     1  UNL1        0.2690
      3 O         -26.1312   -9.2787  -13.6171 O.2     1  UNL1       -0.2682
      4 C         -24.8414  -11.2550  -13.8670 C.ar    1  UNL1        0.1562
      5 C         -23.5716  -11.6238  -14.3329 C.ar    1  UNL1        0.0271
      6 C         -23.3767  -12.9116  -14.8402 C.ar    1  UNL1        0.0211
      7 C         -22.1258  -13.3277  -15.3210 C.ar    1  UNL1        0.0016
      8 C         -21.9668  -14.6247  -15.8209 C.ar    1  UNL1        0.0001
      9 C         -23.0511  -15.5087  -15.8428 C.ar    1  UNL1        0.0016
     10 C         -24.3005  -15.1004  -15.3647 C.ar    1  UNL1        0.0209
     11 C         -24.4660  -13.8045  -14.8637 C.ar    1  UNL1        0.1029
     12 N         -25.6733  -13.3966  -14.3952 N.ar    1  UNL1       -0.1479
     13 N         -25.8517  -12.1658  -13.9128 N.ar    1  UNL1       -0.1434
     14 C         -24.6162   -9.2084   -9.9780 C.3     1  UNL1        0.0264
     15 C         -23.8764   -9.9529  -11.0986 C.3     1  UNL1        0.0986
     16 C         -22.3839  -10.1225  -10.8471 C.ar    1  UNL1       -0.0041
     17 C         -21.6244  -11.1406  -11.4622 C.ar    1  UNL1       -0.0004
     18 C         -20.2702  -11.3003  -11.1523 C.ar    1  UNL1        0.0294
     19 C         -19.6596  -10.4604  -10.2190 C.ar    1  UNL1        0.1401
     20 F         -18.3495  -10.6260   -9.9122 F       1  UNL1       -0.2042
     21 C         -20.4017   -9.4560   -9.5950 C.ar    1  UNL1        0.0294
     22 C         -21.7538   -9.2876   -9.9054 C.ar    1  UNL1       -0.0004
     23 C         -23.6673   -7.9424  -12.6955 C.3     1  UNL1        0.1207
     24 C         -22.9529   -7.9014  -14.0237 C.ar    1  UNL1       -0.0021
     25 C         -21.6158   -8.3154  -14.1220 C.ar    1  UNL1       -0.0026
     26 C         -20.9726   -8.3284  -15.3599 C.ar    1  UNL1       -0.0001
     27 C         -21.6492   -7.9113  -16.5076 C.ar    1  UNL1        0.0064
     28 C         -22.9767   -7.4546  -16.4274 C.ar    1  UNL1        0.0752
     29 C         -23.6194   -7.4499  -15.1758 C.ar    1  UNL1        0.0038
     30 C         -23.6850   -7.0180  -17.6560 C.2     1  UNL1        0.3380
     31 O         -23.8706   -7.8382  -18.5941 O.2     1  UNL1       -0.2451
     32 O         -24.1477   -5.7120  -17.8154 O.3     1  UNL1       -0.4771
     33 H         -23.9451   -4.9746  -17.1534 H       1  UNL1        0.2954
@<TRIPOS>BOND
     1    14    15    1
     2    15    16    1
     3    16    17   ar
     4    17    18   ar
     5    18    19   ar
     6    19    20    1
     7    19    21   ar
     8    21    22   ar
     9    15     1    1
    10     1    23    1
    11    23    24    1
    12    24    25   ar
    13    25    26   ar
    14    26    27   ar
    15    27    28   ar
    16    28    30    1
    17    30    31    2
    18    30    32    1
    19    28    29   ar
    20     1     2   am
    21     2     3    2
    22     2     4    1
    23     4     5   ar
    24     5     6   ar
    25     6     7   ar
    26     7     8   ar
    27     8     9   ar
    28     9    10   ar
    29    10    11   ar
    30    11    12   ar
    31    12    13   ar
    32    22    16   ar
    33    29    24   ar
    34    13     4   ar
    35    11     6   ar
    36    32    33    1
@<TRIPOS>MOLECULE
*****
 33 36 0 0 0
SMALL
GASTEIGER

@<TRIPOS>ATOM
      1 N         -23.2912   -8.2322  -13.4426 N.am    1  UNL1       -0.2686
      2 C         -22.6628   -8.9160  -14.5425 C.2     1  UNL1        0.2690
      3 O         -22.0754   -8.2438  -15.4335 O.2     1  UNL1       -0.2682
      4 C         -22.6734  -10.3921  -14.6217 C.ar    1  UNL1        0.1562
      5 C         -23.7621  -11.0832  -15.1719 C.ar    1  UNL1        0.0271
      6 C         -23.7178  -12.4780  -15.2501 C.ar    1  UNL1        0.0211
      7 C         -24.7828  -13.2154  -15.7895 C.ar    1  UNL1        0.0016
      8 C         -24.7038  -14.6108  -15.8529 C.ar    1  UNL1        0.0001
      9 C         -23.5659  -15.2737  -15.3802 C.ar    1  UNL1        0.0016
     10 C         -22.5007  -14.5447  -14.8417 C.ar    1  UNL1        0.0209
     11 C         -22.5737  -13.1490  -14.7755 C.ar    1  UNL1        0.1029
     12 N         -21.5457  -12.4298  -14.2565 N.ar    1  UNL1       -0.1479
     13 N         -21.5954  -11.0987  -14.1850 N.ar    1  UNL1       -0.1434
     14 C         -25.4402   -7.0177  -13.5513 C.3     1  UNL1        0.0264
     15 C         -24.7524   -8.3602  -13.2652 C.3     1  UNL1        0.0986
     16 C         -25.1047   -8.9584  -11.9095 C.ar    1  UNL1       -0.0041
     17 C         -25.9143   -8.2820  -10.9721 C.ar    1  UNL1       -0.0004
     18 C         -26.1588   -8.8399   -9.7134 C.ar    1  UNL1        0.0294
     19 C         -25.5913  -10.0677   -9.3673 C.ar    1  UNL1        0.1401
     20 F         -25.8208  -10.5998   -8.1417 F       1  UNL1       -0.2042
     21 C         -24.7798  -10.7425  -10.2810 C.ar    1  UNL1        0.0294
     22 C         -24.5369  -10.1928  -11.5426 C.ar    1  UNL1       -0.0004
     23 C         -22.5079   -7.2317  -12.6958 C.3     1  UNL1        0.1207
     24 C         -21.7742   -7.8783  -11.5470 C.ar    1  UNL1       -0.0021
     25 C         -20.5171   -8.4672  -11.7509 C.ar    1  UNL1       -0.0026
     26 C         -19.8153   -9.0169  -10.6778 C.ar    1  UNL1       -0.0001
     27 C         -20.3675   -9.0020   -9.3957 C.ar    1  UNL1        0.0064
     28 C         -21.6430   -8.4530   -9.1741 C.ar    1  UNL1        0.0752
     29 C         -22.3414   -7.8960  -10.2611 C.ar    1  UNL1        0.0038
     30 C         -22.2160   -8.4402   -7.8054 C.2     1  UNL1        0.3380
     31 O         -21.4908   -8.7485   -6.8225 O.2     1  UNL1       -0.2451
     32 O         -23.5490   -8.1062   -7.5675 O.3     1  UNL1       -0.4771
     33 H         -24.2157   -7.9498   -8.3120 H       1  UNL1        0.2954
@<TRIPOS>BOND
     1    14    15    1
     2    15    16    1
     3    16    17   ar
     4    17    18   ar
     5    18    19   ar
     6    19    20    1
     7    19    21   ar
     8    21    22   ar
     9    15     1    1
    10     1    23    1
    11    23    24    1
    12    24    25   ar
    13    25    26   ar
    14    26    27   ar
    15    27    28   ar
    16    28    30    1
    17    30    31    2
    18    30    32    1
    19    28    29   ar
    20     1     2   am
    21     2     3    2
    22     2     4    1
    23     4     5   ar
    24     5     6   ar
    25     6     7   ar
    26     7     8   ar
    27     8     9   ar
    28     9    10   ar
    29    10    11   ar
    30    11    12   ar
    31    12    13   ar
    32    22    16   ar
    33    29    24   ar
    34    13     4   ar
    35    11     6   ar
    36    32    33    1
@<TRIPOS>MOLECULE
*****
 33 36 0 0 0
SMALL
GASTEIGER

@<TRIPOS>ATOM
      1 N         -24.7661   -8.8213  -12.8350 N.am    1  UNL1       -0.2686
      2 C         -24.5685   -9.1307  -11.4432 C.2     1  UNL1        0.2690
      3 O         -25.5725   -9.3252  -10.7049 O.2     1  UNL1       -0.2682
      4 C         -23.2070   -9.2517  -10.8803 C.ar    1  UNL1        0.1562
      5 C         -22.4046  -10.3690  -11.1511 C.ar    1  UNL1        0.0271
      6 C         -21.1137  -10.4291  -10.6185 C.ar    1  UNL1        0.0211
      7 C         -20.2732  -11.5268  -10.8581 C.ar    1  UNL1        0.0016
      8 C         -18.9863  -11.5530  -10.3097 C.ar    1  UNL1        0.0001
      9 C         -18.5346  -10.4878   -9.5230 C.ar    1  UNL1        0.0016
     10 C         -19.3672   -9.3904   -9.2806 C.ar    1  UNL1        0.0209
     11 C         -20.6553   -9.3584   -9.8262 C.ar    1  UNL1        0.1029
     12 N         -21.4726   -8.2983   -9.5996 N.ar    1  UNL1       -0.1479
     13 N         -22.7035   -8.2481  -10.1111 N.ar    1  UNL1       -0.1434
     14 C         -25.4846   -6.7012  -13.8810 C.3     1  UNL1        0.0264
     15 C         -24.2981   -7.5173  -13.3485 C.3     1  UNL1        0.0986
     16 C         -23.1621   -7.6812  -14.3497 C.ar    1  UNL1       -0.0041
     17 C         -23.3500   -7.5214  -15.7392 C.ar    1  UNL1       -0.0004
     18 C         -22.2938   -7.7453  -16.6278 C.ar    1  UNL1        0.0294
     19 C         -21.0446   -8.1434  -16.1477 C.ar    1  UNL1        0.1401
     20 F         -20.0263   -8.3712  -17.0131 F       1  UNL1       -0.2042
     21 C         -20.8478   -8.3157  -14.7764 C.ar    1  UNL1        0.0294
     22 C         -21.8979   -8.0872  -13.8831 C.ar    1  UNL1       -0.0004
     23 C         -25.6484   -9.6927  -13.6316 C.3     1  UNL1        0.1207
     24 C         -24.8758  -10.8571  -14.2001 C.ar    1  UNL1       -0.0021
     25 C         -24.7798  -12.0604  -13.4848 C.ar    1  UNL1       -0.0026
     26 C         -24.1111  -13.1544  -14.0348 C.ar    1  UNL1       -0.0001
     27 C         -23.5159  -13.0536  -15.2936 C.ar    1  UNL1        0.0064
     28 C         -23.5648  -11.8456  -16.0117 C.ar    1  UNL1        0.0752
     29 C         -24.2458  -10.7491  -15.4518 C.ar    1  UNL1        0.0038
     30 C         -22.9311  -11.7538  -17.3504 C.2     1  UNL1        0.3380
     31 O         -21.8456  -12.3545  -17.5693 O.2     1  UNL1       -0.2451
     32 O         -23.4963  -11.0070  -18.3837 O.3     1  UNL1       -0.4771
     33 H         -24.3071  -10.4166  -18.2527 H       1  UNL1        0.2954
@<TRIPOS>BOND
     1    14    15    1
     2    15    16    1
     3    16    17   ar
     4    17    18   ar
     5    18    19   ar
     6    19    20    1
     7    19    21   ar
     8    21    22   ar
     9    15     1    1
    10     1    23    1
    11    23    24    1
    12    24    25   ar
    13    25    26   ar
    14    26    27   ar
    15    27    28   ar
    16    28    30    1
    17    30    31    2
    18    30    32    1
    19    28    29   ar
    20     1     2   am
    21     2     3    2
    22     2     4    1
    23     4     5   ar
    24     5     6   ar
    25     6     7   ar
    26     7     8   ar
    27     8     9   ar
    28     9    10   ar
    29    10    11   ar
    30    11    12   ar
    31    12    13   ar
    32    22    16   ar
    33    29    24   ar
    34    13     4   ar
    35    11     6   ar
    36    32    33    1
@<TRIPOS>MOLECULE
*****
 33 36 0 0 0
SMALL
GASTEIGER

@<TRIPOS>ATOM
      1 N         -23.1644   -8.9940  -12.6124 N.am    1  UNL1       -0.2686
      2 C         -23.4999  -10.3080  -12.1297 C.2     1  UNL1        0.2690
      3 O         -23.4557  -10.5411  -10.8909 O.2     1  UNL1       -0.2682
      4 C         -23.9226  -11.3727  -13.0640 C.ar    1  UNL1        0.1562
      5 C         -23.0275  -12.3643  -13.4896 C.ar    1  UNL1        0.0271
      6 C         -23.4777  -13.3667  -14.3535 C.ar    1  UNL1        0.0211
      7 C         -22.6203  -14.3793  -14.8100 C.ar    1  UNL1        0.0016
      8 C         -23.1054  -15.3675  -15.6735 C.ar    1  UNL1        0.0001
      9 C         -24.4431  -15.3495  -16.0833 C.ar    1  UNL1        0.0016
     10 C         -25.3031  -14.3432  -15.6316 C.ar    1  UNL1        0.0209
     11 C         -24.8239  -13.3520  -14.7680 C.ar    1  UNL1        0.1029
     12 N         -25.6489  -12.3707  -14.3213 N.ar    1  UNL1       -0.1479
     13 N         -25.2120  -11.4172  -13.4972 N.ar    1  UNL1       -0.1434
     14 C         -21.1020   -7.6983  -13.0284 C.3     1  UNL1        0.0264
     15 C         -22.0047   -8.8410  -13.5150 C.3     1  UNL1        0.0986
     16 C         -22.4368   -8.7105  -14.9696 C.ar    1  UNL1       -0.0041
     17 C         -22.6963   -7.4609  -15.5720 C.ar    1  UNL1       -0.0004
     18 C         -23.1540   -7.3913  -16.8914 C.ar    1  UNL1        0.0294
     19 C         -23.3717   -8.5612  -17.6218 C.ar    1  UNL1        0.1401
     20 F         -23.8269   -8.4903  -18.8968 F       1  UNL1       -0.2042
     21 C         -23.1292   -9.8044  -17.0347 C.ar    1  UNL1        0.0294
     22 C         -22.6658   -9.8799  -15.7185 C.ar    1  UNL1       -0.0004
     23 C         -23.8187   -7.8279  -11.9923 C.3     1  UNL1        0.1207
     24 C         -25.1539   -7.5584  -12.6409 C.ar    1  UNL1       -0.0021
     25 C         -26.2907   -8.2816  -12.2491 C.ar    1  UNL1       -0.0026
     26 C         -27.5352   -7.9947  -12.8106 C.ar    1  UNL1       -0.0001
     27 C         -27.6552   -6.9982  -13.7810 C.ar    1  UNL1        0.0064
     28 C         -26.5233   -6.2876  -14.2182 C.ar    1  UNL1        0.0752
     29 C         -25.2731   -6.5798  -13.6427 C.ar    1  UNL1        0.0038
     30 C         -26.6661   -5.2283  -15.2475 C.2     1  UNL1        0.3380
     31 O         -27.5497   -4.3407  -15.1108 O.2     1  UNL1       -0.2451
     32 O         -25.8542   -5.1873  -16.3806 O.3     1  UNL1       -0.4771
     33 H         -25.1965   -5.9207  -16.6099 H       1  UNL1        0.2954
@<TRIPOS>BOND
     1    14    15    1
     2    15    16    1
     3    16    17   ar
     4    17    18   ar
     5    18    19   ar
     6    19    20    1
     7    19    21   ar
     8    21    22   ar
     9    15     1    1
    10     1    23    1
    11    23    24    1
    12    24    25   ar
    13    25    26   ar
    14    26    27   ar
    15    27    28   ar
    16    28    30    1
    17    30    31    2
    18    30    32    1
    19    28    29   ar
    20     1     2   am
    21     2     3    2
    22     2     4    1
    23     4     5   ar
    24     5     6   ar
    25     6     7   ar
    26     7     8   ar
    27     8     9   ar
    28     9    10   ar
    29    10    11   ar
    30    11    12   ar
    31    12    13   ar
    32    22    16   ar
    33    29    24   ar
    34    13     4   ar
    35    11     6   ar
    36    32    33    1
@<TRIPOS>MOLECULE
*****
 33 36 0 0 0
SMALL
GASTEIGER

@<TRIPOS>ATOM
      1 N         -24.6426   -8.9447  -12.7167 N.am    1  UNL1       -0.2686
      2 C         -24.6992   -9.0661  -11.2835 C.2     1  UNL1        0.2690
      3 O         -25.8103   -9.2755  -10.7245 O.2     1  UNL1       -0.2682
      4 C         -23.4699   -8.9782  -10.4671 C.ar    1  UNL1        0.1562
      5 C         -22.3112   -9.6847  -10.8188 C.ar    1  UNL1        0.0271
      6 C         -21.1637   -9.5515  -10.0319 C.ar    1  UNL1        0.0211
      7 C         -19.9803  -10.2395  -10.3404 C.ar    1  UNL1        0.0016
      8 C         -18.8502  -10.0816   -9.5308 C.ar    1  UNL1        0.0001
      9 C         -18.8961   -9.2395   -8.4144 C.ar    1  UNL1        0.0016
     10 C         -20.0724   -8.5505   -8.1015 C.ar    1  UNL1        0.0209
     11 C         -21.2060   -8.7043   -8.9072 C.ar    1  UNL1        0.1029
     12 N         -22.3533   -8.0398   -8.6152 N.ar    1  UNL1       -0.1479
     13 N         -23.4445   -8.1722   -9.3708 N.ar    1  UNL1       -0.1434
     14 C         -25.3817   -6.8975  -13.8863 C.3     1  UNL1        0.0264
     15 C         -24.1874   -7.6688  -13.3064 C.3     1  UNL1        0.0986
     16 C         -23.0492   -7.8803  -14.2961 C.ar    1  UNL1       -0.0041
     17 C         -21.7489   -8.2452  -13.8863 C.ar    1  UNL1       -0.0004
     18 C         -20.7178   -8.3651  -14.8231 C.ar    1  UNL1        0.0294
     19 C         -20.9632   -8.1107  -16.1739 C.ar    1  UNL1        0.1401
     20 F         -19.9582   -8.2162  -17.0776 F       1  UNL1       -0.2042
     21 C         -22.2422   -7.7385  -16.5916 C.ar    1  UNL1        0.0294
     22 C         -23.2781   -7.6232  -15.6608 C.ar    1  UNL1       -0.0004
     23 C         -25.2791   -9.9906  -13.5375 C.3     1  UNL1        0.1207
     24 C         -24.2402  -10.7786  -14.2963 C.ar    1  UNL1       -0.0021
     25 C         -24.2766  -10.8329  -15.6979 C.ar    1  UNL1       -0.0026
     26 C         -23.2847  -11.5168  -16.4014 C.ar    1  UNL1       -0.0001
     27 C         -22.2587  -12.1685  -15.7146 C.ar    1  UNL1        0.0064
     28 C         -22.2239  -12.1613  -14.3088 C.ar    1  UNL1        0.0752
     29 C         -23.2252  -11.4647  -13.6076 C.ar    1  UNL1        0.0038
     30 C         -21.1252  -12.8549  -13.5919 C.2     1  UNL1        0.3380
     31 O         -20.4053  -13.6856  -14.2074 O.2     1  UNL1       -0.2451
     32 O         -20.8663  -12.6251  -12.2409 O.3     1  UNL1       -0.4771
     33 H         -21.4639  -12.0539  -11.6582 H       1  UNL1        0.2954
@<TRIPOS>BOND
     1    14    15    1
     2    15    16    1
     3    16    17   ar
     4    17    18   ar
     5    18    19   ar
     6    19    20    1
     7    19    21   ar
     8    21    22   ar
     9    15     1    1
    10     1    23    1
    11    23    24    1
    12    24    25   ar
    13    25    26   ar
    14    26    27   ar
    15    27    28   ar
    16    28    30    1
    17    30    31    2
    18    30    32    1
    19    28    29   ar
    20     1     2   am
    21     2     3    2
    22     2     4    1
    23     4     5   ar
    24     5     6   ar
    25     6     7   ar
    26     7     8   ar
    27     8     9   ar
    28     9    10   ar
    29    10    11   ar
    30    11    12   ar
    31    12    13   ar
    32    22    16   ar
    33    29    24   ar
    34    13     4   ar
    35    11     6   ar
    36    32    33    1
@<TRIPOS>MOLECULE
*****
 33 36 0 0 0
SMALL
GASTEIGER

@<TRIPOS>ATOM
      1 N         -21.7150   -9.3092  -11.5385 N.am    1  UNL1       -0.2686
      2 C         -21.4184  -10.7167  -11.4846 C.2     1  UNL1        0.2690
      3 O         -20.6668  -11.1553  -10.5715 O.2     1  UNL1       -0.2682
      4 C         -22.0069  -11.6526  -12.4658 C.ar    1  UNL1        0.1562
      5 C         -23.3918  -11.8606  -12.5325 C.ar    1  UNL1        0.0271
      6 C         -23.9065  -12.7354  -13.4935 C.ar    1  UNL1        0.0211
      7 C         -25.2843  -12.9793  -13.5987 C.ar    1  UNL1        0.0016
      8 C         -25.7644  -13.8607  -14.5734 C.ar    1  UNL1        0.0001
      9 C         -24.8750  -14.4998  -15.4441 C.ar    1  UNL1        0.0016
     10 C         -23.5005  -14.2609  -15.3448 C.ar    1  UNL1        0.0209
     11 C         -23.0141  -13.3806  -14.3720 C.ar    1  UNL1        0.1029
     12 N         -21.6823  -13.1390  -14.2665 N.ar    1  UNL1       -0.1479
     13 N         -21.1985  -12.3029  -13.3466 N.ar    1  UNL1       -0.1434
     14 C         -21.4331   -7.0316  -12.4541 C.3     1  UNL1        0.0264
     15 C         -21.2907   -8.5363  -12.7241 C.3     1  UNL1        0.0986
     16 C         -22.0003   -9.0074  -13.9867 C.ar    1  UNL1       -0.0041
     17 C         -23.4065   -9.0164  -14.1051 C.ar    1  UNL1       -0.0004
     18 C         -24.0177   -9.5185  -15.2581 C.ar    1  UNL1        0.0294
     19 C         -23.2403  -10.0291  -16.2995 C.ar    1  UNL1        0.1401
     20 F         -23.8368  -10.5261  -17.4108 F       1  UNL1       -0.2042
     21 C         -21.8485  -10.0361  -16.1912 C.ar    1  UNL1        0.0294
     22 C         -21.2319   -9.5299  -15.0438 C.ar    1  UNL1       -0.0004
     23 C         -22.1927   -8.6430  -10.3135 C.3     1  UNL1        0.1207
     24 C         -23.6523   -8.9434  -10.0778 C.ar    1  UNL1       -0.0021
     25 C         -24.0314   -9.9690   -9.1985 C.ar    1  UNL1       -0.0026
     26 C         -25.3809  -10.2107   -8.9396 C.ar    1  UNL1       -0.0001
     27 C         -26.3648   -9.4457   -9.5686 C.ar    1  UNL1        0.0064
     28 C         -26.0099   -8.4390  -10.4840 C.ar    1  UNL1        0.0752
     29 C         -24.6465   -8.1985  -10.7351 C.ar    1  UNL1        0.0038
     30 C         -27.0662   -7.6309  -11.1423 C.2     1  UNL1        0.3380
     31 O         -26.8400   -6.4261  -11.4327 O.2     1  UNL1       -0.2451
     32 O         -28.3201   -8.1619  -11.4435 O.3     1  UNL1       -0.4771
     33 H         -28.6093   -9.0850  -11.1481 H       1  UNL1        0.2954
@<TRIPOS>BOND
     1    14    15    1
     2    15    16    1
     3    16    17   ar
     4    17    18   ar
     5    18    19   ar
     6    19    20    1
     7    19    21   ar
     8    21    22   ar
     9    15     1    1
    10     1    23    1
    11    23    24    1
    12    24    25   ar
    13    25    26   ar
    14    26    27   ar
    15    27    28   ar
    16    28    30    1
    17    30    31    2
    18    30    32    1
    19    28    29   ar
    20     1     2   am
    21     2     3    2
    22     2     4    1
    23     4     5   ar
    24     5     6   ar
    25     6     7   ar
    26     7     8   ar
    27     8     9   ar
    28     9    10   ar
    29    10    11   ar
    30    11    12   ar
    31    12    13   ar
    32    22    16   ar
    33    29    24   ar
    34    13     4   ar
    35    11     6   ar
    36    32    33    1
