@<TRIPOS>MOLECULE
*****
 37 40 0 0 0
SMALL
GASTEIGER

@<TRIPOS>ATOM
      1 C          -9.4424   -9.9902   32.6723 C.2     1  UNL1        0.2673
      2 O          -9.7468  -10.0637   33.8944 O.2     1  UNL1       -0.2682
      3 N          -9.3937  -11.2061   31.8703 N.am    1  UNL1       -0.2685
      4 C         -10.0636   -7.9415   31.3263 C.ar    1  UNL1        0.0569
      5 C          -9.1361   -8.6467   32.1319 C.ar    1  UNL1        0.1374
      6 N          -7.9008   -8.1242   32.3467 N.ar    1  UNL1       -0.2392
      7 C          -7.5119   -6.9273   31.8453 C.ar    1  UNL1        0.0990
      8 C          -8.3890   -6.1791   31.0576 C.ar    1  UNL1        0.0193
      9 C          -7.9929   -4.9367   30.5388 C.ar    1  UNL1        0.0015
     10 C          -8.8752   -4.1895   29.7576 C.ar    1  UNL1        0.0000
     11 C         -10.1560   -4.6734   29.4911 C.ar    1  UNL1        0.0000
     12 C         -10.5631   -5.9093   30.0008 C.ar    1  UNL1        0.0002
     13 C          -9.6842   -6.6859   30.7878 C.ar    1  UNL1        0.0059
     14 C         -12.5564   -8.2089   31.9669 C.3     1  UNL1        0.0773
     15 C         -11.4059   -8.5061   31.0587 C.2     1  UNL1        0.1751
     16 O         -11.5749   -9.2620   30.0648 O.2     1  UNL1       -0.2913
     17 C          -9.0550  -11.2366   30.4226 C.3     1  UNL1        0.1007
     18 C          -9.3797  -12.6032   29.7892 C.3     1  UNL1        0.0265
     19 C          -7.6385  -10.7453   30.1175 C.ar    1  UNL1        0.0234
     20 C          -6.4945  -11.3558   30.6801 C.ar    1  UNL1        0.0019
     21 C          -5.2166  -10.8502   30.4310 C.ar    1  UNL1        0.0295
     22 C          -5.0536   -9.7187   29.6334 C.ar    1  UNL1        0.1424
     23 F          -3.8121   -9.2279   29.3968 F       1  UNL1       -0.2041
     24 C          -6.1709   -9.0829   29.0924 C.ar    1  UNL1        0.0590
     25 C          -7.4546   -9.5804   29.3383 C.ar    1  UNL1        0.1399
     26 F          -8.5167   -8.9000   28.8394 F       1  UNL1       -0.2044
     27 C          -9.6885  -12.4944   32.5286 C.3     1  UNL1        0.1207
     28 C         -11.1596  -12.7988   32.4436 C.ar    1  UNL1       -0.0021
     29 C         -12.0526  -11.8408   31.9419 C.ar    1  UNL1       -0.0026
     30 C         -13.4039  -12.1537   31.7856 C.ar    1  UNL1       -0.0001
     31 C         -13.8736  -13.4275   32.1146 C.ar    1  UNL1        0.0064
     32 C         -12.9922  -14.4045   32.6105 C.ar    1  UNL1        0.0752
     33 C         -11.6357  -14.0771   32.7797 C.ar    1  UNL1        0.0038
     34 C         -13.4770  -15.7644   32.9329 C.2     1  UNL1        0.3380
     35 O         -14.5189  -15.9238   33.6247 O.2     1  UNL1       -0.2451
     36 O         -12.7884  -16.8831   32.4704 O.3     1  UNL1       -0.4771
     37 H         -13.1138  -17.8188   32.6820 H       1  UNL1        0.2954
@<TRIPOS>BOND
     1    14    15    1
     2    15    16    2
     3    15     4    1
     4     4     5   ar
     5     5     1    1
     6     1     2    2
     7     1     3   am
     8     3    27    1
     9    27    28    1
    10    28    29   ar
    11    29    30   ar
    12    30    31   ar
    13    31    32   ar
    14    32    34    1
    15    34    35    2
    16    34    36    1
    17    32    33   ar
    18     3    17    1
    19    17    18    1
    20    17    19    1
    21    19    20   ar
    22    20    21   ar
    23    21    22   ar
    24    22    23    1
    25    22    24   ar
    26    24    25   ar
    27    25    26    1
    28     5     6   ar
    29     6     7   ar
    30     7     8   ar
    31     8     9   ar
    32     9    10   ar
    33    10    11   ar
    34    11    12   ar
    35    12    13   ar
    36    13     4   ar
    37    33    28   ar
    38    25    19   ar
    39    13     8   ar
    40    36    37    1
@<TRIPOS>MOLECULE
*****
 37 40 0 0 0
SMALL
GASTEIGER

@<TRIPOS>ATOM
      1 C         -10.6189   -9.5749   32.0555 C.2     1  UNL1        0.2673
      2 O         -11.4782   -9.2670   32.9263 O.2     1  UNL1       -0.2682
      3 N         -10.8669  -10.7060   31.1707 N.am    1  UNL1       -0.2685
      4 C          -9.1740   -7.8005   30.9791 C.ar    1  UNL1        0.0569
      5 C          -9.3869   -8.7561   32.0028 C.ar    1  UNL1        0.1374
      6 N          -8.4059   -8.9958   32.9112 N.ar    1  UNL1       -0.2392
      7 C          -7.2232   -8.3354   32.9071 C.ar    1  UNL1        0.0990
      8 C          -6.9628   -7.3705   31.9320 C.ar    1  UNL1        0.0193
      9 C          -5.7408   -6.6803   31.9252 C.ar    1  UNL1        0.0015
     10 C          -5.4876   -5.7121   30.9528 C.ar    1  UNL1        0.0000
     11 C          -6.4497   -5.4243   29.9846 C.ar    1  UNL1        0.0000
     12 C          -7.6704   -6.1046   29.9794 C.ar    1  UNL1        0.0002
     13 C          -7.9452   -7.0936   30.9496 C.ar    1  UNL1        0.0059
     14 C         -11.4058   -6.6897   30.2854 C.3     1  UNL1        0.0773
     15 C         -10.2205   -7.5431   29.9638 C.2     1  UNL1        0.1751
     16 O         -10.1202   -8.0665   28.8220 O.2     1  UNL1       -0.2913
     17 C          -9.9296  -11.1527   30.1060 C.3     1  UNL1        0.1007
     18 C         -10.2789  -12.5630   29.5930 C.3     1  UNL1        0.0265
     19 C          -8.4560  -10.9898   30.4838 C.ar    1  UNL1        0.0234
     20 C          -7.5272  -10.3546   29.6283 C.ar    1  UNL1        0.0019
     21 C          -6.1761  -10.2717   29.9723 C.ar    1  UNL1        0.0295
     22 C          -5.7204  -10.8340   31.1636 C.ar    1  UNL1        0.1424
     23 F          -4.4075  -10.7554   31.4928 F       1  UNL1       -0.2041
     24 C          -6.6142  -11.4916   32.0084 C.ar    1  UNL1        0.0590
     25 C          -7.9685  -11.5817   31.6712 C.ar    1  UNL1        0.1399
     26 F          -8.7930  -12.2777   32.4932 F       1  UNL1       -0.2044
     27 C         -12.1200  -11.4685   31.3394 C.3     1  UNL1        0.1207
     28 C         -11.9230  -12.5827   32.3313 C.ar    1  UNL1       -0.0021
     29 C         -11.1080  -12.3923   33.4566 C.ar    1  UNL1       -0.0026
     30 C         -10.9924  -13.3971   34.4186 C.ar    1  UNL1       -0.0001
     31 C         -11.6988  -14.5936   34.2742 C.ar    1  UNL1        0.0064
     32 C         -12.5282  -14.7997   33.1576 C.ar    1  UNL1        0.0752
     33 C         -12.6274  -13.7894   32.1853 C.ar    1  UNL1        0.0038
     34 C         -13.3021  -16.0522   33.0132 C.2     1  UNL1        0.3380
     35 O         -14.4628  -16.1453   33.4967 O.2     1  UNL1       -0.2451
     36 O         -12.7566  -17.1402   32.3364 O.3     1  UNL1       -0.4771
     37 H         -13.2794  -18.0012   32.2283 H       1  UNL1        0.2954
@<TRIPOS>BOND
     1    14    15    1
     2    15    16    2
     3    15     4    1
     4     4     5   ar
     5     5     1    1
     6     1     2    2
     7     1     3   am
     8     3    27    1
     9    27    28    1
    10    28    29   ar
    11    29    30   ar
    12    30    31   ar
    13    31    32   ar
    14    32    34    1
    15    34    35    2
    16    34    36    1
    17    32    33   ar
    18     3    17    1
    19    17    18    1
    20    17    19    1
    21    19    20   ar
    22    20    21   ar
    23    21    22   ar
    24    22    23    1
    25    22    24   ar
    26    24    25   ar
    27    25    26    1
    28     5     6   ar
    29     6     7   ar
    30     7     8   ar
    31     8     9   ar
    32     9    10   ar
    33    10    11   ar
    34    11    12   ar
    35    12    13   ar
    36    13     4   ar
    37    33    28   ar
    38    25    19   ar
    39    13     8   ar
    40    36    37    1
@<TRIPOS>MOLECULE
*****
 37 40 0 0 0
SMALL
GASTEIGER

@<TRIPOS>ATOM
      1 C          -8.8085  -10.9953   31.5591 C.2     1  UNL1        0.2673
      2 O          -8.2858  -12.0923   31.2203 O.2     1  UNL1       -0.2682
      3 N         -10.2586  -10.8525   31.5324 N.am    1  UNL1       -0.2685
      4 C          -6.9802   -9.3289   31.0343 C.ar    1  UNL1        0.0569
      5 C          -7.8910   -9.9032   31.9547 C.ar    1  UNL1        0.1374
      6 N          -7.8688   -9.5096   33.2546 N.ar    1  UNL1       -0.2392
      7 C          -7.0249   -8.5575   33.7198 C.ar    1  UNL1        0.0990
      8 C          -6.1158   -7.9440   32.8556 C.ar    1  UNL1        0.0193
      9 C          -5.2420   -6.9541   33.3311 C.ar    1  UNL1        0.0015
     10 C          -4.3396   -6.3391   32.4624 C.ar    1  UNL1        0.0000
     11 C          -4.3044   -6.7040   31.1165 C.ar    1  UNL1        0.0000
     12 C          -5.1685   -7.6887   30.6300 C.ar    1  UNL1        0.0002
     13 C          -6.0848   -8.3297   31.4928 C.ar    1  UNL1        0.0059
     14 C          -6.0615  -10.8580   29.1597 C.3     1  UNL1        0.0773
     15 C          -6.9707   -9.7628   29.6187 C.2     1  UNL1        0.1751
     16 O          -7.7236   -9.1879   28.7878 O.2     1  UNL1       -0.2913
     17 C         -10.9811   -9.6110   31.9172 C.3     1  UNL1        0.1007
     18 C         -12.5093   -9.7991   31.8604 C.3     1  UNL1        0.0265
     19 C         -10.4928   -8.3662   31.1735 C.ar    1  UNL1        0.0234
     20 C         -10.0665   -7.2034   31.8547 C.ar    1  UNL1        0.0019
     21 C          -9.6812   -6.0606   31.1502 C.ar    1  UNL1        0.0295
     22 C          -9.7297   -6.0464   29.7571 C.ar    1  UNL1        0.1424
     23 F          -9.3589   -4.9342   29.0763 F       1  UNL1       -0.2041
     24 C         -10.1755   -7.1726   29.0657 C.ar    1  UNL1        0.0590
     25 C         -10.5656   -8.3206   29.7626 C.ar    1  UNL1        0.1399
     26 F         -11.0452   -9.3734   29.0544 F       1  UNL1       -0.2044
     27 C         -11.0699  -12.0035   31.0886 C.3     1  UNL1        0.1207
     28 C         -11.2667  -12.9715   32.2236 C.ar    1  UNL1       -0.0021
     29 C         -10.6747  -12.7284   33.4715 C.ar    1  UNL1       -0.0026
     30 C         -10.9256  -13.5826   34.5466 C.ar    1  UNL1       -0.0001
     31 C         -11.7792  -14.6773   34.3907 C.ar    1  UNL1        0.0064
     32 C         -12.3895  -14.9325   33.1499 C.ar    1  UNL1        0.0752
     33 C         -12.1198  -14.0767   32.0678 C.ar    1  UNL1        0.0038
     34 C         -13.3177  -16.0727   32.9855 C.2     1  UNL1        0.3380
     35 O         -12.9522  -17.1101   32.3694 O.2     1  UNL1       -0.2451
     36 O         -14.6043  -16.0123   33.5150 O.3     1  UNL1       -0.4771
     37 H         -15.2466  -16.7889   33.4117 H       1  UNL1        0.2954
@<TRIPOS>BOND
     1    14    15    1
     2    15    16    2
     3    15     4    1
     4     4     5   ar
     5     5     1    1
     6     1     2    2
     7     1     3   am
     8     3    27    1
     9    27    28    1
    10    28    29   ar
    11    29    30   ar
    12    30    31   ar
    13    31    32   ar
    14    32    34    1
    15    34    35    2
    16    34    36    1
    17    32    33   ar
    18     3    17    1
    19    17    18    1
    20    17    19    1
    21    19    20   ar
    22    20    21   ar
    23    21    22   ar
    24    22    23    1
    25    22    24   ar
    26    24    25   ar
    27    25    26    1
    28     5     6   ar
    29     6     7   ar
    30     7     8   ar
    31     8     9   ar
    32     9    10   ar
    33    10    11   ar
    34    11    12   ar
    35    12    13   ar
    36    13     4   ar
    37    33    28   ar
    38    25    19   ar
    39    13     8   ar
    40    36    37    1
@<TRIPOS>MOLECULE
*****
 37 40 0 0 0
SMALL
GASTEIGER

@<TRIPOS>ATOM
      1 C          -9.1059  -10.9607   32.4755 C.2     1  UNL1        0.2673
      2 O          -8.7270  -11.2121   33.6523 O.2     1  UNL1       -0.2682
      3 N         -10.5307  -10.8615   32.1859 N.am    1  UNL1       -0.2685
      4 C          -7.3120   -9.5935   31.3319 C.ar    1  UNL1        0.0569
      5 C          -8.0536  -10.7948   31.4478 C.ar    1  UNL1        0.1374
      6 N          -7.8625  -11.7909   30.5443 N.ar    1  UNL1       -0.2392
      7 C          -6.9619  -11.7057   29.5360 C.ar    1  UNL1        0.0990
      8 C          -6.1902  -10.5523   29.3813 C.ar    1  UNL1        0.0193
      9 C          -5.2528  -10.4600   28.3410 C.ar    1  UNL1        0.0015
     10 C          -4.4792   -9.3080   28.1943 C.ar    1  UNL1        0.0000
     11 C          -4.6328   -8.2439   29.0831 C.ar    1  UNL1        0.0000
     12 C          -5.5631   -8.3224   30.1230 C.ar    1  UNL1        0.0002
     13 C          -6.3619   -9.4757   30.2860 C.ar    1  UNL1        0.0059
     14 C          -6.4421   -8.0761   33.2389 C.3     1  UNL1        0.0773
     15 C          -7.5241   -8.4857   32.2911 C.2     1  UNL1        0.1751
     16 O          -8.6367   -7.8952   32.3218 O.2     1  UNL1       -0.2913
     17 C         -11.0888  -10.5627   30.8402 C.3     1  UNL1        0.1007
     18 C         -10.5678  -11.5466   29.7750 C.3     1  UNL1        0.0265
     19 C         -10.9474   -9.0944   30.4340 C.ar    1  UNL1        0.0234
     20 C         -10.0076   -8.6700   29.4673 C.ar    1  UNL1        0.0019
     21 C          -9.8591   -7.3161   29.1580 C.ar    1  UNL1        0.0295
     22 C         -10.6287   -6.3582   29.8163 C.ar    1  UNL1        0.1424
     23 F         -10.4794   -5.0444   29.5168 F       1  UNL1       -0.2041
     24 C         -11.5410   -6.7523   30.7949 C.ar    1  UNL1        0.0590
     25 C         -11.6948   -8.1054   31.1131 C.ar    1  UNL1        0.1399
     26 F         -12.5522   -8.4404   32.1093 F       1  UNL1       -0.2044
     27 C         -11.4886  -11.0782   33.2883 C.3     1  UNL1        0.1207
     28 C         -11.5962  -12.5453   33.6048 C.ar    1  UNL1       -0.0021
     29 C         -10.8384  -13.1021   34.6452 C.ar    1  UNL1       -0.0026
     30 C         -11.0007  -14.4444   34.9922 C.ar    1  UNL1       -0.0001
     31 C         -11.9290  -15.2387   34.3149 C.ar    1  UNL1        0.0064
     32 C         -12.7047  -14.6963   33.2750 C.ar    1  UNL1        0.0752
     33 C         -12.5246  -13.3479   32.9210 C.ar    1  UNL1        0.0038
     34 C         -13.7105  -15.5236   32.5732 C.2     1  UNL1        0.3380
     35 O         -14.9008  -15.5690   32.9863 O.2     1  UNL1       -0.2451
     36 O         -13.3523  -16.2572   31.4449 O.3     1  UNL1       -0.4771
     37 H         -14.0340  -16.8238   30.9545 H       1  UNL1        0.2954
@<TRIPOS>BOND
     1    14    15    1
     2    15    16    2
     3    15     4    1
     4     4     5   ar
     5     5     1    1
     6     1     2    2
     7     1     3   am
     8     3    27    1
     9    27    28    1
    10    28    29   ar
    11    29    30   ar
    12    30    31   ar
    13    31    32   ar
    14    32    34    1
    15    34    35    2
    16    34    36    1
    17    32    33   ar
    18     3    17    1
    19    17    18    1
    20    17    19    1
    21    19    20   ar
    22    20    21   ar
    23    21    22   ar
    24    22    23    1
    25    22    24   ar
    26    24    25   ar
    27    25    26    1
    28     5     6   ar
    29     6     7   ar
    30     7     8   ar
    31     8     9   ar
    32     9    10   ar
    33    10    11   ar
    34    11    12   ar
    35    12    13   ar
    36    13     4   ar
    37    33    28   ar
    38    25    19   ar
    39    13     8   ar
    40    36    37    1
@<TRIPOS>MOLECULE
*****
 37 40 0 0 0
SMALL
GASTEIGER

@<TRIPOS>ATOM
      1 C          -9.4578  -10.3728   32.2348 C.2     1  UNL1        0.2673
      2 O          -9.2752  -10.7305   33.4307 O.2     1  UNL1       -0.2682
      3 N         -10.7961  -10.0022   31.7927 N.am    1  UNL1       -0.2685
      4 C          -7.3644   -9.2848   31.3244 C.ar    1  UNL1        0.0569
      5 C          -8.2765  -10.3685   31.3430 C.ar    1  UNL1        0.1374
      6 N          -8.1201  -11.3919   30.4637 N.ar    1  UNL1       -0.2392
      7 C          -7.1015  -11.4458   29.5724 C.ar    1  UNL1        0.0990
      8 C          -6.1619  -10.4143   29.5186 C.ar    1  UNL1        0.0193
      9 C          -5.1023  -10.4668   28.6000 C.ar    1  UNL1        0.0015
     10 C          -4.1620   -9.4368   28.5545 C.ar    1  UNL1        0.0000
     11 C          -4.2700   -8.3515   29.4241 C.ar    1  UNL1        0.0000
     12 C          -5.3207   -8.2863   30.3433 C.ar    1  UNL1        0.0002
     13 C          -6.2880   -9.3139   30.4019 C.ar    1  UNL1        0.0059
     14 C          -6.4892   -7.8384   33.2835 C.3     1  UNL1        0.0773
     15 C          -7.5322   -8.1471   32.2571 C.2     1  UNL1        0.1751
     16 O          -8.5760   -7.4439   32.1974 O.2     1  UNL1       -0.2913
     17 C         -11.1248   -9.5590   30.4118 C.3     1  UNL1        0.1007
     18 C         -10.4883  -10.4774   29.3509 C.3     1  UNL1        0.0265
     19 C         -10.8578   -8.0721   30.1691 C.ar    1  UNL1        0.0234
     20 C          -9.7693   -7.6225   29.3875 C.ar    1  UNL1        0.0019
     21 C          -9.5146   -6.2582   29.2307 C.ar    1  UNL1        0.0295
     22 C         -10.3259   -5.3166   29.8619 C.ar    1  UNL1        0.1424
     23 F         -10.0737   -3.9931   29.7110 F       1  UNL1       -0.2041
     24 C         -11.3875   -5.7387   30.6620 C.ar    1  UNL1        0.0590
     25 C         -11.6487   -7.1027   30.8268 C.ar    1  UNL1        0.1399
     26 F         -12.6559   -7.4708   31.6575 F       1  UNL1       -0.2044
     27 C         -11.9035  -10.0765   32.7664 C.3     1  UNL1        0.1207
     28 C         -12.4932  -11.4608   32.7809 C.ar    1  UNL1       -0.0021
     29 C         -13.3622  -11.8704   31.7593 C.ar    1  UNL1       -0.0026
     30 C         -13.8424  -13.1807   31.7286 C.ar    1  UNL1       -0.0001
     31 C         -13.4496  -14.0968   32.7073 C.ar    1  UNL1        0.0064
     32 C         -12.5718  -13.7077   33.7345 C.ar    1  UNL1        0.0752
     33 C         -12.1047  -12.3823   33.7676 C.ar    1  UNL1        0.0038
     34 C         -12.1283  -14.6804   34.7572 C.2     1  UNL1        0.3380
     35 O         -12.9504  -15.4867   35.2708 O.2     1  UNL1       -0.2451
     36 O         -10.7955  -14.7177   35.1591 O.3     1  UNL1       -0.4771
     37 H         -10.4804  -15.3823   35.8557 H       1  UNL1        0.2954
@<TRIPOS>BOND
     1    14    15    1
     2    15    16    2
     3    15     4    1
     4     4     5   ar
     5     5     1    1
     6     1     2    2
     7     1     3   am
     8     3    27    1
     9    27    28    1
    10    28    29   ar
    11    29    30   ar
    12    30    31   ar
    13    31    32   ar
    14    32    34    1
    15    34    35    2
    16    34    36    1
    17    32    33   ar
    18     3    17    1
    19    17    18    1
    20    17    19    1
    21    19    20   ar
    22    20    21   ar
    23    21    22   ar
    24    22    23    1
    25    22    24   ar
    26    24    25   ar
    27    25    26    1
    28     5     6   ar
    29     6     7   ar
    30     7     8   ar
    31     8     9   ar
    32     9    10   ar
    33    10    11   ar
    34    11    12   ar
    35    12    13   ar
    36    13     4   ar
    37    33    28   ar
    38    25    19   ar
    39    13     8   ar
    40    36    37    1
@<TRIPOS>MOLECULE
*****
 37 40 0 0 0
SMALL
GASTEIGER

@<TRIPOS>ATOM
      1 C         -10.7955   -9.8509   32.1334 C.2     1  UNL1        0.2673
      2 O         -11.6217   -9.7733   33.0835 O.2     1  UNL1       -0.2682
      3 N         -10.8040  -11.0240   31.2688 N.am    1  UNL1       -0.2685
      4 C         -10.0920   -7.6755   31.0529 C.ar    1  UNL1        0.0569
      5 C          -9.8463   -8.7269   31.9697 C.ar    1  UNL1        0.1374
      6 N          -8.6743   -8.7587   32.6555 N.ar    1  UNL1       -0.2392
      7 C          -7.7221   -7.8037   32.5279 C.ar    1  UNL1        0.0990
      8 C          -7.9154   -6.7340   31.6515 C.ar    1  UNL1        0.0193
      9 C          -6.9341   -5.7397   31.5182 C.ar    1  UNL1        0.0015
     10 C          -7.1345   -4.6691   30.6460 C.ar    1  UNL1        0.0000
     11 C          -8.3128   -4.5815   29.9045 C.ar    1  UNL1        0.0000
     12 C          -9.2978   -5.5652   30.0271 C.ar    1  UNL1        0.0002
     13 C          -9.1131   -6.6614   30.8983 C.ar    1  UNL1        0.0059
     14 C         -12.6176   -7.1347   30.8954 C.3     1  UNL1        0.0773
     15 C         -11.3521   -7.6365   30.2764 C.2     1  UNL1        0.1751
     16 O         -11.3613   -8.0503   29.0862 O.2     1  UNL1       -0.2913
     17 C          -9.8829  -11.2175   30.1173 C.3     1  UNL1        0.1007
     18 C         -10.1165  -12.5721   29.4211 C.3     1  UNL1        0.0265
     19 C          -8.4152  -10.9540   30.4599 C.ar    1  UNL1        0.0234
     20 C          -7.7682  -11.5996   31.5382 C.ar    1  UNL1        0.0019
     21 C          -6.4445  -11.2966   31.8649 C.ar    1  UNL1        0.0295
     22 C          -5.7457  -10.3343   31.1379 C.ar    1  UNL1        0.1424
     23 F          -4.4622  -10.0395   31.4601 F       1  UNL1       -0.2041
     24 C          -6.3743   -9.6636   30.0889 C.ar    1  UNL1        0.0590
     25 C          -7.7002   -9.9585   29.7559 C.ar    1  UNL1        0.1399
     26 F          -8.2908   -9.2441   28.7657 F       1  UNL1       -0.2044
     27 C         -11.7780  -12.0973   31.5503 C.3     1  UNL1        0.1207
     28 C         -11.4428  -12.7781   32.8496 C.ar    1  UNL1       -0.0021
     29 C         -12.1690  -13.9028   33.2671 C.ar    1  UNL1       -0.0026
     30 C         -11.8040  -14.5830   34.4301 C.ar    1  UNL1       -0.0001
     31 C         -10.7043  -14.1565   35.1785 C.ar    1  UNL1        0.0064
     32 C          -9.9581  -13.0364   34.7714 C.ar    1  UNL1        0.0752
     33 C         -10.3412  -12.3474   33.6075 C.ar    1  UNL1        0.0038
     34 C          -8.7747  -12.5969   35.5428 C.2     1  UNL1        0.3380
     35 O          -8.6058  -12.9857   36.7301 O.2     1  UNL1       -0.2451
     36 O          -7.8323  -11.7520   34.9618 O.3     1  UNL1       -0.4771
     37 H          -7.0164  -11.4482   35.4796 H       1  UNL1        0.2954
@<TRIPOS>BOND
     1    14    15    1
     2    15    16    2
     3    15     4    1
     4     4     5   ar
     5     5     1    1
     6     1     2    2
     7     1     3   am
     8     3    27    1
     9    27    28    1
    10    28    29   ar
    11    29    30   ar
    12    30    31   ar
    13    31    32   ar
    14    32    34    1
    15    34    35    2
    16    34    36    1
    17    32    33   ar
    18     3    17    1
    19    17    18    1
    20    17    19    1
    21    19    20   ar
    22    20    21   ar
    23    21    22   ar
    24    22    23    1
    25    22    24   ar
    26    24    25   ar
    27    25    26    1
    28     5     6   ar
    29     6     7   ar
    30     7     8   ar
    31     8     9   ar
    32     9    10   ar
    33    10    11   ar
    34    11    12   ar
    35    12    13   ar
    36    13     4   ar
    37    33    28   ar
    38    25    19   ar
    39    13     8   ar
    40    36    37    1
@<TRIPOS>MOLECULE
*****
 37 40 0 0 0
SMALL
GASTEIGER

@<TRIPOS>ATOM
      1 C          -8.7582  -10.9465   30.9932 C.2     1  UNL1        0.2673
      2 O          -7.5741  -11.0912   31.4038 O.2     1  UNL1       -0.2682
      3 N          -9.0771   -9.8429   30.0965 N.am    1  UNL1       -0.2685
      4 C          -9.9961  -12.1279   32.8551 C.ar    1  UNL1        0.0569
      5 C          -9.7637  -11.9209   31.4732 C.ar    1  UNL1        0.1374
      6 N         -10.4112  -12.6917   30.5612 N.ar    1  UNL1       -0.2392
      7 C         -11.3065  -13.6468   30.9096 C.ar    1  UNL1        0.0990
      8 C         -11.5887  -13.8850   32.2562 C.ar    1  UNL1        0.0193
      9 C         -12.5182  -14.8704   32.6228 C.ar    1  UNL1        0.0015
     10 C         -12.8020  -15.1005   33.9696 C.ar    1  UNL1        0.0000
     11 C         -12.1644  -14.3497   34.9573 C.ar    1  UNL1        0.0000
     12 C         -11.2361  -13.3659   34.6061 C.ar    1  UNL1        0.0002
     13 C         -10.9281  -13.1210   33.2496 C.ar    1  UNL1        0.0059
     14 C          -8.2670  -11.9397   34.7710 C.3     1  UNL1        0.0773
     15 C          -9.2810  -11.3159   33.8658 C.2     1  UNL1        0.1751
     16 O          -9.5456  -10.0890   33.9770 O.2     1  UNL1       -0.2913
     17 C         -10.4336   -9.5816   29.5459 C.3     1  UNL1        0.1007
     18 C         -10.3833   -9.2334   28.0457 C.3     1  UNL1        0.0265
     19 C         -11.2466   -8.5855   30.3752 C.ar    1  UNL1        0.0234
     20 C         -11.1494   -7.1892   30.1787 C.ar    1  UNL1        0.0019
     21 C         -11.8587   -6.3001   30.9893 C.ar    1  UNL1        0.0295
     22 C         -12.6632   -6.7814   32.0210 C.ar    1  UNL1        0.1424
     23 F         -13.3473   -5.9157   32.8087 F       1  UNL1       -0.2041
     24 C         -12.7504   -8.1542   32.2516 C.ar    1  UNL1        0.0590
     25 C         -12.0419   -9.0519   31.4467 C.ar    1  UNL1        0.1399
     26 F         -12.1108  -10.3744   31.7401 F       1  UNL1       -0.2044
     27 C          -7.9950   -8.9151   29.7115 C.3     1  UNL1        0.1207
     28 C          -7.6625   -7.9977   30.8569 C.ar    1  UNL1       -0.0021
     29 C          -8.6584   -7.1960   31.4333 C.ar    1  UNL1       -0.0026
     30 C          -8.3682   -6.4081   32.5484 C.ar    1  UNL1       -0.0001
     31 C          -7.0877   -6.4235   33.1065 C.ar    1  UNL1        0.0064
     32 C          -6.0782   -7.2277   32.5484 C.ar    1  UNL1        0.0752
     33 C          -6.3738   -8.0065   31.4161 C.ar    1  UNL1        0.0038
     34 C          -4.7282   -7.2715   33.1519 C.2     1  UNL1        0.3380
     35 O          -3.7570   -6.6998   32.5866 O.2     1  UNL1       -0.2451
     36 O          -4.5183   -7.9418   34.3544 O.3     1  UNL1       -0.4771
     37 H          -3.5988   -7.9747   34.7783 H       1  UNL1        0.2954
@<TRIPOS>BOND
     1    14    15    1
     2    15    16    2
     3    15     4    1
     4     4     5   ar
     5     5     1    1
     6     1     2    2
     7     1     3   am
     8     3    27    1
     9    27    28    1
    10    28    29   ar
    11    29    30   ar
    12    30    31   ar
    13    31    32   ar
    14    32    34    1
    15    34    35    2
    16    34    36    1
    17    32    33   ar
    18     3    17    1
    19    17    18    1
    20    17    19    1
    21    19    20   ar
    22    20    21   ar
    23    21    22   ar
    24    22    23    1
    25    22    24   ar
    26    24    25   ar
    27    25    26    1
    28     5     6   ar
    29     6     7   ar
    30     7     8   ar
    31     8     9   ar
    32     9    10   ar
    33    10    11   ar
    34    11    12   ar
    35    12    13   ar
    36    13     4   ar
    37    33    28   ar
    38    25    19   ar
    39    13     8   ar
    40    36    37    1
@<TRIPOS>MOLECULE
*****
 37 40 0 0 0
SMALL
GASTEIGER

@<TRIPOS>ATOM
      1 C          -9.2685  -10.9938   30.5738 C.2     1  UNL1        0.2673
      2 O          -9.0019  -12.1052   30.0396 O.2     1  UNL1       -0.2682
      3 N         -10.6227  -10.7292   31.0425 N.am    1  UNL1       -0.2685
      4 C          -7.6202   -9.6353   31.9275 C.ar    1  UNL1        0.0569
      5 C          -8.1661  -10.0113   30.6756 C.ar    1  UNL1        0.1374
      6 N          -7.7343   -9.3969   29.5438 N.ar    1  UNL1       -0.2392
      7 C          -6.7697   -8.4458   29.5462 C.ar    1  UNL1        0.0990
      8 C          -6.1829   -8.0458   30.7485 C.ar    1  UNL1        0.0193
      9 C          -5.1804   -7.0638   30.7566 C.ar    1  UNL1        0.0015
     10 C          -4.5922   -6.6720   31.9598 C.ar    1  UNL1        0.0000
     11 C          -4.9968   -7.2570   33.1597 C.ar    1  UNL1        0.0000
     12 C          -5.9946   -8.2355   33.1660 C.ar    1  UNL1        0.0002
     13 C          -6.6088   -8.6421   31.9609 C.ar    1  UNL1        0.0059
     14 C          -7.5519  -11.5969   33.6138 C.3     1  UNL1        0.0773
     15 C          -8.0958  -10.2744   33.1755 C.2     1  UNL1        0.1751
     16 O          -8.9840   -9.7058   33.8651 O.2     1  UNL1       -0.2913
     17 C         -11.0468   -9.4605   31.6924 C.3     1  UNL1        0.1007
     18 C         -12.5747   -9.3994   31.8820 C.3     1  UNL1        0.0265
     19 C         -10.4653   -8.2112   31.0276 C.ar    1  UNL1        0.0234
     20 C          -9.8858   -7.1624   31.7774 C.ar    1  UNL1        0.0019
     21 C          -9.4156   -6.0070   31.1491 C.ar    1  UNL1        0.0295
     22 C          -9.5289   -5.8651   29.7671 C.ar    1  UNL1        0.1424
     23 F          -9.0752   -4.7406   29.1606 F       1  UNL1       -0.2041
     24 C         -10.1244   -6.8747   29.0112 C.ar    1  UNL1        0.0590
     25 C         -10.6003   -8.0341   29.6318 C.ar    1  UNL1        0.1399
     26 F         -11.2224   -8.9661   28.8673 F       1  UNL1       -0.2044
     27 C         -11.6475  -11.7758   30.8574 C.3     1  UNL1        0.1207
     28 C         -11.6121  -12.7490   32.0044 C.ar    1  UNL1       -0.0021
     29 C         -10.8765  -12.4529   33.1611 C.ar    1  UNL1       -0.0026
     30 C         -10.9116  -13.3172   34.2566 C.ar    1  UNL1       -0.0001
     31 C         -11.6908  -14.4758   34.2137 C.ar    1  UNL1        0.0064
     32 C         -12.4425  -14.7854   33.0664 C.ar    1  UNL1        0.0752
     33 C         -12.3899  -13.9181   31.9614 C.ar    1  UNL1        0.0038
     34 C         -13.2930  -15.9952   33.0250 C.2     1  UNL1        0.3380
     35 O         -14.4205  -16.0030   33.5892 O.2     1  UNL1       -0.2451
     36 O         -12.8573  -17.1369   32.3572 O.3     1  UNL1       -0.4771
     37 H         -13.4333  -17.9694   32.3193 H       1  UNL1        0.2954
@<TRIPOS>BOND
     1    14    15    1
     2    15    16    2
     3    15     4    1
     4     4     5   ar
     5     5     1    1
     6     1     2    2
     7     1     3   am
     8     3    27    1
     9    27    28    1
    10    28    29   ar
    11    29    30   ar
    12    30    31   ar
    13    31    32   ar
    14    32    34    1
    15    34    35    2
    16    34    36    1
    17    32    33   ar
    18     3    17    1
    19    17    18    1
    20    17    19    1
    21    19    20   ar
    22    20    21   ar
    23    21    22   ar
    24    22    23    1
    25    22    24   ar
    26    24    25   ar
    27    25    26    1
    28     5     6   ar
    29     6     7   ar
    30     7     8   ar
    31     8     9   ar
    32     9    10   ar
    33    10    11   ar
    34    11    12   ar
    35    12    13   ar
    36    13     4   ar
    37    33    28   ar
    38    25    19   ar
    39    13     8   ar
    40    36    37    1
@<TRIPOS>MOLECULE
*****
 37 40 0 0 0
SMALL
GASTEIGER

@<TRIPOS>ATOM
      1 C          -8.8160  -10.9264   32.0239 C.2     1  UNL1        0.2673
      2 O          -7.7245  -11.1176   32.6269 O.2     1  UNL1       -0.2682
      3 N          -9.0062   -9.7038   31.2540 N.am    1  UNL1       -0.2685
      4 C         -10.2427  -12.4778   33.4213 C.ar    1  UNL1        0.0569
      5 C          -9.8534  -11.9740   32.1559 C.ar    1  UNL1        0.1374
      6 N         -10.3755  -12.5199   31.0270 N.ar    1  UNL1       -0.2392
      7 C         -11.2883  -13.5205   31.0489 C.ar    1  UNL1        0.0990
      8 C         -11.7224  -14.0467   32.2673 C.ar    1  UNL1        0.0193
      9 C         -12.6708  -15.0807   32.2961 C.ar    1  UNL1        0.0015
     10 C         -13.1065  -15.5988   33.5163 C.ar    1  UNL1        0.0000
     11 C         -12.6028  -15.0890   34.7130 C.ar    1  UNL1        0.0000
     12 C         -11.6574  -14.0600   34.6987 C.ar    1  UNL1        0.0002
     13 C         -11.1967  -13.5254   33.4752 C.ar    1  UNL1        0.0059
     14 C          -8.9057  -12.7803   35.6161 C.3     1  UNL1        0.0773
     15 C          -9.6658  -11.9140   34.6629 C.2     1  UNL1        0.1751
     16 O          -9.8353  -10.6940   34.9283 O.2     1  UNL1       -0.2913
     17 C         -10.2456   -9.3784   30.4993 C.3     1  UNL1        0.1007
     18 C         -10.3173  -10.1424   29.1631 C.3     1  UNL1        0.0265
     19 C         -10.4948   -7.8756   30.3555 C.ar    1  UNL1        0.0234
     20 C          -9.6712   -7.0510   29.5558 C.ar    1  UNL1        0.0019
     21 C          -9.8860   -5.6726   29.4890 C.ar    1  UNL1        0.0295
     22 C         -10.9114   -5.0863   30.2292 C.ar    1  UNL1        0.1424
     23 F         -11.1148   -3.7474   30.1654 F       1  UNL1       -0.2041
     24 C         -11.7173   -5.8770   31.0481 C.ar    1  UNL1        0.0590
     25 C         -11.5082   -7.2578   31.1233 C.ar    1  UNL1        0.1399
     26 F         -12.2780   -7.9815   31.9738 F       1  UNL1       -0.2044
     27 C          -7.9095   -8.7158   31.2220 C.3     1  UNL1        0.1207
     28 C          -6.6487   -9.3528   30.7038 C.ar    1  UNL1       -0.0021
     29 C          -5.7439   -9.9546   31.5904 C.ar    1  UNL1       -0.0026
     30 C          -4.6170  -10.6177   31.1017 C.ar    1  UNL1       -0.0001
     31 C          -4.3900  -10.6986   29.7258 C.ar    1  UNL1        0.0064
     32 C          -5.2904  -10.1095   28.8205 C.ar    1  UNL1        0.0752
     33 C          -6.4148   -9.4301   29.3207 C.ar    1  UNL1        0.0038
     34 C          -5.0721  -10.2167   27.3612 C.2     1  UNL1        0.3380
     35 O          -4.1708  -10.9705   26.9039 O.2     1  UNL1       -0.2451
     36 O          -5.8646   -9.4884   26.4776 O.3     1  UNL1       -0.4771
     37 H          -5.7263   -9.5574   25.4764 H       1  UNL1        0.2954
@<TRIPOS>BOND
     1    14    15    1
     2    15    16    2
     3    15     4    1
     4     4     5   ar
     5     5     1    1
     6     1     2    2
     7     1     3   am
     8     3    27    1
     9    27    28    1
    10    28    29   ar
    11    29    30   ar
    12    30    31   ar
    13    31    32   ar
    14    32    34    1
    15    34    35    2
    16    34    36    1
    17    32    33   ar
    18     3    17    1
    19    17    18    1
    20    17    19    1
    21    19    20   ar
    22    20    21   ar
    23    21    22   ar
    24    22    23    1
    25    22    24   ar
    26    24    25   ar
    27    25    26    1
    28     5     6   ar
    29     6     7   ar
    30     7     8   ar
    31     8     9   ar
    32     9    10   ar
    33    10    11   ar
    34    11    12   ar
    35    12    13   ar
    36    13     4   ar
    37    33    28   ar
    38    25    19   ar
    39    13     8   ar
    40    36    37    1
