@<TRIPOS>MOLECULE
*****
 37 42 0 0 0
SMALL
GASTEIGER

@<TRIPOS>ATOM
      1 C          47.9196   16.4846  -25.7096 C.ar    1  UNL1        0.1095
      2 N          47.4141   17.5377  -26.3993 N.ar    1  UNL1       -0.1677
      3 N          48.4211   18.3299  -26.7431 N.ar    1  UNL1       -0.2319
      4 C          48.2613   19.6182  -27.4040 C.3     1  UNL1        0.1554
      5 C          49.5554   17.8105  -26.2514 C.ar    1  UNL1        0.1654
      6 N          50.7871   18.3715  -26.2905 N.ar    1  UNL1       -0.2050
      7 C          51.8163   17.7046  -25.6944 C.ar    1  UNL1        0.2014
      8 N          51.6044   16.4882  -25.1040 N.ar    1  UNL1       -0.2089
      9 C          50.3666   15.9066  -25.0570 C.ar    1  UNL1        0.1379
     10 C          49.3027   16.6283  -25.6193 C.ar    1  UNL1        0.0865
     11 C          46.3075   14.4891  -25.4896 C.ar    1  UNL1        0.0809
     12 C          47.0524   15.5462  -24.9865 C.ar    1  UNL1        0.0577
     13 C          46.9239   15.4593  -23.6152 C.ar    1  UNL1        0.1231
     14 N          46.1275   14.4178  -23.3076 N.ar    1  UNL1       -0.1676
     15 N          45.7643   13.8317  -24.4386 N.ar    1  UNL1       -0.2488
     16 C          44.9416   12.6268  -24.4736 C.3     1  UNL1        0.1537
     17 C          45.8309   12.8436  -31.0271 C.3     1  UNL1        0.0310
     18 C          45.9407   13.2653  -29.5922 C.ar    1  UNL1       -0.0218
     19 C          46.4271   12.3708  -28.6286 C.ar    1  UNL1       -0.0042
     20 C          46.5520   12.7696  -27.2946 C.ar    1  UNL1        0.0012
     21 C          46.2069   14.0737  -26.9081 C.ar    1  UNL1        0.0174
     22 C          45.7510   14.9775  -27.8817 C.ar    1  UNL1        0.0012
     23 C          45.6207   14.5769  -29.2139 C.ar    1  UNL1       -0.0042
     24 N          50.2351   14.5584  -24.5682 N.pl3   1  UNL1       -0.2916
     25 C          50.4602   13.3963  -25.4174 C.3     1  UNL1        0.0961
     26 C          51.1856   12.3875  -24.5307 C.3     1  UNL1        0.0654
     27 C          50.6656   12.7131  -23.0996 C.3     1  UNL1        0.0814
     28 C          50.4657   14.2372  -23.1634 C.3     1  UNL1        0.1081
     29 N          49.3674   12.0761  -22.7035 N.3     1  UNL1       -0.2723
     30 C          48.8669   12.7385  -21.4710 C.3     1  UNL1        0.0721
     31 C          47.4754   12.2338  -21.0871 C.3     1  UNL1        0.0174
     32 C          47.5190   10.7300  -20.8461 C.3     1  UNL1        0.0029
     33 C          48.0718   10.0277  -22.0810 C.3     1  UNL1        0.0174
     34 C          49.4321   10.6081  -22.4974 C.3     1  UNL1        0.0721
     35 C          52.7170   12.5827  -24.6113 C.3     1  UNL1        0.1402
     36 O          53.3338   12.1130  -23.4404 O.3     1  UNL1       -0.3819
     37 H          53.7194   11.2224  -23.6483 H       1  UNL1        0.2104
@<TRIPOS>BOND
     1    17    18    1
     2    18    19   ar
     3    19    20   ar
     4    20    21   ar
     5    21    11    1
     6    11    12   ar
     7    12     1    1
     8     1     2   ar
     9     2     3   ar
    10     3     4    1
    11     3     5   ar
    12     5     6   ar
    13     6     7   ar
    14     7     8   ar
    15     8     9   ar
    16     9    24    1
    17    24    25    1
    18    25    26    1
    19    26    35    1
    20    35    36    1
    21    26    27    1
    22    27    29    1
    23    29    30    1
    24    30    31    1
    25    31    32    1
    26    32    33    1
    27    33    34    1
    28    27    28    1
    29     9    10   ar
    30    12    13   ar
    31    13    14   ar
    32    14    15   ar
    33    15    16    1
    34    21    22   ar
    35    22    23   ar
    36    23    18   ar
    37    15    11   ar
    38    10     1   ar
    39    10     5   ar
    40    28    24    1
    41    34    29    1
    42    36    37    1
@<TRIPOS>MOLECULE
*****
 37 42 0 0 0
SMALL
GASTEIGER

@<TRIPOS>ATOM
      1 C          47.7065   12.0227  -26.9687 C.ar    1  UNL1        0.1095
      2 N          47.2004   11.2303  -27.9466 N.ar    1  UNL1       -0.1677
      3 N          46.5332   11.9978  -28.7984 N.ar    1  UNL1       -0.2319
      4 C          45.7594   11.4919  -29.9241 C.3     1  UNL1        0.1554
      5 C          46.5807   13.2626  -28.3554 C.ar    1  UNL1        0.1654
      6 N          45.9343   14.3300  -28.8809 N.ar    1  UNL1       -0.2050
      7 C          46.0745   15.5359  -28.2600 C.ar    1  UNL1        0.2014
      8 N          46.8743   15.6582  -27.1561 N.ar    1  UNL1       -0.2089
      9 C          47.5356   14.5902  -26.6133 C.ar    1  UNL1        0.1379
     10 C          47.3367   13.3420  -27.2226 C.ar    1  UNL1        0.0865
     11 C          49.4987   10.7830  -25.5975 C.ar    1  UNL1        0.0809
     12 C          48.2977   11.4616  -25.7477 C.ar    1  UNL1        0.0577
     13 C          47.8152   11.6313  -24.4658 C.ar    1  UNL1        0.1231
     14 N          48.6690   11.0675  -23.5903 N.ar    1  UNL1       -0.1676
     15 N          49.6851   10.5642  -24.2750 N.ar    1  UNL1       -0.2488
     16 C          50.8303    9.9272  -23.6328 C.3     1  UNL1        0.1537
     17 C          53.3260    9.4278  -29.7345 C.3     1  UNL1        0.0310
     18 C          52.3424    9.7695  -28.6552 C.ar    1  UNL1       -0.0218
     19 C          52.5689   10.8693  -27.8161 C.ar    1  UNL1       -0.0042
     20 C          51.6417   11.2033  -26.8245 C.ar    1  UNL1        0.0012
     21 C          50.4673   10.4513  -26.6683 C.ar    1  UNL1        0.0174
     22 C          50.2277    9.3699  -27.5320 C.ar    1  UNL1        0.0012
     23 C          51.1573    9.0328  -28.5191 C.ar    1  UNL1       -0.0042
     24 N          48.4864   14.8092  -25.5540 N.pl3   1  UNL1       -0.2916
     25 C          49.8850   15.1226  -25.8148 C.3     1  UNL1        0.0961
     26 C          50.2632   16.1661  -24.7669 C.3     1  UNL1        0.0654
     27 C          49.3412   15.8269  -23.5589 C.3     1  UNL1        0.0814
     28 C          48.0654   15.3203  -24.2535 C.3     1  UNL1        0.1081
     29 N          49.8338   14.7616  -22.6259 N.3     1  UNL1       -0.2723
     30 C          49.2493   14.9979  -21.2801 C.3     1  UNL1        0.0721
     31 C          49.5973   13.8684  -20.3099 C.3     1  UNL1        0.0174
     32 C          51.1102   13.7557  -20.1688 C.3     1  UNL1        0.0029
     33 C          51.7409   13.5571  -21.5423 C.3     1  UNL1        0.0174
     34 C          51.3104   14.6578  -22.5242 C.3     1  UNL1        0.0721
     35 C          49.9799   17.5952  -25.2839 C.3     1  UNL1        0.1402
     36 O          51.0550   18.0586  -26.0594 O.3     1  UNL1       -0.3819
     37 H          50.7921   17.9652  -27.0119 H       1  UNL1        0.2104
@<TRIPOS>BOND
     1    17    18    1
     2    18    19   ar
     3    19    20   ar
     4    20    21   ar
     5    21    11    1
     6    11    12   ar
     7    12     1    1
     8     1     2   ar
     9     2     3   ar
    10     3     4    1
    11     3     5   ar
    12     5     6   ar
    13     6     7   ar
    14     7     8   ar
    15     8     9   ar
    16     9    24    1
    17    24    25    1
    18    25    26    1
    19    26    35    1
    20    35    36    1
    21    26    27    1
    22    27    29    1
    23    29    30    1
    24    30    31    1
    25    31    32    1
    26    32    33    1
    27    33    34    1
    28    27    28    1
    29     9    10   ar
    30    12    13   ar
    31    13    14   ar
    32    14    15   ar
    33    15    16    1
    34    21    22   ar
    35    22    23   ar
    36    23    18   ar
    37    15    11   ar
    38    10     1   ar
    39    10     5   ar
    40    28    24    1
    41    34    29    1
    42    36    37    1
@<TRIPOS>MOLECULE
*****
 37 42 0 0 0
SMALL
GASTEIGER

@<TRIPOS>ATOM
      1 C          49.3692   10.6621  -26.2291 C.ar    1  UNL1        0.1095
      2 N          49.1957    9.5539  -26.9921 N.ar    1  UNL1       -0.1677
      3 N          50.3149    9.3383  -27.6707 N.ar    1  UNL1       -0.2319
      4 C          50.4748    8.2983  -28.6781 C.3     1  UNL1        0.1554
      5 C          51.1848   10.3147  -27.3740 C.ar    1  UNL1        0.1654
      6 N          52.3992   10.5169  -27.9376 N.ar    1  UNL1       -0.2050
      7 C          53.1252   11.5968  -27.5301 C.ar    1  UNL1        0.2014
      8 N          52.6433   12.4280  -26.5554 N.ar    1  UNL1       -0.2089
      9 C          51.4191   12.2372  -25.9745 C.ar    1  UNL1        0.1379
     10 C          50.6534   11.1589  -26.4434 C.ar    1  UNL1        0.0865
     11 C          47.1161   11.8992  -26.0806 C.ar    1  UNL1        0.0809
     12 C          48.2470   11.3073  -25.5365 C.ar    1  UNL1        0.0577
     13 C          48.0423   11.3221  -24.1717 C.ar    1  UNL1        0.1231
     14 N          46.8604   11.9099  -23.9051 N.ar    1  UNL1       -0.1676
     15 N          46.3023   12.2494  -25.0574 N.ar    1  UNL1       -0.2488
     16 C          44.9797   12.8601  -25.1434 C.3     1  UNL1        0.1537
     17 C          45.7613   12.4001  -31.6942 C.3     1  UNL1        0.0310
     18 C          46.0980   12.2684  -30.2388 C.ar    1  UNL1       -0.0218
     19 C          46.4622   11.0230  -29.7082 C.ar    1  UNL1       -0.0042
     20 C          46.7989   10.9027  -28.3568 C.ar    1  UNL1        0.0012
     21 C          46.7913   12.0293  -27.5202 C.ar    1  UNL1        0.0174
     22 C          46.4579   13.2814  -28.0622 C.ar    1  UNL1        0.0012
     23 C          46.1157   13.4003  -29.4116 C.ar    1  UNL1       -0.0042
     24 N          51.0365   13.0454  -24.8456 N.pl3   1  UNL1       -0.2916
     25 C          50.9888   12.5164  -23.4891 C.3     1  UNL1        0.0961
     26 C          51.5288   13.6364  -22.6037 C.3     1  UNL1        0.0654
     27 C          51.1415   14.9339  -23.3725 C.3     1  UNL1        0.0814
     28 C          51.2517   14.4888  -24.8411 C.3     1  UNL1        0.1081
     29 N          49.7576   15.4592  -23.1340 N.3     1  UNL1       -0.2723
     30 C          48.8867   14.3337  -22.7061 C.3     1  UNL1        0.0721
     31 C          47.4924   14.8209  -22.3100 C.3     1  UNL1        0.0174
     32 C          46.8342   15.5214  -23.4922 C.3     1  UNL1        0.0029
     33 C          47.7289   16.6547  -23.9809 C.3     1  UNL1        0.0174
     34 C          49.1485   16.1568  -24.2933 C.3     1  UNL1        0.0721
     35 C          53.0638   13.5299  -22.4538 C.3     1  UNL1        0.1402
     36 O          53.5458   12.3988  -23.1322 O.3     1  UNL1       -0.3819
     37 H          53.9338   12.7136  -23.9898 H       1  UNL1        0.2104
@<TRIPOS>BOND
     1    17    18    1
     2    18    19   ar
     3    19    20   ar
     4    20    21   ar
     5    21    11    1
     6    11    12   ar
     7    12     1    1
     8     1     2   ar
     9     2     3   ar
    10     3     4    1
    11     3     5   ar
    12     5     6   ar
    13     6     7   ar
    14     7     8   ar
    15     8     9   ar
    16     9    24    1
    17    24    25    1
    18    25    26    1
    19    26    35    1
    20    35    36    1
    21    26    27    1
    22    27    29    1
    23    29    30    1
    24    30    31    1
    25    31    32    1
    26    32    33    1
    27    33    34    1
    28    27    28    1
    29     9    10   ar
    30    12    13   ar
    31    13    14   ar
    32    14    15   ar
    33    15    16    1
    34    21    22   ar
    35    22    23   ar
    36    23    18   ar
    37    15    11   ar
    38    10     1   ar
    39    10     5   ar
    40    28    24    1
    41    34    29    1
    42    36    37    1
@<TRIPOS>MOLECULE
*****
 37 42 0 0 0
SMALL
GASTEIGER

@<TRIPOS>ATOM
      1 C          50.1421   14.8452  -25.5333 C.ar    1  UNL1        0.1095
      2 N          50.0129   15.6099  -26.6463 N.ar    1  UNL1       -0.1677
      3 N          49.3721   16.7225  -26.3129 N.ar    1  UNL1       -0.2319
      4 C          48.9533   17.7433  -27.2640 C.3     1  UNL1        0.1554
      5 C          49.0630   16.6587  -25.0096 C.ar    1  UNL1        0.1654
      6 N          48.3159   17.5449  -24.3097 N.ar    1  UNL1       -0.2050
      7 C          48.0744   17.2837  -22.9933 C.ar    1  UNL1        0.2014
      8 N          48.6041   16.1703  -22.3991 N.ar    1  UNL1       -0.2089
      9 C          49.3623   15.2657  -23.0914 C.ar    1  UNL1        0.1379
     10 C          49.5545   15.5111  -24.4595 C.ar    1  UNL1        0.0865
     11 C          49.8361   12.2895  -25.5934 C.ar    1  UNL1        0.0809
     12 C          50.5957   13.4506  -25.6020 C.ar    1  UNL1        0.0577
     13 C          51.8913   13.0339  -25.8310 C.ar    1  UNL1        0.1231
     14 N          51.9155   11.6914  -25.9347 N.ar    1  UNL1       -0.1676
     15 N          50.6750   11.2474  -25.7985 N.ar    1  UNL1       -0.2488
     16 C          50.3255    9.8354  -25.9157 C.3     1  UNL1        0.1537
     17 C          44.0582   12.0166  -25.2173 C.3     1  UNL1        0.0310
     18 C          45.5522   12.1014  -25.3165 C.ar    1  UNL1       -0.0218
     19 C          46.3294   12.2502  -24.1593 C.ar    1  UNL1       -0.0042
     20 C          47.7234   12.3061  -24.2477 C.ar    1  UNL1        0.0012
     21 C          48.3608   12.1981  -25.4932 C.ar    1  UNL1        0.0174
     22 C          47.5809   12.0161  -26.6470 C.ar    1  UNL1        0.0012
     23 C          46.1874   11.9662  -26.5591 C.ar    1  UNL1       -0.0042
     24 N          50.0246   14.2036  -22.3791 N.pl3   1  UNL1       -0.2916
     25 C          51.4434   13.9191  -22.5473 C.3     1  UNL1        0.0961
     26 C          51.9505   13.5738  -21.1495 C.3     1  UNL1        0.0654
     27 C          50.7047   12.9589  -20.4465 C.3     1  UNL1        0.0814
     28 C          49.5484   13.7561  -21.0743 C.3     1  UNL1        0.1081
     29 N          50.4625   11.4981  -20.6821 N.3     1  UNL1       -0.2723
     30 C          49.7190   11.3371  -21.9587 C.3     1  UNL1        0.0721
     31 C          49.5588    9.8633  -22.3339 C.3     1  UNL1        0.0174
     32 C          48.8006    9.1294  -21.2349 C.3     1  UNL1        0.0029
     33 C          49.5185    9.3154  -19.9031 C.3     1  UNL1        0.0174
     34 C          49.7427   10.8022  -19.5870 C.3     1  UNL1        0.0721
     35 C          52.4247   14.8431  -20.4053 C.3     1  UNL1        0.1402
     36 O          52.7748   14.5335  -19.0811 O.3     1  UNL1       -0.3819
     37 H          53.7654   14.4828  -19.0433 H       1  UNL1        0.2104
@<TRIPOS>BOND
     1    17    18    1
     2    18    19   ar
     3    19    20   ar
     4    20    21   ar
     5    21    11    1
     6    11    12   ar
     7    12     1    1
     8     1     2   ar
     9     2     3   ar
    10     3     4    1
    11     3     5   ar
    12     5     6   ar
    13     6     7   ar
    14     7     8   ar
    15     8     9   ar
    16     9    24    1
    17    24    25    1
    18    25    26    1
    19    26    35    1
    20    35    36    1
    21    26    27    1
    22    27    29    1
    23    29    30    1
    24    30    31    1
    25    31    32    1
    26    32    33    1
    27    33    34    1
    28    27    28    1
    29     9    10   ar
    30    12    13   ar
    31    13    14   ar
    32    14    15   ar
    33    15    16    1
    34    21    22   ar
    35    22    23   ar
    36    23    18   ar
    37    15    11   ar
    38    10     1   ar
    39    10     5   ar
    40    28    24    1
    41    34    29    1
    42    36    37    1
@<TRIPOS>MOLECULE
*****
 37 42 0 0 0
SMALL
GASTEIGER

@<TRIPOS>ATOM
      1 C          48.6817   12.8213  -21.8062 C.ar    1  UNL1        0.1095
      2 N          48.7263   12.0396  -20.6985 N.ar    1  UNL1       -0.1677
      3 N          49.9432   12.1272  -20.1779 N.ar    1  UNL1       -0.2319
      4 C          50.4058   11.3446  -19.0396 C.3     1  UNL1        0.1554
      5 C          50.6817   12.9279  -20.9600 C.ar    1  UNL1        0.1654
      6 N          52.0047   13.1874  -20.8345 N.ar    1  UNL1       -0.2050
      7 C          52.5909   14.0000  -21.7593 C.ar    1  UNL1        0.2014
      8 N          51.8463   14.5574  -22.7634 N.ar    1  UNL1       -0.2089
      9 C          50.5083   14.3069  -22.9037 C.ar    1  UNL1        0.1379
     10 C          49.9268   13.4213  -21.9836 C.ar    1  UNL1        0.0865
     11 C          47.4806   12.1304  -23.9763 C.ar    1  UNL1        0.0809
     12 C          47.5548   12.7672  -22.7457 C.ar    1  UNL1        0.0577
     13 C          46.2809   13.2410  -22.5059 C.ar    1  UNL1        0.1231
     14 N          45.4853   12.9249  -23.5454 N.ar    1  UNL1       -0.1676
     15 N          46.2095   12.2499  -24.4254 N.ar    1  UNL1       -0.2488
     16 C          45.6457   11.6984  -25.6533 C.3     1  UNL1        0.1537
     17 C          51.7503    9.1678  -26.5437 C.3     1  UNL1        0.0310
     18 C          50.6550    9.9444  -25.8758 C.ar    1  UNL1       -0.0218
     19 C          49.8817   10.8516  -26.6134 C.ar    1  UNL1       -0.0042
     20 C          48.8452   11.5593  -25.9978 C.ar    1  UNL1        0.0012
     21 C          48.5572   11.3582  -24.6392 C.ar    1  UNL1        0.0174
     22 C          49.3125   10.4244  -23.9109 C.ar    1  UNL1        0.0012
     23 C          50.3523    9.7215  -24.5250 C.ar    1  UNL1       -0.0042
     24 N          49.7472   15.0459  -23.8776 N.pl3   1  UNL1       -0.2916
     25 C          49.3592   16.4350  -23.6725 C.3     1  UNL1        0.0961
     26 C          49.5202   17.1008  -25.0366 C.3     1  UNL1        0.0654
     27 C          49.2558   15.9444  -26.0452 C.3     1  UNL1        0.0814
     28 C          49.8224   14.7241  -25.2990 C.3     1  UNL1        0.1081
     29 N          47.8207   15.6741  -26.3847 N.3     1  UNL1       -0.2723
     30 C          47.7702   14.6818  -27.4898 C.3     1  UNL1        0.0721
     31 C          46.3344   14.2528  -27.7949 C.3     1  UNL1        0.0174
     32 C          45.5058   15.4672  -28.1949 C.3     1  UNL1        0.0029
     33 C          45.5764   16.5218  -27.0965 C.3     1  UNL1        0.0174
     34 C          47.0304   16.8761  -26.7484 C.3     1  UNL1        0.0721
     35 C          50.9505   17.6604  -25.2122 C.3     1  UNL1        0.1402
     36 O          51.2467   17.8312  -26.5743 O.3     1  UNL1       -0.3819
     37 H          51.1467   18.7975  -26.7779 H       1  UNL1        0.2104
@<TRIPOS>BOND
     1    17    18    1
     2    18    19   ar
     3    19    20   ar
     4    20    21   ar
     5    21    11    1
     6    11    12   ar
     7    12     1    1
     8     1     2   ar
     9     2     3   ar
    10     3     4    1
    11     3     5   ar
    12     5     6   ar
    13     6     7   ar
    14     7     8   ar
    15     8     9   ar
    16     9    24    1
    17    24    25    1
    18    25    26    1
    19    26    35    1
    20    35    36    1
    21    26    27    1
    22    27    29    1
    23    29    30    1
    24    30    31    1
    25    31    32    1
    26    32    33    1
    27    33    34    1
    28    27    28    1
    29     9    10   ar
    30    12    13   ar
    31    13    14   ar
    32    14    15   ar
    33    15    16    1
    34    21    22   ar
    35    22    23   ar
    36    23    18   ar
    37    15    11   ar
    38    10     1   ar
    39    10     5   ar
    40    28    24    1
    41    34    29    1
    42    36    37    1
@<TRIPOS>MOLECULE
*****
 37 42 0 0 0
SMALL
GASTEIGER

@<TRIPOS>ATOM
      1 C          48.3304   12.1171  -25.6983 C.ar    1  UNL1        0.1095
      2 N          48.2027   12.1308  -27.0487 N.ar    1  UNL1       -0.1677
      3 N          46.9091   12.1426  -27.3427 N.ar    1  UNL1       -0.2319
      4 C          46.3754   12.0523  -28.6951 C.3     1  UNL1        0.1554
      5 C          46.2141   12.1023  -26.1967 C.ar    1  UNL1        0.1654
      6 N          44.8708   11.9916  -26.0671 N.ar    1  UNL1       -0.2050
      7 C          44.3499   11.9234  -24.8088 C.ar    1  UNL1        0.2014
      8 N          45.1688   11.9978  -23.7147 N.ar    1  UNL1       -0.2089
      9 C          46.5278   12.1114  -23.8279 C.ar    1  UNL1        0.1379
     10 C          47.0598   12.1193  -25.1263 C.ar    1  UNL1        0.0865
     11 C          50.6252   12.7729  -24.7322 C.ar    1  UNL1        0.0809
     12 C          49.6220   11.8672  -25.0465 C.ar    1  UNL1        0.0577
     13 C          50.0266   10.6711  -24.4893 C.ar    1  UNL1        0.1231
     14 N          51.2198   10.8408  -23.8885 N.ar    1  UNL1       -0.1676
     15 N          51.5734   12.1094  -24.0306 N.ar    1  UNL1       -0.2488
     16 C          52.7931   12.6581  -23.4466 C.3     1  UNL1        0.1537
     17 C          50.5236   18.4685  -25.8040 C.3     1  UNL1        0.0310
     18 C          50.5356   16.9948  -25.5262 C.ar    1  UNL1       -0.0218
     19 C          50.5614   16.0769  -26.5854 C.ar    1  UNL1       -0.0042
     20 C          50.5961   14.7033  -26.3283 C.ar    1  UNL1        0.0012
     21 C          50.6212   14.2285  -25.0080 C.ar    1  UNL1        0.0174
     22 C          50.6285   15.1514  -23.9493 C.ar    1  UNL1        0.0012
     23 C          50.5879   16.5242  -24.2065 C.ar    1  UNL1       -0.0042
     24 N          47.3200   12.3476  -22.6486 N.pl3   1  UNL1       -0.2916
     25 C          46.9762   13.3718  -21.6714 C.3     1  UNL1        0.0961
     26 C          47.2835   12.7475  -20.3128 C.3     1  UNL1        0.0654
     27 C          48.4458   11.7569  -20.6162 C.3     1  UNL1        0.0814
     28 C          48.1055   11.2796  -22.0386 C.3     1  UNL1        0.1081
     29 N          49.8283   12.3372  -20.6238 N.3     1  UNL1       -0.2723
     30 C          50.5314   11.9119  -19.3855 C.3     1  UNL1        0.0721
     31 C          51.9959   12.3520  -19.3913 C.3     1  UNL1        0.0174
     32 C          52.0794   13.8694  -19.4999 C.3     1  UNL1        0.0029
     33 C          51.3267   14.3379  -20.7400 C.3     1  UNL1        0.0174
     34 C          49.8823   13.8143  -20.7535 C.3     1  UNL1        0.0721
     35 C          46.0529   11.9911  -19.7620 C.3     1  UNL1        0.1402
     36 O          45.0147   11.9888  -20.7076 O.3     1  UNL1       -0.3819
     37 H          45.0158   11.0969  -21.1430 H       1  UNL1        0.2104
@<TRIPOS>BOND
     1    17    18    1
     2    18    19   ar
     3    19    20   ar
     4    20    21   ar
     5    21    11    1
     6    11    12   ar
     7    12     1    1
     8     1     2   ar
     9     2     3   ar
    10     3     4    1
    11     3     5   ar
    12     5     6   ar
    13     6     7   ar
    14     7     8   ar
    15     8     9   ar
    16     9    24    1
    17    24    25    1
    18    25    26    1
    19    26    35    1
    20    35    36    1
    21    26    27    1
    22    27    29    1
    23    29    30    1
    24    30    31    1
    25    31    32    1
    26    32    33    1
    27    33    34    1
    28    27    28    1
    29     9    10   ar
    30    12    13   ar
    31    13    14   ar
    32    14    15   ar
    33    15    16    1
    34    21    22   ar
    35    22    23   ar
    36    23    18   ar
    37    15    11   ar
    38    10     1   ar
    39    10     5   ar
    40    28    24    1
    41    34    29    1
    42    36    37    1
@<TRIPOS>MOLECULE
*****
 37 42 0 0 0
SMALL
GASTEIGER

@<TRIPOS>ATOM
      1 C          49.7533   12.3486  -21.5254 C.ar    1  UNL1        0.1095
      2 N          50.5869   11.7512  -20.6375 N.ar    1  UNL1       -0.1677
      3 N          50.0197   10.6232  -20.2305 N.ar    1  UNL1       -0.2319
      4 C          50.5669    9.7587  -19.1936 C.3     1  UNL1        0.1554
      5 C          48.8217   10.5139  -20.8229 C.ar    1  UNL1        0.1654
      6 N          47.8869    9.5621  -20.5911 N.ar    1  UNL1       -0.2050
      7 C          46.7049    9.6443  -21.2659 C.ar    1  UNL1        0.2014
      8 N          46.4930   10.6469  -22.1731 N.ar    1  UNL1       -0.2089
      9 C          47.4274   11.6155  -22.4204 C.ar    1  UNL1        0.1379
     10 C          48.6160   11.5578  -21.6768 C.ar    1  UNL1        0.0865
     11 C          50.5663   14.1603  -23.1642 C.ar    1  UNL1        0.0809
     12 C          49.9738   13.7245  -21.9877 C.ar    1  UNL1        0.0577
     13 C          49.4949   14.8668  -21.3789 C.ar    1  UNL1        0.1231
     14 N          49.7999   15.9369  -22.1373 N.ar    1  UNL1       -0.1676
     15 N          50.4386   15.5067  -23.2151 N.ar    1  UNL1       -0.2488
     16 C          50.8675   16.3999  -24.2865 C.3     1  UNL1        0.1537
     17 C          52.7682   10.7652  -27.3145 C.3     1  UNL1        0.0310
     18 C          52.1933   11.6321  -26.2341 C.ar    1  UNL1       -0.0218
     19 C          52.9725   11.9868  -25.1241 C.ar    1  UNL1       -0.0042
     20 C          52.4461   12.8137  -24.1275 C.ar    1  UNL1        0.0012
     21 C          51.1380   13.3103  -24.2345 C.ar    1  UNL1        0.0174
     22 C          50.3713   12.9798  -25.3640 C.ar    1  UNL1        0.0012
     23 C          50.8957   12.1485  -26.3571 C.ar    1  UNL1       -0.0042
     24 N          47.2148   12.5468  -23.4981 N.pl3   1  UNL1       -0.2916
     25 C          46.9298   12.1118  -24.8589 C.3     1  UNL1        0.0961
     26 C          45.8825   13.0919  -25.3810 C.3     1  UNL1        0.0654
     27 C          46.1921   14.4085  -24.6095 C.3     1  UNL1        0.0814
     28 C          46.6826   13.8827  -23.2494 C.3     1  UNL1        0.1081
     29 N          47.2565   15.2871  -25.1954 N.3     1  UNL1       -0.2723
     30 C          46.8801   16.7072  -24.9714 C.3     1  UNL1        0.0721
     31 C          47.9889   17.6601  -25.4198 C.3     1  UNL1        0.0174
     32 C          48.2727   17.4615  -26.9035 C.3     1  UNL1        0.0029
     33 C          48.6187   16.0009  -27.1694 C.3     1  UNL1        0.0174
     34 C          47.5293   15.0579  -26.6357 C.3     1  UNL1        0.0721
     35 C          44.4539   12.5958  -25.0602 C.3     1  UNL1        0.1402
     36 O          44.2230   11.3459  -25.6573 O.3     1  UNL1       -0.3819
     37 H          44.3175   10.6590  -24.9472 H       1  UNL1        0.2104
@<TRIPOS>BOND
     1    17    18    1
     2    18    19   ar
     3    19    20   ar
     4    20    21   ar
     5    21    11    1
     6    11    12   ar
     7    12     1    1
     8     1     2   ar
     9     2     3   ar
    10     3     4    1
    11     3     5   ar
    12     5     6   ar
    13     6     7   ar
    14     7     8   ar
    15     8     9   ar
    16     9    24    1
    17    24    25    1
    18    25    26    1
    19    26    35    1
    20    35    36    1
    21    26    27    1
    22    27    29    1
    23    29    30    1
    24    30    31    1
    25    31    32    1
    26    32    33    1
    27    33    34    1
    28    27    28    1
    29     9    10   ar
    30    12    13   ar
    31    13    14   ar
    32    14    15   ar
    33    15    16    1
    34    21    22   ar
    35    22    23   ar
    36    23    18   ar
    37    15    11   ar
    38    10     1   ar
    39    10     5   ar
    40    28    24    1
    41    34    29    1
    42    36    37    1
@<TRIPOS>MOLECULE
*****
 37 42 0 0 0
SMALL
GASTEIGER

@<TRIPOS>ATOM
      1 C          46.6390   12.0879  -20.9601 C.ar    1  UNL1        0.1095
      2 N          45.3423   11.9348  -20.5924 N.ar    1  UNL1       -0.1677
      3 N          45.2243   12.3057  -19.3242 N.ar    1  UNL1       -0.2319
      4 C          43.9999   12.1819  -18.5448 C.3     1  UNL1        0.1554
      5 C          46.4360   12.6602  -18.8723 C.ar    1  UNL1        0.1654
      6 N          46.7604   12.9965  -17.6014 N.ar    1  UNL1       -0.2050
      7 C          48.0638   13.2874  -17.3263 C.ar    1  UNL1        0.2014
      8 N          49.0033   13.2678  -18.3214 N.ar    1  UNL1       -0.2089
      9 C          48.6922   12.9317  -19.6109 C.ar    1  UNL1        0.1379
     10 C          47.3605   12.5747  -19.8719 C.ar    1  UNL1        0.0865
     11 C          47.3888   12.2142  -23.4199 C.ar    1  UNL1        0.0809
     12 C          47.1525   11.5489  -22.2254 C.ar    1  UNL1        0.0577
     13 C          47.6357   10.2710  -22.4212 C.ar    1  UNL1        0.1231
     14 N          48.1192   10.1647  -23.6736 N.ar    1  UNL1       -0.1676
     15 N          47.9754   11.3390  -24.2694 N.ar    1  UNL1       -0.2488
     16 C          48.4492   11.5986  -25.6250 C.3     1  UNL1        0.1537
     17 C          46.5192   17.8307  -24.5592 C.3     1  UNL1        0.0310
     18 C          46.7539   16.3771  -24.2749 C.ar    1  UNL1       -0.0218
     19 C          47.6913   15.9893  -23.3074 C.ar    1  UNL1       -0.0042
     20 C          47.8947   14.6355  -23.0245 C.ar    1  UNL1        0.0012
     21 C          47.1524   13.6508  -23.6943 C.ar    1  UNL1        0.0174
     22 C          46.1908   14.0440  -24.6394 C.ar    1  UNL1        0.0012
     23 C          45.9918   15.3969  -24.9262 C.ar    1  UNL1       -0.0042
     24 N          49.6852   13.0852  -20.6426 N.pl3   1  UNL1       -0.2916
     25 C          50.3154   14.3661  -20.9332 C.3     1  UNL1        0.0961
     26 C          51.7778   14.0363  -21.2206 C.3     1  UNL1        0.0654
     27 C          51.7227   12.5948  -21.8067 C.3     1  UNL1        0.0814
     28 C          50.5448   11.9735  -21.0364 C.3     1  UNL1        0.1081
     29 N          51.4450   12.4853  -23.2760 N.3     1  UNL1       -0.2723
     30 C          52.4645   11.5951  -23.8896 C.3     1  UNL1        0.0721
     31 C          52.1610   11.3253  -25.3639 C.3     1  UNL1        0.0174
     32 C          52.1363   12.6388  -26.1356 C.3     1  UNL1        0.0029
     33 C          51.1288   13.5896  -25.4992 C.3     1  UNL1        0.0174
     34 C          51.4036   13.7801  -23.9996 C.3     1  UNL1        0.0721
     35 C          52.6154   14.0644  -19.9216 C.3     1  UNL1        0.1402
     36 O          53.6160   13.0799  -19.9615 O.3     1  UNL1       -0.3819
     37 H          54.4682   13.5359  -20.1872 H       1  UNL1        0.2104
@<TRIPOS>BOND
     1    17    18    1
     2    18    19   ar
     3    19    20   ar
     4    20    21   ar
     5    21    11    1
     6    11    12   ar
     7    12     1    1
     8     1     2   ar
     9     2     3   ar
    10     3     4    1
    11     3     5   ar
    12     5     6   ar
    13     6     7   ar
    14     7     8   ar
    15     8     9   ar
    16     9    24    1
    17    24    25    1
    18    25    26    1
    19    26    35    1
    20    35    36    1
    21    26    27    1
    22    27    29    1
    23    29    30    1
    24    30    31    1
    25    31    32    1
    26    32    33    1
    27    33    34    1
    28    27    28    1
    29     9    10   ar
    30    12    13   ar
    31    13    14   ar
    32    14    15   ar
    33    15    16    1
    34    21    22   ar
    35    22    23   ar
    36    23    18   ar
    37    15    11   ar
    38    10     1   ar
    39    10     5   ar
    40    28    24    1
    41    34    29    1
    42    36    37    1
@<TRIPOS>MOLECULE
*****
 37 42 0 0 0
SMALL
GASTEIGER

@<TRIPOS>ATOM
      1 C          47.4584   12.1719  -22.8002 C.ar    1  UNL1        0.1095
      2 N          47.5729   11.0611  -22.0300 N.ar    1  UNL1       -0.1677
      3 N          48.3716   11.3447  -21.0095 N.ar    1  UNL1       -0.2319
      4 C          48.8184   10.3701  -20.0233 C.3     1  UNL1        0.1554
      5 C          48.7925   12.6111  -21.1404 C.ar    1  UNL1        0.1654
      6 N          49.7036   13.2464  -20.3659 N.ar    1  UNL1       -0.2050
      7 C          50.0351   14.5299  -20.6851 C.ar    1  UNL1        0.2014
      8 N          49.4338   15.1588  -21.7416 N.ar    1  UNL1       -0.2089
      9 C          48.5103   14.5320  -22.5332 C.ar    1  UNL1        0.1379
     10 C          48.2206   13.1920  -22.2343 C.ar    1  UNL1        0.0865
     11 C          47.4431   11.9800  -25.3676 C.ar    1  UNL1        0.0809
     12 C          46.8358   12.1303  -24.1291 C.ar    1  UNL1        0.0577
     13 C          45.4799   12.0963  -24.3843 C.ar    1  UNL1        0.1231
     14 N          45.2794   11.9537  -25.7083 N.ar    1  UNL1       -0.1676
     15 N          46.4639   11.8766  -26.2962 N.ar    1  UNL1       -0.2488
     16 C          46.6194   11.6590  -27.7308 C.3     1  UNL1        0.1537
     17 C          53.1094   11.4667  -26.4764 C.3     1  UNL1        0.0310
     18 C          51.6412   11.6034  -26.2031 C.ar    1  UNL1       -0.0218
     19 C          50.7935   10.4939  -26.3277 C.ar    1  UNL1       -0.0042
     20 C          49.4285   10.6139  -26.0508 C.ar    1  UNL1        0.0012
     21 C          48.8945   11.8416  -25.6304 C.ar    1  UNL1        0.0174
     22 C          49.7521   12.9430  -25.4749 C.ar    1  UNL1        0.0012
     23 C          51.1153   12.8243  -25.7573 C.ar    1  UNL1       -0.0042
     24 N          47.7953   15.2919  -23.5259 N.pl3   1  UNL1       -0.2916
     25 C          46.3778   15.6028  -23.3973 C.3     1  UNL1        0.0961
     26 C          46.2342   17.0337  -23.9092 C.3     1  UNL1        0.0654
     27 C          47.3747   17.1655  -24.9610 C.3     1  UNL1        0.0814
     28 C          48.4768   16.2753  -24.3614 C.3     1  UNL1        0.1081
     29 N          47.0631   16.6762  -26.3436 N.3     1  UNL1       -0.2723
     30 C          45.5924   16.7307  -26.5492 C.3     1  UNL1        0.0721
     31 C          45.2125   16.3777  -27.9878 C.3     1  UNL1        0.0174
     32 C          45.6972   14.9721  -28.3206 C.3     1  UNL1        0.0029
     33 C          47.1986   14.8749  -28.0753 C.3     1  UNL1        0.0174
     34 C          47.5659   15.3141  -26.6495 C.3     1  UNL1        0.0721
     35 C          46.4301   18.0522  -22.7628 C.3     1  UNL1        0.1402
     36 O          45.1921   18.3994  -22.1981 O.3     1  UNL1       -0.3819
     37 H          45.1019   17.8894  -21.3514 H       1  UNL1        0.2104
@<TRIPOS>BOND
     1    17    18    1
     2    18    19   ar
     3    19    20   ar
     4    20    21   ar
     5    21    11    1
     6    11    12   ar
     7    12     1    1
     8     1     2   ar
     9     2     3   ar
    10     3     4    1
    11     3     5   ar
    12     5     6   ar
    13     6     7   ar
    14     7     8   ar
    15     8     9   ar
    16     9    24    1
    17    24    25    1
    18    25    26    1
    19    26    35    1
    20    35    36    1
    21    26    27    1
    22    27    29    1
    23    29    30    1
    24    30    31    1
    25    31    32    1
    26    32    33    1
    27    33    34    1
    28    27    28    1
    29     9    10   ar
    30    12    13   ar
    31    13    14   ar
    32    14    15   ar
    33    15    16    1
    34    21    22   ar
    35    22    23   ar
    36    23    18   ar
    37    15    11   ar
    38    10     1   ar
    39    10     5   ar
    40    28    24    1
    41    34    29    1
    42    36    37    1
