@<TRIPOS>MOLECULE
*****
 40 44 0 0 0
SMALL
GASTEIGER

@<TRIPOS>ATOM
      1 C          49.8417   11.5078  -21.8398 C.2     1  UNL1        0.2506
      2 O          50.6923   10.6585  -22.2205 O.2     1  UNL1       -0.2699
      3 N          49.1034   12.2801  -22.8093 N.am    1  UNL1       -0.2680
      4 C          48.5739   13.6026  -22.4618 C.3     1  UNL1        0.1412
      5 C          47.1097   13.4809  -22.0450 C.3     1  UNL1        0.2268
      6 O          46.4608   12.4080  -22.7265 O.3     1  UNL1       -0.4739
      7 C          46.4673   12.2874  -24.1191 C.ar    1  UNL1        0.1362
      8 C          45.2448   12.3697  -24.7918 C.ar    1  UNL1        0.0366
      9 C          45.1914   12.2870  -26.1828 C.ar    1  UNL1        0.0031
     10 C          46.3654   12.1043  -26.9297 C.ar    1  UNL1       -0.0000
     11 C          47.5925   11.9935  -26.2530 C.ar    1  UNL1        0.0004
     12 C          47.6637   12.0841  -24.8517 C.ar    1  UNL1        0.0317
     13 C          49.0107   11.8151  -24.2005 C.3     1  UNL1        0.1236
     14 C          46.3109   12.0143  -28.4109 C.ar    1  UNL1        0.0015
     15 C          46.5524   10.7749  -29.0677 C.ar    1  UNL1        0.0016
     16 C          46.5024   10.6801  -30.4712 C.ar    1  UNL1        0.0206
     17 C          46.2100   11.8351  -31.1885 C.ar    1  UNL1        0.0985
     18 N          46.1096   11.9728  -32.5228 N.ar    1  UNL1       -0.2241
     19 C          45.8085   13.2903  -32.6683 C.ar    1  UNL1        0.1750
     20 N          45.7210   13.9580  -31.4928 N.ar    1  UNL1       -0.3349
     21 C          45.9783   13.0241  -30.5697 C.ar    1  UNL1        0.0757
     22 C          46.0177   13.1635  -29.1854 C.ar    1  UNL1        0.0185
     23 H          45.5032   14.9684  -31.3449 H       1  UNL1        0.1675
     24 C          50.6125   12.1493  -19.5323 C.ar    1  UNL1        0.0503
     25 C          50.3207   12.2861  -18.1642 C.ar    1  UNL1        0.0325
     26 C          49.0486   11.9865  -17.6517 C.ar    1  UNL1        0.1053
     27 C          48.0193   11.5759  -18.5368 C.ar    1  UNL1        0.0243
     28 C          48.3321   11.3840  -19.8939 C.ar    1  UNL1        0.0052
     29 C          49.6051   11.6748  -20.3952 C.ar    1  UNL1        0.0665
     30 S          48.8018   12.1549  -15.9024 S.O2    1  UNL1        0.0103
     31 C          50.3772   12.2212  -15.0766 C.3     1  UNL1        0.1816
     32 O          48.0050   13.3924  -15.5975 O.2     1  UNL1       -0.1686
     33 O          48.0376   10.9698  -15.3809 O.2     1  UNL1       -0.1686
     34 C          46.6194   11.2556  -18.0559 C.3     1  UNL1        0.1649
     35 O          45.6848   12.1454  -18.6053 O.3     1  UNL1       -0.3772
     36 H          44.7936   11.8390  -18.2935 H       1  UNL1        0.2109
     37 N          51.9180   12.4898  -20.0502 N.pl3   1  UNL1       -0.3325
     38 H          52.5501   11.7281  -20.3829 H       1  UNL1        0.1468
     39 C          52.4794   14.2336  -21.6946 C.3     1  UNL1        0.0229
     40 C          52.4093   13.8589  -20.2171 C.3     1  UNL1        0.0871
@<TRIPOS>BOND
     1    39    40    1
     2    40    37    1
     3    37    24    1
     4    24    25   ar
     5    25    26   ar
     6    26    30    1
     7    30    31    1
     8    30    32    2
     9    30    33    2
    10    26    27   ar
    11    27    34    1
    12    34    35    1
    13    27    28   ar
    14    28    29   ar
    15    29     1    1
    16     1     2    2
    17     1     3   am
    18     3     4    1
    19     4     5    1
    20     5     6    1
    21     6     7    1
    22     7     8   ar
    23     8     9   ar
    24     9    10   ar
    25    10    14    1
    26    14    15   ar
    27    15    16   ar
    28    16    17   ar
    29    17    18   ar
    30    18    19   ar
    31    19    20   ar
    32    20    21   ar
    33    21    22   ar
    34    10    11   ar
    35    11    12   ar
    36    12    13    1
    37    29    24   ar
    38    13     3    1
    39    12     7   ar
    40    22    14   ar
    41    21    17   ar
    42    37    38    1
    43    35    36    1
    44    20    23    1
@<TRIPOS>MOLECULE
*****
 40 44 0 0 0
SMALL
GASTEIGER

@<TRIPOS>ATOM
      1 C          49.2140   10.8549  -21.2836 C.2     1  UNL1        0.2506
      2 O          49.4091    9.6265  -21.4901 O.2     1  UNL1       -0.2699
      3 N          49.0309   11.7573  -22.3943 N.am    1  UNL1       -0.2680
      4 C          49.3700   13.1780  -22.2642 C.3     1  UNL1        0.1412
      5 C          48.1151   13.9812  -21.9295 C.3     1  UNL1        0.2268
      6 O          46.9487   13.3883  -22.4993 O.3     1  UNL1       -0.4739
      7 C          46.8481   13.0815  -23.8593 C.ar    1  UNL1        0.1362
      8 C          45.8795   13.7494  -24.6140 C.ar    1  UNL1        0.0366
      9 C          45.7518   13.5078  -25.9814 C.ar    1  UNL1        0.0031
     10 C          46.5856   12.5768  -26.6197 C.ar    1  UNL1       -0.0000
     11 C          47.5416   11.8838  -25.8570 C.ar    1  UNL1        0.0004
     12 C          47.6887   12.1232  -24.4793 C.ar    1  UNL1        0.0317
     13 C          48.6507   11.2301  -23.7125 C.3     1  UNL1        0.1236
     14 C          46.4504   12.3166  -28.0754 C.ar    1  UNL1        0.0015
     15 C          46.6287   11.0027  -28.5929 C.ar    1  UNL1        0.0016
     16 C          46.5020   10.7467  -29.9713 C.ar    1  UNL1        0.0206
     17 C          46.1980   11.8181  -30.8040 C.ar    1  UNL1        0.0985
     18 N          46.0300   11.8024  -32.1385 N.ar    1  UNL1       -0.2241
     19 C          45.7514   13.1020  -32.4229 C.ar    1  UNL1        0.1750
     20 N          45.7416   13.9044  -31.3313 N.ar    1  UNL1       -0.3349
     21 C          46.0264   13.0772  -30.3187 C.ar    1  UNL1        0.0757
     22 C          46.1425   13.3757  -28.9641 C.ar    1  UNL1        0.0185
     23 H          45.5548   14.9309  -31.2926 H       1  UNL1        0.1675
     24 C          47.9344   11.4343  -19.1961 C.ar    1  UNL1        0.0503
     25 C          47.9482   11.9032  -17.8712 C.ar    1  UNL1        0.0325
     26 C          49.1469   12.2496  -17.2279 C.ar    1  UNL1        0.1053
     27 C          50.3782   12.0850  -17.9121 C.ar    1  UNL1        0.0243
     28 C          50.3545   11.6721  -19.2557 C.ar    1  UNL1        0.0052
     29 C          49.1549   11.3387  -19.8933 C.ar    1  UNL1        0.0665
     30 S          49.0447   12.8701  -15.5684 S.O2    1  UNL1        0.0103
     31 C          48.7035   11.5313  -14.4460 C.3     1  UNL1        0.1816
     32 O          50.3244   13.5569  -15.1810 O.2     1  UNL1       -0.1686
     33 O          47.9299   13.8738  -15.4691 O.2     1  UNL1       -0.1686
     34 C          51.7097   12.4198  -17.2727 C.3     1  UNL1        0.1649
     35 O          52.7623   12.2366  -18.1812 O.3     1  UNL1       -0.3772
     36 H          53.5871   12.5287  -17.7126 H       1  UNL1        0.2109
     37 N          46.6957   11.0534  -19.8355 N.pl3   1  UNL1       -0.3325
     38 H          46.5360   10.0517  -20.0839 H       1  UNL1        0.1468
     39 C          44.5644   11.9332  -18.9733 C.3     1  UNL1        0.0229
     40 C          45.5878   11.9722  -20.1043 C.3     1  UNL1        0.0871
@<TRIPOS>BOND
     1    39    40    1
     2    40    37    1
     3    37    24    1
     4    24    25   ar
     5    25    26   ar
     6    26    30    1
     7    30    31    1
     8    30    32    2
     9    30    33    2
    10    26    27   ar
    11    27    34    1
    12    34    35    1
    13    27    28   ar
    14    28    29   ar
    15    29     1    1
    16     1     2    2
    17     1     3   am
    18     3     4    1
    19     4     5    1
    20     5     6    1
    21     6     7    1
    22     7     8   ar
    23     8     9   ar
    24     9    10   ar
    25    10    14    1
    26    14    15   ar
    27    15    16   ar
    28    16    17   ar
    29    17    18   ar
    30    18    19   ar
    31    19    20   ar
    32    20    21   ar
    33    21    22   ar
    34    10    11   ar
    35    11    12   ar
    36    12    13    1
    37    29    24   ar
    38    13     3    1
    39    12     7   ar
    40    22    14   ar
    41    21    17   ar
    42    37    38    1
    43    35    36    1
    44    20    23    1
@<TRIPOS>MOLECULE
*****
 40 44 0 0 0
SMALL
GASTEIGER

@<TRIPOS>ATOM
      1 C          50.0156   11.7648  -21.8950 C.2     1  UNL1        0.2506
      2 O          51.0084   11.1233  -22.3339 O.2     1  UNL1       -0.2699
      3 N          49.1255   12.4385  -22.8089 N.am    1  UNL1       -0.2680
      4 C          48.3553   13.6079  -22.3734 C.3     1  UNL1        0.1412
      5 C          46.9498   13.1773  -21.9596 C.3     1  UNL1        0.2268
      6 O          46.5100   12.0441  -22.7073 O.3     1  UNL1       -0.4739
      7 C          46.5166   12.0156  -24.1048 C.ar    1  UNL1        0.1362
      8 C          45.2903   11.9008  -24.7658 C.ar    1  UNL1        0.0366
      9 C          45.2308   11.8978  -26.1590 C.ar    1  UNL1        0.0031
     10 C          46.4052   11.9948  -26.9209 C.ar    1  UNL1       -0.0000
     11 C          47.6416   12.0824  -26.2579 C.ar    1  UNL1        0.0004
     12 C          47.7173   12.0960  -24.8540 C.ar    1  UNL1        0.0317
     13 C          49.1016   12.0536  -24.2272 C.3     1  UNL1        0.1236
     14 C          46.3445   11.9900  -28.4046 C.ar    1  UNL1        0.0015
     15 C          46.5821   10.7902  -29.1325 C.ar    1  UNL1        0.0016
     16 C          46.5262   10.7763  -30.5389 C.ar    1  UNL1        0.0206
     17 C          46.2320   11.9707  -31.1875 C.ar    1  UNL1        0.0985
     18 N          46.1262   12.1849  -32.5113 N.ar    1  UNL1       -0.2241
     19 C          45.8259   13.5088  -32.5796 C.ar    1  UNL1        0.1750
     20 N          45.7440   14.1080  -31.3673 N.ar    1  UNL1       -0.3349
     21 C          46.0040   13.1224  -30.5005 C.ar    1  UNL1        0.0757
     22 C          46.0493   13.1820  -29.1106 C.ar    1  UNL1        0.0185
     23 H          45.5278   15.1084  -31.1607 H       1  UNL1        0.1675
     24 C          48.6456   11.1734  -19.8693 C.ar    1  UNL1        0.0503
     25 C          48.4764   11.2345  -18.4753 C.ar    1  UNL1        0.0325
     26 C          49.4166   11.8700  -17.6491 C.ar    1  UNL1        0.1053
     27 C          50.5862   12.4284  -18.2250 C.ar    1  UNL1        0.0243
     28 C          50.7219   12.4168  -19.6242 C.ar    1  UNL1        0.0052
     29 C          49.7753   11.7906  -20.4417 C.ar    1  UNL1        0.0665
     30 S          49.0826   11.9247  -15.9070 S.O2    1  UNL1        0.0103
     31 C          48.6828   13.5905  -15.4236 C.3     1  UNL1        0.1816
     32 O          47.9521   10.9984  -15.5559 O.2     1  UNL1       -0.1686
     33 O          50.2996   11.4835  -15.1424 O.2     1  UNL1       -0.1686
     34 C          51.6510   13.1111  -17.3920 C.3     1  UNL1        0.1649
     35 O          52.3724   12.1757  -16.6361 O.3     1  UNL1       -0.3772
     36 H          53.0821   12.6867  -16.1665 H       1  UNL1        0.2109
     37 N          47.6843   10.4899  -20.7042 N.pl3   1  UNL1       -0.3325
     38 H          46.9363   11.0425  -21.1794 H       1  UNL1        0.1468
     39 C          48.6407    8.7723  -22.1858 C.3     1  UNL1        0.0229
     40 C          47.7202    9.0570  -21.0027 C.3     1  UNL1        0.0871
@<TRIPOS>BOND
     1    39    40    1
     2    40    37    1
     3    37    24    1
     4    24    25   ar
     5    25    26   ar
     6    26    30    1
     7    30    31    1
     8    30    32    2
     9    30    33    2
    10    26    27   ar
    11    27    34    1
    12    34    35    1
    13    27    28   ar
    14    28    29   ar
    15    29     1    1
    16     1     2    2
    17     1     3   am
    18     3     4    1
    19     4     5    1
    20     5     6    1
    21     6     7    1
    22     7     8   ar
    23     8     9   ar
    24     9    10   ar
    25    10    14    1
    26    14    15   ar
    27    15    16   ar
    28    16    17   ar
    29    17    18   ar
    30    18    19   ar
    31    19    20   ar
    32    20    21   ar
    33    21    22   ar
    34    10    11   ar
    35    11    12   ar
    36    12    13    1
    37    29    24   ar
    38    13     3    1
    39    12     7   ar
    40    22    14   ar
    41    21    17   ar
    42    37    38    1
    43    35    36    1
    44    20    23    1
