@<TRIPOS>MOLECULE
*****
 45 50 0 0 0
SMALL
GASTEIGER

@<TRIPOS>ATOM
      1 C          13.3707   83.0129   24.7756 C.ar    1  UNL1        0.0702
      2 C          13.3407   83.9824   23.7664 C.ar    1  UNL1        0.0191
      3 C          13.7589   85.2876   24.0311 C.ar    1  UNL1        0.0356
      4 C          14.1965   85.6280   25.3220 C.ar    1  UNL1        0.1318
      5 N          14.1807   84.6751   26.2960 N.ar    1  UNL1       -0.2279
      6 C          13.7813   83.3981   26.0610 C.ar    1  UNL1        0.1149
      7 N          14.6694   86.9584   25.6272 N.pl3   1  UNL1       -0.2932
      8 C          13.8151   87.9186   26.3471 C.3     1  UNL1        0.0923
      9 C          14.1784   89.3724   25.9903 C.3     1  UNL1        0.0252
     10 C          14.5717   89.5076   24.5019 C.3     1  UNL1        0.0472
     11 C          15.7921   88.6051   24.1641 C.3     1  UNL1        0.0252
     12 C          15.9714   87.4221   25.1304 C.3     1  UNL1        0.0923
     13 C          13.3527   89.2475   23.5870 C.3     1  UNL1        0.2054
     14 O          13.7483   89.1146   22.2186 O.3     1  UNL1       -0.4755
     15 C          13.3770   88.0869   21.3317 C.ar    1  UNL1        0.1388
     16 C          12.1325   88.0444   20.6714 C.ar    1  UNL1        0.0369
     17 C          11.8328   86.9945   19.8023 C.ar    1  UNL1        0.0033
     18 C          12.7599   85.9744   19.5821 C.ar    1  UNL1        0.0066
     19 C          14.0017   85.9888   20.2402 C.ar    1  UNL1        0.0785
     20 C          14.2995   87.0569   21.1067 C.ar    1  UNL1        0.0433
     21 C          15.0006   84.9150   20.0175 C.2     1  UNL1        0.3381
     22 O          15.7636   84.9691   19.0164 O.2     1  UNL1       -0.2451
     23 O          15.1350   83.8422   20.8982 O.3     1  UNL1       -0.4771
     24 H          14.6298   83.7876   21.7729 H       1  UNL1        0.2954
     25 C          11.5676   81.2339   24.6313 C.2     1  UNL1        0.2839
     26 O          10.7308   81.9437   25.2518 O.2     1  UNL1       -0.2665
     27 N          12.9281   81.6747   24.4922 N.am    1  UNL1       -0.2766
     28 H          13.6541   80.9607   24.2559 H       1  UNL1        0.1553
     29 C          12.7424   78.3596   25.4245 C.3     1  UNL1        0.0345
     30 C          11.6703   78.6707   24.4238 C.ar    1  UNL1        0.0202
     31 C          11.1609   79.9277   24.0801 C.ar    1  UNL1        0.1946
     32 O          10.2229   79.7986   23.1592 O.2     1  UNL1       -0.4488
     33 C          10.0971   78.5225   22.8863 C.ar    1  UNL1        0.1504
     34 C           9.2247   77.9329   21.9760 C.ar    1  UNL1        0.0645
     35 I           7.8972   79.0985   20.8231 I       1  UNL1       -0.0393
     36 C           9.2569   76.5333   21.8434 C.ar    1  UNL1        0.0088
     37 C          10.1535   75.7484   22.6170 C.ar    1  UNL1        0.0006
     38 C          11.0246   76.3878   23.5310 C.ar    1  UNL1        0.0028
     39 C          10.9671   77.7781   23.6373 C.ar    1  UNL1        0.0341
     40 C          10.1772   74.2712   22.4682 C.ar    1  UNL1        0.0000
     41 C          11.4002   73.5747   22.4344 C.ar    1  UNL1        0.0000
     42 C          11.4195   72.1837   22.2935 C.ar    1  UNL1        0.0000
     43 C          10.2219   71.4733   22.1857 C.ar    1  UNL1        0.0000
     44 C           9.0021   72.1525   22.2181 C.ar    1  UNL1        0.0000
     45 C           8.9769   73.5436   22.3579 C.ar    1  UNL1        0.0000
@<TRIPOS>BOND
     1    29    30    1
     2    30    31   ar
     3    31    25    1
     4    25    26    2
     5    25    27   am
     6    27     1    1
     7     1     2   ar
     8     2     3   ar
     9     3     4   ar
    10     4     7    1
    11     7     8    1
    12     8     9    1
    13     9    10    1
    14    10    13    1
    15    13    14    1
    16    14    15    1
    17    15    16   ar
    18    16    17   ar
    19    17    18   ar
    20    18    19   ar
    21    19    21    1
    22    21    22    2
    23    21    23    1
    24    19    20   ar
    25    10    11    1
    26    11    12    1
    27     4     5   ar
    28     5     6   ar
    29    31    32   ar
    30    32    33   ar
    31    33    34   ar
    32    34    35    1
    33    34    36   ar
    34    36    37   ar
    35    37    40    1
    36    40    41   ar
    37    41    42   ar
    38    42    43   ar
    39    43    44   ar
    40    44    45   ar
    41    37    38   ar
    42    38    39   ar
    43    39    30   ar
    44     6     1   ar
    45    39    33   ar
    46    12     7    1
    47    45    40   ar
    48    20    15   ar
    49    27    28    1
    50    23    24    1
@<TRIPOS>MOLECULE
*****
 45 50 0 0 0
SMALL
GASTEIGER

@<TRIPOS>ATOM
      1 C           7.9139   77.5158   22.4347 C.ar    1  UNL1        0.0702
      2 C           7.4143   78.0853   21.2577 C.ar    1  UNL1        0.0191
      3 C           6.5082   77.3803   20.4637 C.ar    1  UNL1        0.0356
      4 C           6.1110   76.0876   20.8445 C.ar    1  UNL1        0.1318
      5 N           6.6407   75.5415   21.9749 N.ar    1  UNL1       -0.2279
      6 C           7.5211   76.2097   22.7648 C.ar    1  UNL1        0.1149
      7 N           5.1495   75.3393   20.0684 N.pl3   1  UNL1       -0.2932
      8 C           4.5632   75.9048   18.8410 C.3     1  UNL1        0.0923
      9 C           3.1656   75.3192   18.5637 C.3     1  UNL1        0.0252
     10 C           2.3795   75.0885   19.8740 C.3     1  UNL1        0.0472
     11 C           3.1384   74.1095   20.8139 C.3     1  UNL1        0.0252
     12 C           4.6510   74.0422   20.5438 C.3     1  UNL1        0.0923
     13 C           2.0347   76.4352   20.5508 C.3     1  UNL1        0.2054
     14 O           3.0707   76.8470   21.4473 O.3     1  UNL1       -0.4755
     15 C           2.9364   77.1119   22.8230 C.ar    1  UNL1        0.1388
     16 C           1.8993   77.8983   23.3637 C.ar    1  UNL1        0.0369
     17 C           1.8269   78.1172   24.7401 C.ar    1  UNL1        0.0033
     18 C           2.7828   77.5638   25.5937 C.ar    1  UNL1        0.0066
     19 C           3.8337   76.7877   25.0754 C.ar    1  UNL1        0.0785
     20 C           3.8928   76.5636   23.6874 C.ar    1  UNL1        0.0433
     21 C           4.8577   76.1896   25.9667 C.2     1  UNL1        0.3381
     22 O           6.0672   76.5176   25.8373 O.2     1  UNL1       -0.2451
     23 O           4.5199   75.2764   26.9651 O.3     1  UNL1       -0.4771
     24 H           3.5615   75.0467   27.1930 H       1  UNL1        0.2954
     25 C          10.2802   78.1146   23.1266 C.2     1  UNL1        0.2839
     26 O          10.7786   77.1543   22.4799 O.2     1  UNL1       -0.2665
     27 N           8.8540   78.2489   23.2384 N.am    1  UNL1       -0.2766
     28 H           8.4756   78.8478   24.0070 H       1  UNL1        0.1553
     29 C           9.4681   81.0076   24.2410 C.3     1  UNL1        0.0345
     30 C          10.8122   80.3458   24.2942 C.ar    1  UNL1        0.0202
     31 C          11.1623   79.0824   23.8055 C.ar    1  UNL1        0.1946
     32 O          12.4407   78.8461   24.0391 O.2     1  UNL1       -0.4488
     33 C          12.9394   79.8913   24.6537 C.ar    1  UNL1        0.1504
     34 C          14.2487   80.0729   25.0895 C.ar    1  UNL1        0.0645
     35 I          15.7156   78.5867   24.7904 I       1  UNL1       -0.0393
     36 C          14.5677   81.2817   25.7334 C.ar    1  UNL1        0.0088
     37 C          13.5808   82.2844   25.9316 C.ar    1  UNL1        0.0006
     38 C          12.2610   82.0598   25.4725 C.ar    1  UNL1        0.0028
     39 C          11.9787   80.8497   24.8372 C.ar    1  UNL1        0.0341
     40 C          13.9301   83.5562   26.6137 C.ar    1  UNL1        0.0000
     41 C          14.1353   83.5887   28.0061 C.ar    1  UNL1        0.0000
     42 C          14.4634   84.7880   28.6459 C.ar    1  UNL1        0.0000
     43 C          14.5909   85.9654   27.9057 C.ar    1  UNL1        0.0000
     44 C          14.3900   85.9463   26.5238 C.ar    1  UNL1        0.0000
     45 C          14.0608   84.7501   25.8789 C.ar    1  UNL1        0.0000
@<TRIPOS>BOND
     1    29    30    1
     2    30    31   ar
     3    31    25    1
     4    25    26    2
     5    25    27   am
     6    27     1    1
     7     1     2   ar
     8     2     3   ar
     9     3     4   ar
    10     4     7    1
    11     7     8    1
    12     8     9    1
    13     9    10    1
    14    10    13    1
    15    13    14    1
    16    14    15    1
    17    15    16   ar
    18    16    17   ar
    19    17    18   ar
    20    18    19   ar
    21    19    21    1
    22    21    22    2
    23    21    23    1
    24    19    20   ar
    25    10    11    1
    26    11    12    1
    27     4     5   ar
    28     5     6   ar
    29    31    32   ar
    30    32    33   ar
    31    33    34   ar
    32    34    35    1
    33    34    36   ar
    34    36    37   ar
    35    37    40    1
    36    40    41   ar
    37    41    42   ar
    38    42    43   ar
    39    43    44   ar
    40    44    45   ar
    41    37    38   ar
    42    38    39   ar
    43    39    30   ar
    44     6     1   ar
    45    39    33   ar
    46    12     7    1
    47    45    40   ar
    48    20    15   ar
    49    27    28    1
    50    23    24    1
@<TRIPOS>MOLECULE
*****
 45 50 0 0 0
SMALL
GASTEIGER

@<TRIPOS>ATOM
      1 C          13.4525   83.1565   24.7650 C.ar    1  UNL1        0.0702
      2 C          13.6764   83.4679   26.1112 C.ar    1  UNL1        0.0191
      3 C          14.1534   84.7290   26.4724 C.ar    1  UNL1        0.0356
      4 C          14.4227   85.6811   25.4749 C.ar    1  UNL1        0.1318
      5 N          14.2318   85.3402   24.1695 N.ar    1  UNL1       -0.2279
      6 C          13.7654   84.1207   23.7945 C.ar    1  UNL1        0.1149
      7 N          14.8846   87.0082   25.8100 N.pl3   1  UNL1       -0.2932
      8 C          13.9526   88.0263   26.3247 C.3     1  UNL1        0.0923
      9 C          14.4315   89.4504   25.9847 C.3     1  UNL1        0.0252
     10 C          15.0926   89.5062   24.5890 C.3     1  UNL1        0.0472
     11 C          16.3174   88.5512   24.5143 C.3     1  UNL1        0.0252
     12 C          16.2722   87.4075   25.5416 C.3     1  UNL1        0.0923
     13 C          14.0500   89.2441   23.4777 C.3     1  UNL1        0.2054
     14 O          14.5073   88.2463   22.5602 O.3     1  UNL1       -0.4755
     15 C          13.7662   87.6597   21.5174 C.ar    1  UNL1        0.1388
     16 C          12.4702   88.0792   21.1557 C.ar    1  UNL1        0.0369
     17 C          11.7947   87.4522   20.1078 C.ar    1  UNL1        0.0033
     18 C          12.3935   86.4012   19.4110 C.ar    1  UNL1        0.0066
     19 C          13.6796   85.9570   19.7633 C.ar    1  UNL1        0.0785
     20 C          14.3575   86.6020   20.8143 C.ar    1  UNL1        0.0433
     21 C          14.3333   84.8431   19.0334 C.2     1  UNL1        0.3381
     22 O          15.5782   84.8673   18.8414 O.2     1  UNL1       -0.2451
     23 O          13.6089   83.7496   18.5599 O.3     1  UNL1       -0.4771
     24 H          12.6281   83.6138   18.7667 H       1  UNL1        0.2954
     25 C          13.4257   80.6320   25.0159 C.2     1  UNL1        0.2839
     26 O          14.4621   80.6302   25.7334 O.2     1  UNL1       -0.2665
     27 N          12.9702   81.8506   24.4058 N.am    1  UNL1       -0.2766
     28 H          12.3153   81.7788   23.5942 H       1  UNL1        0.1553
     29 C          14.4990   78.0746   23.4101 C.3     1  UNL1        0.0345
     30 C          13.1639   78.2535   24.0680 C.ar    1  UNL1        0.0202
     31 C          12.6992   79.3726   24.7676 C.ar    1  UNL1        0.1946
     32 O          11.4717   79.1547   25.2041 O.2     1  UNL1       -0.4488
     33 C          11.1147   77.9521   24.8234 C.ar    1  UNL1        0.1504
     34 C           9.9031   77.3115   25.0662 C.ar    1  UNL1        0.0645
     35 I           8.3632   78.2617   26.1507 I       1  UNL1       -0.0393
     36 C           9.7328   76.0097   24.5624 C.ar    1  UNL1        0.0088
     37 C          10.7683   75.3710   23.8287 C.ar    1  UNL1        0.0006
     38 C          11.9850   76.0581   23.6036 C.ar    1  UNL1        0.0028
     39 C          12.1206   77.3487   24.1169 C.ar    1  UNL1        0.0341
     40 C          10.5765   73.9958   23.3026 C.ar    1  UNL1        0.0000
     41 C           9.3798   73.6386   22.6526 C.ar    1  UNL1        0.0000
     42 C           9.2016   72.3425   22.1589 C.ar    1  UNL1        0.0000
     43 C          10.2128   71.3907   22.3070 C.ar    1  UNL1        0.0000
     44 C          11.4046   71.7327   22.9497 C.ar    1  UNL1        0.0000
     45 C          11.5879   73.0269   23.4462 C.ar    1  UNL1        0.0000
@<TRIPOS>BOND
     1    29    30    1
     2    30    31   ar
     3    31    25    1
     4    25    26    2
     5    25    27   am
     6    27     1    1
     7     1     2   ar
     8     2     3   ar
     9     3     4   ar
    10     4     7    1
    11     7     8    1
    12     8     9    1
    13     9    10    1
    14    10    13    1
    15    13    14    1
    16    14    15    1
    17    15    16   ar
    18    16    17   ar
    19    17    18   ar
    20    18    19   ar
    21    19    21    1
    22    21    22    2
    23    21    23    1
    24    19    20   ar
    25    10    11    1
    26    11    12    1
    27     4     5   ar
    28     5     6   ar
    29    31    32   ar
    30    32    33   ar
    31    33    34   ar
    32    34    35    1
    33    34    36   ar
    34    36    37   ar
    35    37    40    1
    36    40    41   ar
    37    41    42   ar
    38    42    43   ar
    39    43    44   ar
    40    44    45   ar
    41    37    38   ar
    42    38    39   ar
    43    39    30   ar
    44     6     1   ar
    45    39    33   ar
    46    12     7    1
    47    45    40   ar
    48    20    15   ar
    49    27    28    1
    50    23    24    1
@<TRIPOS>MOLECULE
*****
 45 50 0 0 0
SMALL
GASTEIGER

@<TRIPOS>ATOM
      1 C          13.0477   82.7027   25.1194 C.ar    1  UNL1        0.0702
      2 C          13.5919   83.1375   26.3335 C.ar    1  UNL1        0.0191
      3 C          14.1596   84.4086   26.4358 C.ar    1  UNL1        0.0356
      4 C          14.1959   85.2454   25.3078 C.ar    1  UNL1        0.1318
      5 N          13.6930   84.7841   24.1284 N.ar    1  UNL1       -0.2279
      6 C          13.1329   83.5525   24.0059 C.ar    1  UNL1        0.1149
      7 N          14.7435   86.5801   25.3815 N.pl3   1  UNL1       -0.2932
      8 C          14.1660   87.5860   26.2896 C.3     1  UNL1        0.0923
      9 C          14.3982   89.0159   25.7658 C.3     1  UNL1        0.0252
     10 C          14.2948   89.0772   24.2251 C.3     1  UNL1        0.0472
     11 C          15.3415   88.1400   23.5588 C.3     1  UNL1        0.0252
     12 C          15.8188   86.9989   24.4729 C.3     1  UNL1        0.0923
     13 C          12.8468   88.7967   23.7613 C.3     1  UNL1        0.2054
     14 O          12.7441   87.5229   23.1182 O.3     1  UNL1       -0.4755
     15 C          12.6891   87.2822   21.7327 C.ar    1  UNL1        0.1388
     16 C          11.8486   87.9954   20.8544 C.ar    1  UNL1        0.0369
     17 C          11.8482   87.7043   19.4895 C.ar    1  UNL1        0.0033
     18 C          12.6762   86.7018   18.9817 C.ar    1  UNL1        0.0066
     19 C          13.5126   85.9683   19.8408 C.ar    1  UNL1        0.0785
     20 C          13.5140   86.2757   21.2140 C.ar    1  UNL1        0.0433
     21 C          14.4010   84.9007   19.3197 C.2     1  UNL1        0.3381
     22 O          15.6384   84.9489   19.5515 O.2     1  UNL1       -0.2451
     23 O          13.9039   83.8244   18.5855 O.3     1  UNL1       -0.4771
     24 H          12.9139   83.6669   18.4500 H       1  UNL1        0.2954
     25 C          11.2950   80.9744   25.7338 C.2     1  UNL1        0.2839
     26 O          10.8404   81.6793   26.6748 O.2     1  UNL1       -0.2665
     27 N          12.4747   81.3875   25.0251 N.am    1  UNL1       -0.2766
     28 H          12.9969   80.6661   24.4779 H       1  UNL1        0.1553
     29 C           9.6469   80.3282   23.0623 C.3     1  UNL1        0.0345
     30 C           9.9189   79.4139   24.2188 C.ar    1  UNL1        0.0202
     31 C          10.6387   79.7007   25.3838 C.ar    1  UNL1        0.1946
     32 O          10.6645   78.6406   26.1713 O.2     1  UNL1       -0.4488
     33 C           9.9980   77.6800   25.5783 C.ar    1  UNL1        0.1504
     34 C           9.7733   76.3895   26.0487 C.ar    1  UNL1        0.0645
     35 I          10.5218   75.7626   27.9187 I       1  UNL1       -0.0393
     36 C           9.0266   75.5137   25.2405 C.ar    1  UNL1        0.0088
     37 C           8.5191   75.9369   23.9828 C.ar    1  UNL1        0.0006
     38 C           8.7699   77.2582   23.5419 C.ar    1  UNL1        0.0028
     39 C           9.5138   78.1013   24.3687 C.ar    1  UNL1        0.0341
     40 C           7.7327   75.0023   23.1383 C.ar    1  UNL1        0.0000
     41 C           6.3253   75.0335   23.1559 C.ar    1  UNL1        0.0000
     42 C           5.5874   74.1517   22.3602 C.ar    1  UNL1        0.0000
     43 C           6.2434   73.2315   21.5396 C.ar    1  UNL1        0.0000
     44 C           7.6391   73.1908   21.5131 C.ar    1  UNL1        0.0000
     45 C           8.3821   74.0695   22.3073 C.ar    1  UNL1        0.0000
@<TRIPOS>BOND
     1    29    30    1
     2    30    31   ar
     3    31    25    1
     4    25    26    2
     5    25    27   am
     6    27     1    1
     7     1     2   ar
     8     2     3   ar
     9     3     4   ar
    10     4     7    1
    11     7     8    1
    12     8     9    1
    13     9    10    1
    14    10    13    1
    15    13    14    1
    16    14    15    1
    17    15    16   ar
    18    16    17   ar
    19    17    18   ar
    20    18    19   ar
    21    19    21    1
    22    21    22    2
    23    21    23    1
    24    19    20   ar
    25    10    11    1
    26    11    12    1
    27     4     5   ar
    28     5     6   ar
    29    31    32   ar
    30    32    33   ar
    31    33    34   ar
    32    34    35    1
    33    34    36   ar
    34    36    37   ar
    35    37    40    1
    36    40    41   ar
    37    41    42   ar
    38    42    43   ar
    39    43    44   ar
    40    44    45   ar
    41    37    38   ar
    42    38    39   ar
    43    39    30   ar
    44     6     1   ar
    45    39    33   ar
    46    12     7    1
    47    45    40   ar
    48    20    15   ar
    49    27    28    1
    50    23    24    1
