@<TRIPOS>MOLECULE
*****
 29 32 0 0 0
SMALL
GASTEIGER

@<TRIPOS>ATOM
      1 C         -21.9972   -7.6376  -10.3213 C.3     1  UNL1        0.0773
      2 C         -21.0551   -7.3023   -9.1424 C.3     1  UNL1        0.0292
      3 C         -20.3814   -8.5831   -8.6301 C.3     1  UNL1        0.0826
      4 C         -19.4957   -9.2329   -9.7184 C.3     1  UNL1        0.0309
      5 C         -19.9367   -8.8926  -11.1544 C.3     1  UNL1        0.0954
      6 N         -21.3826   -8.6321  -11.2249 N.am    1  UNL1       -0.2658
      7 C         -22.2020   -9.3158  -12.1944 C.2     1  UNL1        0.3039
      8 O         -23.4136   -9.5514  -11.9331 O.2     1  UNL1       -0.2526
      9 N         -21.6625   -9.7067  -13.4648 N.am    1  UNL1       -0.2901
     10 H         -20.7529   -9.3053  -13.7848 H       1  UNL1        0.1509
     11 C         -19.5841   -8.3065   -7.3875 C.ar    1  UNL1        0.2359
     12 N         -18.7899   -9.2092   -6.7786 N.ar    1  UNL1       -0.1949
     13 C         -18.3261   -8.4896   -5.7346 C.ar    1  UNL1        0.1800
     14 N         -18.8132   -7.2336   -5.7141 N.ar    1  UNL1       -0.0606
     15 O         -19.5882   -7.1604   -6.7525 O.2     1  UNL1       -0.3374
     16 C         -17.3746   -9.0273   -4.7039 C.3     1  UNL1        0.0621
     17 C         -16.1750   -8.0890   -4.5438 C.3     1  UNL1        0.0081
     18 C         -16.9192  -10.4391   -5.0833 C.3     1  UNL1        0.0081
     19 C         -22.4461  -10.4937  -14.4109 C.3     1  UNL1        0.0774
     20 C         -21.6480  -10.9538  -15.6269 C.3     1  UNL1        0.0259
     21 C         -21.9799  -11.9416  -14.5118 C.3     1  UNL1        0.0420
     22 C         -23.0377  -12.9880  -14.8145 C.ar    1  UNL1       -0.0208
     23 C         -24.3720  -12.6805  -14.4974 C.ar    1  UNL1       -0.0042
     24 C         -25.3959  -13.5973  -14.7534 C.ar    1  UNL1       -0.0003
     25 C         -25.1010  -14.8337  -15.3300 C.ar    1  UNL1       -0.0000
     26 C         -23.7815  -15.1557  -15.6517 C.ar    1  UNL1       -0.0003
     27 C         -22.7528  -14.2430  -15.3982 C.ar    1  UNL1       -0.0042
     28 C         -21.4753   -5.1804  -10.8091 C.3     1  UNL1        0.0018
     29 C         -22.3797   -6.3731  -11.1202 C.3     1  UNL1        0.0199
@<TRIPOS>BOND
     1    28    29    1
     2    29     1    1
     3     1     2    1
     4     2     3    1
     5     3    11    1
     6    11    12   ar
     7    12    13   ar
     8    13    16    1
     9    16    17    1
    10    16    18    1
    11    13    14   ar
    12    14    15   ar
    13     3     4    1
    14     4     5    1
    15     5     6    1
    16     6     7   am
    17     7     8    2
    18     7     9   am
    19     9    19    1
    20    19    20    1
    21    20    21    1
    22    21    22    1
    23    22    23   ar
    24    23    24   ar
    25    24    25   ar
    26    25    26   ar
    27    26    27   ar
    28     6     1    1
    29    21    19    1
    30    27    22   ar
    31    15    11   ar
    32     9    10    1
@<TRIPOS>MOLECULE
*****
 29 32 0 0 0
SMALL
GASTEIGER

@<TRIPOS>ATOM
      1 C         -21.7465   -8.8729  -11.5550 C.3     1  UNL1        0.0773
      2 C         -20.9096   -8.9564  -10.2579 C.3     1  UNL1        0.0292
      3 C         -21.3497   -7.8584   -9.2795 C.3     1  UNL1        0.0826
      4 C         -22.8252   -8.0365   -8.8526 C.3     1  UNL1        0.0309
      5 C         -23.6781   -8.7928   -9.8884 C.3     1  UNL1        0.0954
      6 N         -23.1661   -8.5952  -11.2531 N.am    1  UNL1       -0.2658
      7 C         -24.0479   -8.1648  -12.3094 C.2     1  UNL1        0.3039
      8 O         -23.5907   -7.4777  -13.2637 O.2     1  UNL1       -0.2526
      9 N         -25.4344   -8.5327  -12.3023 N.am    1  UNL1       -0.2901
     10 H         -25.7636   -9.2920  -11.6651 H       1  UNL1        0.1509
     11 C         -20.4474   -7.8201   -8.0791 C.ar    1  UNL1        0.2359
     12 N         -20.6770   -8.4943   -6.9350 N.ar    1  UNL1       -0.1949
     13 C         -19.6120   -8.1233   -6.1928 C.ar    1  UNL1        0.1800
     14 N         -18.7941   -7.2762   -6.8475 N.ar    1  UNL1       -0.0606
     15 O         -19.3465   -7.1129   -8.0105 O.2     1  UNL1       -0.3374
     16 C         -19.3640   -8.5972   -4.7889 C.3     1  UNL1        0.0621
     17 C         -20.6888   -8.9241   -4.0940 C.3     1  UNL1        0.0081
     18 C         -18.5774   -7.5453   -4.0019 C.3     1  UNL1        0.0081
     19 C         -26.3607   -8.0155  -13.3039 C.3     1  UNL1        0.0774
     20 C         -27.7958   -7.8957  -12.8006 C.3     1  UNL1        0.0259
     21 C         -26.9282   -6.6480  -12.9412 C.3     1  UNL1        0.0420
     22 C         -27.2562   -5.7099  -14.0892 C.ar    1  UNL1       -0.0208
     23 C         -26.1843   -5.1802  -14.8281 C.ar    1  UNL1       -0.0042
     24 C         -26.4158   -4.3135  -15.9003 C.ar    1  UNL1       -0.0003
     25 C         -27.7213   -3.9643  -16.2493 C.ar    1  UNL1       -0.0000
     26 C         -28.7979   -4.4812  -15.5268 C.ar    1  UNL1       -0.0003
     27 C         -28.5730   -5.3487  -14.4533 C.ar    1  UNL1       -0.0042
     28 C         -21.1151  -11.3526  -11.5732 C.3     1  UNL1        0.0018
     29 C         -21.6339  -10.1677  -12.3881 C.3     1  UNL1        0.0199
@<TRIPOS>BOND
     1    28    29    1
     2    29     1    1
     3     1     2    1
     4     2     3    1
     5     3    11    1
     6    11    12   ar
     7    12    13   ar
     8    13    16    1
     9    16    17    1
    10    16    18    1
    11    13    14   ar
    12    14    15   ar
    13     3     4    1
    14     4     5    1
    15     5     6    1
    16     6     7   am
    17     7     8    2
    18     7     9   am
    19     9    19    1
    20    19    20    1
    21    20    21    1
    22    21    22    1
    23    22    23   ar
    24    23    24   ar
    25    24    25   ar
    26    25    26   ar
    27    26    27   ar
    28     6     1    1
    29    21    19    1
    30    27    22   ar
    31    15    11   ar
    32     9    10    1
@<TRIPOS>MOLECULE
*****
 29 32 0 0 0
SMALL
GASTEIGER

@<TRIPOS>ATOM
      1 C         -20.4901   -9.7202  -10.7610 C.3     1  UNL1        0.0773
      2 C         -19.7429   -9.6704   -9.4087 C.3     1  UNL1        0.0292
      3 C         -20.0097   -8.3286   -8.7123 C.3     1  UNL1        0.0826
      4 C         -21.5098   -8.1485   -8.3828 C.3     1  UNL1        0.0309
      5 C         -22.4437   -8.9464   -9.3120 C.3     1  UNL1        0.0954
      6 N         -21.8432   -9.1387  -10.6410 N.am    1  UNL1       -0.2658
      7 C         -22.5794   -8.7957  -11.8322 C.2     1  UNL1        0.3039
      8 O         -21.9580   -8.4202  -12.8641 O.2     1  UNL1       -0.2526
      9 N         -24.0094   -8.9033  -11.8666 N.am    1  UNL1       -0.2901
     10 H         -24.5048   -9.4386  -11.1189 H       1  UNL1        0.1509
     11 C         -19.1709   -8.1941   -7.4734 C.ar    1  UNL1        0.2359
     12 N         -18.6489   -9.2340   -6.7934 N.ar    1  UNL1       -0.1949
     13 C         -18.0125   -8.5975   -5.7872 C.ar    1  UNL1        0.1800
     14 N         -18.1457   -7.2585   -5.8549 N.ar    1  UNL1       -0.0606
     15 O         -18.8700   -7.0494   -6.9114 O.2     1  UNL1       -0.3374
     16 C         -17.2425   -9.3009   -4.7059 C.3     1  UNL1        0.0621
     17 C         -16.0063   -8.4862   -4.3146 C.3     1  UNL1        0.0081
     18 C         -16.8492  -10.7091   -5.1609 C.3     1  UNL1        0.0081
     19 C         -24.7751   -8.4574  -13.0257 C.3     1  UNL1        0.0774
     20 C         -25.7506   -9.5064  -13.5502 C.3     1  UNL1        0.0259
     21 C         -26.2661   -8.3212  -12.7386 C.3     1  UNL1        0.0420
     22 C         -27.0201   -7.2448  -13.4990 C.ar    1  UNL1       -0.0208
     23 C         -26.3118   -6.0899  -13.8733 C.ar    1  UNL1       -0.0042
     24 C         -26.9444   -5.0618  -14.5786 C.ar    1  UNL1       -0.0003
     25 C         -28.2931   -5.1736  -14.9200 C.ar    1  UNL1       -0.0000
     26 C         -29.0119   -6.3136  -14.5567 C.ar    1  UNL1       -0.0003
     27 C         -28.3849   -7.3454  -13.8513 C.ar    1  UNL1       -0.0042
     28 C         -19.6200  -12.1219  -10.6112 C.3     1  UNL1        0.0018
     29 C         -20.5883  -11.1623  -11.3032 C.3     1  UNL1        0.0199
@<TRIPOS>BOND
     1    28    29    1
     2    29     1    1
     3     1     2    1
     4     2     3    1
     5     3    11    1
     6    11    12   ar
     7    12    13   ar
     8    13    16    1
     9    16    17    1
    10    16    18    1
    11    13    14   ar
    12    14    15   ar
    13     3     4    1
    14     4     5    1
    15     5     6    1
    16     6     7   am
    17     7     8    2
    18     7     9   am
    19     9    19    1
    20    19    20    1
    21    20    21    1
    22    21    22    1
    23    22    23   ar
    24    23    24   ar
    25    24    25   ar
    26    25    26   ar
    27    26    27   ar
    28     6     1    1
    29    21    19    1
    30    27    22   ar
    31    15    11   ar
    32     9    10    1
@<TRIPOS>MOLECULE
*****
 29 32 0 0 0
SMALL
GASTEIGER

@<TRIPOS>ATOM
      1 C         -26.5204   -8.2895  -12.7243 C.3     1  UNL1        0.0773
      2 C         -25.6969   -9.5958  -12.6504 C.3     1  UNL1        0.0292
      3 C         -25.2320  -10.0015  -14.0561 C.3     1  UNL1        0.0826
      4 C         -24.2965   -8.9366  -14.6741 C.3     1  UNL1        0.0309
      5 C         -24.5216   -7.5201  -14.1127 C.3     1  UNL1        0.0954
      6 N         -25.9120   -7.3319  -13.6710 N.am    1  UNL1       -0.2658
      7 C         -26.6771   -6.1987  -14.1282 C.2     1  UNL1        0.3039
      8 O         -27.9297   -6.2964  -14.2436 O.2     1  UNL1       -0.2526
      9 N         -26.0335   -4.9521  -14.4269 N.am    1  UNL1       -0.2901
     10 H         -25.0540   -4.7866  -14.1042 H       1  UNL1        0.1509
     11 C         -24.5654  -11.3474  -14.0300 C.ar    1  UNL1        0.2359
     12 N         -25.0106  -12.4282  -14.7008 N.ar    1  UNL1       -0.1949
     13 C         -24.0953  -13.3545  -14.3444 C.ar    1  UNL1        0.1800
     14 N         -23.1596  -12.8633  -13.5087 N.ar    1  UNL1       -0.0606
     15 O         -23.4864  -11.6190  -13.3380 O.2     1  UNL1       -0.3374
     16 C         -24.1161  -14.7789  -14.8214 C.3     1  UNL1        0.0621
     17 C         -22.6942  -15.2628  -15.1195 C.3     1  UNL1        0.0081
     18 C         -25.0114  -14.9150  -16.0562 C.3     1  UNL1        0.0081
     19 C         -26.7772   -3.8319  -14.9931 C.3     1  UNL1        0.0774
     20 C         -25.9787   -3.0245  -16.0118 C.3     1  UNL1        0.0259
     21 C         -27.0585   -3.9950  -16.4825 C.3     1  UNL1        0.0420
     22 C         -28.3443   -3.3862  -17.0131 C.ar    1  UNL1       -0.0208
     23 C         -29.4760   -3.4185  -16.1803 C.ar    1  UNL1       -0.0042
     24 C         -30.6907   -2.8723  -16.6052 C.ar    1  UNL1       -0.0003
     25 C         -30.7914   -2.2860  -17.8678 C.ar    1  UNL1       -0.0000
     26 C         -29.6776   -2.2448  -18.7080 C.ar    1  UNL1       -0.0003
     27 C         -28.4597   -2.7893  -18.2888 C.ar    1  UNL1       -0.0042
     28 C         -26.2079   -8.5416  -10.1971 C.3     1  UNL1        0.0018
     29 C         -26.6653   -7.6300  -11.3360 C.3     1  UNL1        0.0199
@<TRIPOS>BOND
     1    28    29    1
     2    29     1    1
     3     1     2    1
     4     2     3    1
     5     3    11    1
     6    11    12   ar
     7    12    13   ar
     8    13    16    1
     9    16    17    1
    10    16    18    1
    11    13    14   ar
    12    14    15   ar
    13     3     4    1
    14     4     5    1
    15     5     6    1
    16     6     7   am
    17     7     8    2
    18     7     9   am
    19     9    19    1
    20    19    20    1
    21    20    21    1
    22    21    22    1
    23    22    23   ar
    24    23    24   ar
    25    24    25   ar
    26    25    26   ar
    27    26    27   ar
    28     6     1    1
    29    21    19    1
    30    27    22   ar
    31    15    11   ar
    32     9    10    1
@<TRIPOS>MOLECULE
*****
 29 32 0 0 0
SMALL
GASTEIGER

@<TRIPOS>ATOM
      1 C         -23.9808   -9.1159   -9.8447 C.3     1  UNL1        0.0773
      2 C         -22.8890   -9.1011   -8.7504 C.3     1  UNL1        0.0292
      3 C         -21.5731   -8.5645   -9.3311 C.3     1  UNL1        0.0826
      4 C         -21.7198   -7.1027   -9.8135 C.3     1  UNL1        0.0309
      5 C         -23.1615   -6.7252  -10.2027 C.3     1  UNL1        0.0954
      6 N         -23.9142   -7.8967  -10.6768 N.am    1  UNL1       -0.2658
      7 C         -24.6183   -7.8531  -11.9342 C.2     1  UNL1        0.3039
      8 O         -24.7702   -8.9127  -12.6020 O.2     1  UNL1       -0.2526
      9 N         -25.1728   -6.6232  -12.4215 N.am    1  UNL1       -0.2901
     10 H         -25.2693   -5.8085  -11.7750 H       1  UNL1        0.1509
     11 C         -20.4589   -8.6876   -8.3312 C.ar    1  UNL1        0.2359
     12 N         -20.4503   -8.0843   -7.1261 N.ar    1  UNL1       -0.1949
     13 C         -19.2598   -8.4917   -6.6366 C.ar    1  UNL1        0.1800
     14 N         -18.5919   -9.2875   -7.4943 N.ar    1  UNL1       -0.0606
     15 O         -19.3668   -9.3834   -8.5310 O.2     1  UNL1       -0.3374
     16 C         -18.7317   -8.0998   -5.2858 C.3     1  UNL1        0.0621
     17 C         -17.3812   -7.3917   -5.4256 C.3     1  UNL1        0.0081
     18 C         -18.6145   -9.3299   -4.3814 C.3     1  UNL1        0.0081
     19 C         -25.7917   -6.5410  -13.7401 C.3     1  UNL1        0.0774
     20 C         -27.2194   -7.0774  -13.7764 C.3     1  UNL1        0.0259
     21 C         -26.9677   -5.5722  -13.7873 C.3     1  UNL1        0.0420
     22 C         -27.2113   -4.8452  -15.0979 C.ar    1  UNL1       -0.0208
     23 C         -28.5031   -4.3467  -15.3395 C.ar    1  UNL1       -0.0042
     24 C         -28.7948   -3.6642  -16.5242 C.ar    1  UNL1       -0.0003
     25 C         -27.7999   -3.4699  -17.4837 C.ar    1  UNL1       -0.0000
     26 C         -26.5114   -3.9579  -17.2603 C.ar    1  UNL1       -0.0003
     27 C         -26.2132   -4.6413  -16.0773 C.ar    1  UNL1       -0.0042
     28 C         -25.6910  -10.6757   -8.7538 C.3     1  UNL1        0.0018
     29 C         -25.3928   -9.2561   -9.2366 C.3     1  UNL1        0.0199
@<TRIPOS>BOND
     1    28    29    1
     2    29     1    1
     3     1     2    1
     4     2     3    1
     5     3    11    1
     6    11    12   ar
     7    12    13   ar
     8    13    16    1
     9    16    17    1
    10    16    18    1
    11    13    14   ar
    12    14    15   ar
    13     3     4    1
    14     4     5    1
    15     5     6    1
    16     6     7   am
    17     7     8    2
    18     7     9   am
    19     9    19    1
    20    19    20    1
    21    20    21    1
    22    21    22    1
    23    22    23   ar
    24    23    24   ar
    25    24    25   ar
    26    25    26   ar
    27    26    27   ar
    28     6     1    1
    29    21    19    1
    30    27    22   ar
    31    15    11   ar
    32     9    10    1
@<TRIPOS>MOLECULE
*****
 29 32 0 0 0
SMALL
GASTEIGER

@<TRIPOS>ATOM
      1 C         -20.8364   -8.4726  -11.4663 C.3     1  UNL1        0.0773
      2 C         -21.5901   -9.3159  -12.5201 C.3     1  UNL1        0.0292
      3 C         -21.5332  -10.8020  -12.1392 C.3     1  UNL1        0.0826
      4 C         -22.2377  -11.0694  -10.7889 C.3     1  UNL1        0.0309
      5 C         -22.2666   -9.8434   -9.8569 C.3     1  UNL1        0.0954
      6 N         -21.1178   -8.9573  -10.0991 N.am    1  UNL1       -0.2658
      7 C         -20.2821   -8.5286   -9.0053 C.2     1  UNL1        0.3039
      8 O         -19.0627   -8.2787   -9.2116 O.2     1  UNL1       -0.2526
      9 N         -20.8277   -8.3559   -7.6899 N.am    1  UNL1       -0.2901
     10 H         -21.8636   -8.3187   -7.5617 H       1  UNL1        0.1509
     11 C         -22.1219  -11.6547  -13.2268 C.ar    1  UNL1        0.2359
     12 N         -23.3726  -12.1563  -13.2050 N.ar    1  UNL1       -0.1949
     13 C         -23.4027  -12.8385  -14.3696 C.ar    1  UNL1        0.1800
     14 N         -22.2418  -12.7560  -15.0485 N.ar    1  UNL1       -0.0606
     15 O         -21.4752  -12.0159  -14.3076 O.2     1  UNL1       -0.3374
     16 C         -24.5959  -13.6101  -14.8574 C.3     1  UNL1        0.0621
     17 C         -25.5914  -13.8319  -13.7151 C.3     1  UNL1        0.0081
     18 C         -24.1558  -14.9438  -15.4674 C.3     1  UNL1        0.0081
     19 C         -19.9745   -8.0287   -6.5526 C.3     1  UNL1        0.0774
     20 C         -20.3488   -8.7762   -5.2766 C.3     1  UNL1        0.0259
     21 C         -19.1276   -9.2066   -6.0844 C.3     1  UNL1        0.0420
     22 C         -17.7662   -8.8864   -5.4933 C.ar    1  UNL1       -0.0208
     23 C         -17.3537   -7.5428   -5.4900 C.ar    1  UNL1       -0.0042
     24 C         -16.1136   -7.1781   -4.9574 C.ar    1  UNL1       -0.0003
     25 C         -15.2686   -8.1507   -4.4206 C.ar    1  UNL1       -0.0000
     26 C         -15.6621   -9.4899   -4.4152 C.ar    1  UNL1       -0.0003
     27 C         -16.9014   -9.8611   -4.9462 C.ar    1  UNL1       -0.0042
     28 C         -22.6024   -6.7431  -12.1278 C.3     1  UNL1        0.0018
     29 C         -21.1967   -6.9752  -11.5735 C.3     1  UNL1        0.0199
@<TRIPOS>BOND
     1    28    29    1
     2    29     1    1
     3     1     2    1
     4     2     3    1
     5     3    11    1
     6    11    12   ar
     7    12    13   ar
     8    13    16    1
     9    16    17    1
    10    16    18    1
    11    13    14   ar
    12    14    15   ar
    13     3     4    1
    14     4     5    1
    15     5     6    1
    16     6     7   am
    17     7     8    2
    18     7     9   am
    19     9    19    1
    20    19    20    1
    21    20    21    1
    22    21    22    1
    23    22    23   ar
    24    23    24   ar
    25    24    25   ar
    26    25    26   ar
    27    26    27   ar
    28     6     1    1
    29    21    19    1
    30    27    22   ar
    31    15    11   ar
    32     9    10    1
@<TRIPOS>MOLECULE
*****
 29 32 0 0 0
SMALL
GASTEIGER

@<TRIPOS>ATOM
      1 C         -23.2643   -8.2550  -13.1814 C.3     1  UNL1        0.0773
      2 C         -24.2334   -7.3858  -14.0152 C.3     1  UNL1        0.0292
      3 C         -25.3414   -6.8248  -13.1129 C.3     1  UNL1        0.0826
      4 C         -24.7662   -5.8984  -12.0166 C.3     1  UNL1        0.0309
      5 C         -23.3028   -6.2117  -11.6522 C.3     1  UNL1        0.0954
      6 N         -22.9869   -7.6316  -11.8708 N.am    1  UNL1       -0.2658
      7 C         -22.3754   -8.4135  -10.8252 C.2     1  UNL1        0.3039
      8 O         -22.6037   -9.6525  -10.7570 O.2     1  UNL1       -0.2526
      9 N         -21.4876   -7.8038   -9.8777 N.am    1  UNL1       -0.2901
     10 H         -21.1028   -6.8519  -10.0694 H       1  UNL1        0.1509
     11 C         -26.3807   -6.1078  -13.9268 C.ar    1  UNL1        0.2359
     12 N         -26.1167   -5.0854  -14.7643 N.ar    1  UNL1       -0.1949
     13 C         -27.3525   -4.7973  -15.2253 C.ar    1  UNL1        0.1800
     14 N         -28.3015   -5.5938  -14.6962 N.ar    1  UNL1       -0.0606
     15 O         -27.6598   -6.3901  -13.8971 O.2     1  UNL1       -0.3374
     16 C         -27.6430   -3.7065  -16.2166 C.3     1  UNL1        0.0621
     17 C         -29.1457   -3.6300  -16.5010 C.3     1  UNL1        0.0081
     18 C         -26.8518   -3.9342  -17.5076 C.3     1  UNL1        0.0081
     19 C         -20.9479   -8.5577   -8.7512 C.3     1  UNL1        0.0774
     20 C         -19.5811   -9.1747   -9.0313 C.3     1  UNL1        0.0259
     21 C         -19.6926   -7.9274   -8.1588 C.3     1  UNL1        0.0420
     22 C         -19.4657   -8.1099   -6.6686 C.ar    1  UNL1       -0.0208
     23 C         -18.2671   -7.6177   -6.1241 C.ar    1  UNL1       -0.0042
     24 C         -17.9965   -7.7489   -4.7588 C.ar    1  UNL1       -0.0003
     25 C         -18.9197   -8.3734   -3.9187 C.ar    1  UNL1       -0.0000
     26 C         -20.1155   -8.8678   -4.4422 C.ar    1  UNL1       -0.0003
     27 C         -20.3921   -8.7395   -5.8070 C.ar    1  UNL1       -0.0042
     28 C         -22.0489   -8.2451  -15.4333 C.3     1  UNL1        0.0018
     29 C         -21.9381   -8.5058  -13.9309 C.3     1  UNL1        0.0199
@<TRIPOS>BOND
     1    28    29    1
     2    29     1    1
     3     1     2    1
     4     2     3    1
     5     3    11    1
     6    11    12   ar
     7    12    13   ar
     8    13    16    1
     9    16    17    1
    10    16    18    1
    11    13    14   ar
    12    14    15   ar
    13     3     4    1
    14     4     5    1
    15     5     6    1
    16     6     7   am
    17     7     8    2
    18     7     9   am
    19     9    19    1
    20    19    20    1
    21    20    21    1
    22    21    22    1
    23    22    23   ar
    24    23    24   ar
    25    24    25   ar
    26    25    26   ar
    27    26    27   ar
    28     6     1    1
    29    21    19    1
    30    27    22   ar
    31    15    11   ar
    32     9    10    1
@<TRIPOS>MOLECULE
*****
 29 32 0 0 0
SMALL
GASTEIGER

@<TRIPOS>ATOM
      1 C         -23.3706   -8.3417  -14.0131 C.3     1  UNL1        0.0773
      2 C         -24.3551   -7.3240  -14.6333 C.3     1  UNL1        0.0292
      3 C         -25.4017   -6.9062  -13.5907 C.3     1  UNL1        0.0826
      4 C         -24.7480   -6.1933  -12.3842 C.3     1  UNL1        0.0309
      5 C         -23.2777   -6.5920  -12.1570 C.3     1  UNL1        0.0954
      6 N         -23.0121   -7.9587  -12.6317 N.am    1  UNL1       -0.2658
      7 C         -22.3717   -8.9204  -11.7693 C.2     1  UNL1        0.3039
      8 O         -22.6304  -10.1481  -11.9021 O.2     1  UNL1       -0.2526
      9 N         -21.4220   -8.4997  -10.7800 N.am    1  UNL1       -0.2901
     10 H         -21.0211   -7.5364  -10.8262 H       1  UNL1        0.1509
     11 C         -26.4595   -6.0404  -14.2135 C.ar    1  UNL1        0.2359
     12 N         -26.2201   -5.1124  -15.1611 N.ar    1  UNL1       -0.1949
     13 C         -27.4604   -4.6203  -15.3666 C.ar    1  UNL1        0.1800
     14 N         -28.3879   -5.2122  -14.5892 N.ar    1  UNL1       -0.0606
     15 O         -27.7284   -6.0840  -13.8898 O.2     1  UNL1       -0.3374
     16 C         -27.7759   -3.5294  -16.3502 C.3     1  UNL1        0.0621
     17 C         -29.2909   -3.3880  -16.5228 C.3     1  UNL1        0.0081
     18 C         -27.0950   -3.8085  -17.6930 C.3     1  UNL1        0.0081
     19 C         -20.8486   -9.4463   -9.8293 C.3     1  UNL1        0.0774
     20 C         -19.8633  -10.4233  -10.4632 C.3     1  UNL1        0.0259
     21 C         -19.3499   -9.2542   -9.6272 C.3     1  UNL1        0.0420
     22 C         -18.7902   -9.5853   -8.2552 C.ar    1  UNL1       -0.0208
     23 C         -19.1919   -8.7829   -7.1735 C.ar    1  UNL1       -0.0042
     24 C         -18.7175   -9.0350   -5.8828 C.ar    1  UNL1       -0.0003
     25 C         -17.8355  -10.0925   -5.6550 C.ar    1  UNL1       -0.0000
     26 C         -17.4261  -10.8999   -6.7175 C.ar    1  UNL1       -0.0003
     27 C         -17.8972  -10.6529   -8.0108 C.ar    1  UNL1       -0.0042
     28 C         -22.3216   -8.1616  -16.3402 C.3     1  UNL1        0.0018
     29 C         -22.0902   -8.4844  -14.8638 C.3     1  UNL1        0.0199
@<TRIPOS>BOND
     1    28    29    1
     2    29     1    1
     3     1     2    1
     4     2     3    1
     5     3    11    1
     6    11    12   ar
     7    12    13   ar
     8    13    16    1
     9    16    17    1
    10    16    18    1
    11    13    14   ar
    12    14    15   ar
    13     3     4    1
    14     4     5    1
    15     5     6    1
    16     6     7   am
    17     7     8    2
    18     7     9   am
    19     9    19    1
    20    19    20    1
    21    20    21    1
    22    21    22    1
    23    22    23   ar
    24    23    24   ar
    25    24    25   ar
    26    25    26   ar
    27    26    27   ar
    28     6     1    1
    29    21    19    1
    30    27    22   ar
    31    15    11   ar
    32     9    10    1
@<TRIPOS>MOLECULE
*****
 29 32 0 0 0
SMALL
GASTEIGER

@<TRIPOS>ATOM
      1 C         -25.3952   -6.5217  -13.2843 C.3     1  UNL1        0.0773
      2 C         -26.5300   -5.5018  -13.5325 C.3     1  UNL1        0.0292
      3 C         -27.5343   -6.0721  -14.5438 C.3     1  UNL1        0.0826
      4 C         -28.2154   -7.3525  -14.0073 C.3     1  UNL1        0.0309
      5 C         -27.3672   -8.1115  -12.9695 C.3     1  UNL1        0.0954
      6 N         -25.9289   -7.8964  -13.1904 N.am    1  UNL1       -0.2658
      7 C         -25.0278   -9.0182  -13.2817 C.2     1  UNL1        0.3039
      8 O         -23.9874   -8.9275  -13.9897 O.2     1  UNL1       -0.2526
      9 N         -25.2862  -10.2271  -12.5542 N.am    1  UNL1       -0.2901
     10 H         -25.9946  -10.2262  -11.7867 H       1  UNL1        0.1509
     11 C         -28.5588   -5.0395  -14.9190 C.ar    1  UNL1        0.2359
     12 N         -29.8425   -5.0599  -14.5092 N.ar    1  UNL1       -0.1949
     13 C         -30.3294   -3.9556  -15.1144 C.ar    1  UNL1        0.1800
     14 N         -29.3983   -3.3125  -15.8456 N.ar    1  UNL1       -0.0606
     15 O         -28.3170   -4.0153  -15.6995 O.2     1  UNL1       -0.3374
     16 C         -31.7535   -3.4929  -14.9923 C.3     1  UNL1        0.0621
     17 C         -31.8263   -2.1991  -14.1764 C.3     1  UNL1        0.0081
     18 C         -32.6180   -4.5881  -14.3614 C.3     1  UNL1        0.0081
     19 C         -24.4438  -11.4066  -12.7212 C.3     1  UNL1        0.0774
     20 C         -25.1015  -12.6965  -12.2406 C.3     1  UNL1        0.0259
     21 C         -25.0022  -12.3994  -13.7343 C.3     1  UNL1        0.0420
     22 C         -23.9971  -13.2125  -14.5304 C.ar    1  UNL1       -0.0208
     23 C         -22.8015  -12.5809  -14.9142 C.ar    1  UNL1       -0.0042
     24 C         -21.8314  -13.2730  -15.6453 C.ar    1  UNL1       -0.0003
     25 C         -22.0422  -14.6056  -16.0026 C.ar    1  UNL1       -0.0000
     26 C         -23.2234  -15.2489  -15.6296 C.ar    1  UNL1       -0.0003
     27 C         -24.1976  -14.5622  -14.8982 C.ar    1  UNL1       -0.0042
     28 C         -23.0979   -6.0345  -12.2679 C.3     1  UNL1        0.0018
     29 C         -24.5969   -6.1837  -12.0069 C.3     1  UNL1        0.0199
@<TRIPOS>BOND
     1    28    29    1
     2    29     1    1
     3     1     2    1
     4     2     3    1
     5     3    11    1
     6    11    12   ar
     7    12    13   ar
     8    13    16    1
     9    16    17    1
    10    16    18    1
    11    13    14   ar
    12    14    15   ar
    13     3     4    1
    14     4     5    1
    15     5     6    1
    16     6     7   am
    17     7     8    2
    18     7     9   am
    19     9    19    1
    20    19    20    1
    21    20    21    1
    22    21    22    1
    23    22    23   ar
    24    23    24   ar
    25    24    25   ar
    26    25    26   ar
    27    26    27   ar
    28     6     1    1
    29    21    19    1
    30    27    22   ar
    31    15    11   ar
    32     9    10    1
