@<TRIPOS>MOLECULE
*****
 52 57 0 0 0
SMALL
GASTEIGER

@<TRIPOS>ATOM
      1 O          59.1562   91.6840    5.3988 O.2     1  UNL1       -0.2701
      2 C          59.7467   90.6468    4.9907 C.2     1  UNL1        0.2483
      3 N          60.4981   90.6863    3.7656 N.am    1  UNL1       -0.2945
      4 H          61.0798   89.8600    3.5061 H       1  UNL1        0.1501
      5 C          59.5712   89.3795    5.7321 C.ar    1  UNL1        0.0808
      6 C          60.6805   88.8080    6.3769 C.ar    1  UNL1        0.0080
      7 C          60.5315   87.6685    7.1697 C.ar    1  UNL1        0.0148
      8 C          59.2725   87.0726    7.3229 C.ar    1  UNL1        0.0502
      9 C          58.1692   87.6159    6.6483 C.ar    1  UNL1        0.0443
     10 C          58.3142   88.7564    5.8524 C.ar    1  UNL1        0.1457
     11 F          57.2324   89.2239    5.1801 F       1  UNL1       -0.2040
     12 N          59.1089   85.9327    8.1830 N.pl3   1  UNL1       -0.3040
     13 C          58.3242   84.7853    7.7094 C.3     1  UNL1        0.1123
     14 C          58.0885   83.7346    8.8073 C.3     1  UNL1        0.1136
     15 N          59.2820   83.4736    9.6385 N.pl3   1  UNL1       -0.2890
     16 C          60.3619   84.4795    9.7228 C.3     1  UNL1        0.1230
     17 C          59.7904   85.8829    9.4795 C.3     1  UNL1        0.1131
     18 C          59.3178   82.3171   10.5167 C.ar    1  UNL1        0.1318
     19 C          58.3172   82.0840   11.4810 C.ar    1  UNL1        0.0343
     20 C          58.3987   80.9625   12.3081 C.ar    1  UNL1        0.0083
     21 C          59.4829   80.0808   12.2018 C.ar    1  UNL1        0.0906
     22 C          60.4515   80.3346   11.2207 C.ar    1  UNL1        0.1041
     23 N          60.3500   81.4312   10.4251 N.ar    1  UNL1       -0.2292
     24 C          59.5552   78.8402   13.0551 C.3     1  UNL1        0.4200
     25 F          59.4093   79.1926   14.3837 F       1  UNL1       -0.1658
     26 F          60.7730   78.2036   12.8883 F       1  UNL1       -0.1658
     27 F          58.5513   77.9515   12.7111 F       1  UNL1       -0.1658
     28 C          61.4961   84.1611    8.7295 C.3     1  UNL1        0.1585
     29 O          62.0606   82.9125    9.0160 O.3     1  UNL1       -0.3802
     30 H          62.7756   82.7710    8.3423 H       1  UNL1        0.2105
     31 C          60.1836   91.6391    2.6960 C.3     1  UNL1        0.1535
     32 C          61.4391   92.3485    2.2604 C.2     1  UNL1        0.2443
     33 O          61.6757   93.5031    2.7091 O.2     1  UNL1       -0.2730
     34 N          62.3871   91.6993    1.3952 N.am    1  UNL1       -0.2825
     35 H          62.3304   90.6614    1.2912 H       1  UNL1        0.1549
     36 C          63.4749   92.3765    0.7432 C.ar    1  UNL1        0.0535
     37 C          64.7680   92.3914    1.2933 C.ar    1  UNL1        0.0353
     38 C          65.7879   93.0852    0.6370 C.ar    1  UNL1        0.1002
     39 N          65.5260   93.7525   -0.5179 N.ar    1  UNL1       -0.2422
     40 C          64.2810   93.7708   -1.0627 C.ar    1  UNL1        0.1002
     41 C          63.2326   93.0912   -0.4380 C.ar    1  UNL1        0.0353
     42 C          59.5212   90.9152    1.5080 C.3     1  UNL1        0.0569
     43 C          58.9023   91.8921    0.5480 C.ar    1  UNL1       -0.0017
     44 C          59.2181   93.2419    0.4269 C.ar    1  UNL1        0.0681
     45 N          58.3786   93.8477   -0.4436 N.ar    1  UNL1       -0.3523
     46 C          57.5265   92.8962   -0.8629 C.ar    1  UNL1        0.0563
     47 C          56.4484   93.0527   -1.7333 C.ar    1  UNL1        0.0170
     48 C          55.6490   91.9263   -2.0001 C.ar    1  UNL1        0.0015
     49 C          55.9374   90.6844   -1.3930 C.ar    1  UNL1        0.0001
     50 C          57.0324   90.5554   -0.5193 C.ar    1  UNL1        0.0012
     51 C          57.8114   91.6887   -0.2780 C.ar    1  UNL1        0.0131
     52 H          58.3772   94.8572   -0.7101 H       1  UNL1        0.1660
@<TRIPOS>BOND
     1     1     2    2
     2     2     3   am
     3     3    31    1
     4    31    42    1
     5    42    43    1
     6    43    44   ar
     7    44    45   ar
     8    45    46   ar
     9    46    47   ar
    10    47    48   ar
    11    48    49   ar
    12    49    50   ar
    13    50    51   ar
    14    31    32    1
    15    32    33    2
    16    32    34   am
    17    34    36    1
    18    36    37   ar
    19    37    38   ar
    20    38    39   ar
    21    39    40   ar
    22    40    41   ar
    23     2     5    1
    24     5     6   ar
    25     6     7   ar
    26     7     8   ar
    27     8    12    1
    28    12    13    1
    29    13    14    1
    30    14    15    1
    31    15    18    1
    32    18    19   ar
    33    19    20   ar
    34    20    21   ar
    35    21    24    1
    36    24    25    1
    37    24    26    1
    38    24    27    1
    39    21    22   ar
    40    22    23   ar
    41    15    16    1
    42    16    28    1
    43    28    29    1
    44    16    17    1
    45     8     9   ar
    46     9    10   ar
    47    10    11    1
    48    51    43   ar
    49    41    36   ar
    50    10     5   ar
    51    51    46   ar
    52    17    12    1
    53    23    18   ar
    54     3     4    1
    55    45    52    1
    56    34    35    1
    57    29    30    1
@<TRIPOS>MOLECULE
*****
 52 57 0 0 0
SMALL
GASTEIGER

@<TRIPOS>ATOM
      1 O          59.3232   86.4795   12.8417 O.2     1  UNL1       -0.2701
      2 C          59.5082   85.8522   11.7632 C.2     1  UNL1        0.2483
      3 N          59.7727   84.4393   11.7934 N.am    1  UNL1       -0.2945
      4 H          59.8006   83.9141   10.8924 H       1  UNL1        0.1501
      5 C          59.5484   86.6041   10.4906 C.ar    1  UNL1        0.0808
      6 C          60.0316   87.9230   10.4933 C.ar    1  UNL1        0.0080
      7 C          60.1795   88.6273    9.2969 C.ar    1  UNL1        0.0148
      8 C          59.8361   88.0298    8.0768 C.ar    1  UNL1        0.0502
      9 C          59.3151   86.7275    8.0729 C.ar    1  UNL1        0.0443
     10 C          59.1642   86.0189    9.2688 C.ar    1  UNL1        0.1457
     11 F          58.6141   84.7794    9.2271 F       1  UNL1       -0.2040
     12 N          60.0404   88.7345    6.8408 N.pl3   1  UNL1       -0.3040
     13 C          60.5492   88.0013    5.6745 C.3     1  UNL1        0.1123
     14 C          60.8872   88.9268    4.4937 C.3     1  UNL1        0.1136
     15 N          59.8840   89.9889    4.2723 N.pl3   1  UNL1       -0.2890
     16 C          58.9857   90.4020    5.3712 C.3     1  UNL1        0.1230
     17 C          59.6621   90.1455    6.7247 C.3     1  UNL1        0.1131
     18 C          59.8975   90.7561    3.0389 C.ar    1  UNL1        0.1318
     19 C          61.0972   91.2227    2.4660 C.ar    1  UNL1        0.0343
     20 C          61.0594   91.9631    1.2833 C.ar    1  UNL1        0.0083
     21 C          59.8331   92.2663    0.6761 C.ar    1  UNL1        0.0906
     22 C          58.6605   91.7723    1.2645 C.ar    1  UNL1        0.1041
     23 N          58.7222   91.0516    2.4144 N.ar    1  UNL1       -0.2292
     24 C          59.7835   93.0219   -0.6274 C.3     1  UNL1        0.4200
     25 F          58.6475   93.8089   -0.6543 F       1  UNL1       -0.1658
     26 F          59.7508   92.1456   -1.6984 F       1  UNL1       -0.1658
     27 F          60.8972   93.8323   -0.7650 F       1  UNL1       -0.1658
     28 C          57.6289   89.6772    5.2813 C.3     1  UNL1        0.1585
     29 O          56.8475   90.2275    4.2586 O.3     1  UNL1       -0.3802
     30 H          55.9968   89.7161    4.2547 H       1  UNL1        0.2105
     31 C          60.3839   83.7918   12.9587 C.3     1  UNL1        0.1535
     32 C          60.0224   82.3296   12.9768 C.2     1  UNL1        0.2443
     33 O          60.6657   81.5502   13.7312 O.2     1  UNL1       -0.2730
     34 N          58.9214   81.8353   12.1944 N.am    1  UNL1       -0.2825
     35 H          58.2247   82.5243   11.8320 H       1  UNL1        0.1549
     36 C          58.6610   80.4401   11.9649 C.ar    1  UNL1        0.0535
     37 C          58.0436   79.9910   10.7851 C.ar    1  UNL1        0.0353
     38 C          57.7868   78.6278   10.6179 C.ar    1  UNL1        0.1002
     39 N          58.1193   77.7453   11.5968 N.ar    1  UNL1       -0.2422
     40 C          58.7003   78.1536   12.7556 C.ar    1  UNL1        0.1002
     41 C          58.9732   79.5076   12.9639 C.ar    1  UNL1        0.0353
     42 C          61.9132   83.9795   12.9382 C.3     1  UNL1        0.0569
     43 C          62.5241   83.3607   11.7124 C.ar    1  UNL1       -0.0017
     44 C          63.2063   82.1493   11.6530 C.ar    1  UNL1        0.0681
     45 N          63.7328   81.9630   10.4211 N.ar    1  UNL1       -0.3523
     46 C          63.4016   83.0520    9.7058 C.ar    1  UNL1        0.0563
     47 C          63.7618   83.3391    8.3896 C.ar    1  UNL1        0.0170
     48 C          63.3468   84.5688    7.8470 C.ar    1  UNL1        0.0015
     49 C          62.5953   85.4768    8.6248 C.ar    1  UNL1        0.0001
     50 C          62.2453   85.1603    9.9500 C.ar    1  UNL1        0.0012
     51 C          62.6659   83.9304   10.4598 C.ar    1  UNL1        0.0131
     52 H          64.3059   81.1501   10.1031 H       1  UNL1        0.1660
@<TRIPOS>BOND
     1     1     2    2
     2     2     3   am
     3     3    31    1
     4    31    42    1
     5    42    43    1
     6    43    44   ar
     7    44    45   ar
     8    45    46   ar
     9    46    47   ar
    10    47    48   ar
    11    48    49   ar
    12    49    50   ar
    13    50    51   ar
    14    31    32    1
    15    32    33    2
    16    32    34   am
    17    34    36    1
    18    36    37   ar
    19    37    38   ar
    20    38    39   ar
    21    39    40   ar
    22    40    41   ar
    23     2     5    1
    24     5     6   ar
    25     6     7   ar
    26     7     8   ar
    27     8    12    1
    28    12    13    1
    29    13    14    1
    30    14    15    1
    31    15    18    1
    32    18    19   ar
    33    19    20   ar
    34    20    21   ar
    35    21    24    1
    36    24    25    1
    37    24    26    1
    38    24    27    1
    39    21    22   ar
    40    22    23   ar
    41    15    16    1
    42    16    28    1
    43    28    29    1
    44    16    17    1
    45     8     9   ar
    46     9    10   ar
    47    10    11    1
    48    51    43   ar
    49    41    36   ar
    50    10     5   ar
    51    51    46   ar
    52    17    12    1
    53    23    18   ar
    54     3     4    1
    55    45    52    1
    56    34    35    1
    57    29    30    1
@<TRIPOS>MOLECULE
*****
 52 57 0 0 0
SMALL
GASTEIGER

@<TRIPOS>ATOM
      1 O          61.2073   86.2286   12.0821 O.2     1  UNL1       -0.2701
      2 C          60.7947   85.6135   11.0612 C.2     1  UNL1        0.2483
      3 N          60.8391   84.1769   11.0247 N.am    1  UNL1       -0.2945
      4 H          60.3825   83.6802   10.2289 H       1  UNL1        0.1501
      5 C          60.3643   86.3891    9.8782 C.ar    1  UNL1        0.0808
      6 C          60.8134   87.7117    9.7302 C.ar    1  UNL1        0.0080
      7 C          60.5113   88.4392    8.5776 C.ar    1  UNL1        0.0148
      8 C          59.7447   87.8616    7.5567 C.ar    1  UNL1        0.0502
      9 C          59.2599   86.5552    7.7177 C.ar    1  UNL1        0.0443
     10 C          59.5591   85.8234    8.8709 C.ar    1  UNL1        0.1457
     11 F          59.0333   84.5803    9.0088 F       1  UNL1       -0.2040
     12 N          59.4804   88.5907    6.3464 N.pl3   1  UNL1       -0.3040
     13 C          58.8321   89.9057    6.4301 C.3     1  UNL1        0.1123
     14 C          58.4528   90.4685    5.0501 C.3     1  UNL1        0.1136
     15 N          59.4963   90.2643    4.0239 N.pl3   1  UNL1       -0.2890
     16 C          60.5069   89.1992    4.1950 C.3     1  UNL1        0.1230
     17 C          59.9323   88.0654    5.0551 C.3     1  UNL1        0.1131
     18 C          59.4258   90.9811    2.7626 C.ar    1  UNL1        0.1318
     19 C          60.4542   91.8466    2.3401 C.ar    1  UNL1        0.0343
     20 C          60.3380   92.5202    1.1230 C.ar    1  UNL1        0.0083
     21 C          59.1929   92.3598    0.3309 C.ar    1  UNL1        0.0906
     22 C          58.1969   91.4786    0.7742 C.ar    1  UNL1        0.1041
     23 N          58.3330   90.8319    1.9611 N.ar    1  UNL1       -0.2292
     24 C          59.0791   93.0429   -1.0081 C.3     1  UNL1        0.4200
     25 F          58.9882   92.0857   -2.0010 F       1  UNL1       -0.1658
     26 F          60.1877   93.8367   -1.2467 F       1  UNL1       -0.1658
     27 F          57.9533   93.8470   -1.0521 F       1  UNL1       -0.1658
     28 C          61.8051   89.7590    4.8081 C.3     1  UNL1        0.1585
     29 O          62.4725   90.5702    3.8829 O.3     1  UNL1       -0.3802
     30 H          63.2905   90.8966    4.3405 H       1  UNL1        0.2105
     31 C          61.8101   83.4129   11.8149 C.3     1  UNL1        0.1535
     32 C          61.2174   82.0837   12.2035 C.2     1  UNL1        0.2443
     33 O          61.9646   81.2088   12.7199 O.2     1  UNL1       -0.2730
     34 N          59.8097   81.8332   12.0472 N.am    1  UNL1       -0.2825
     35 H          59.1740   82.6520   11.9170 H       1  UNL1        0.1549
     36 C          59.2073   80.5328   12.1618 C.ar    1  UNL1        0.0535
     37 C          59.1186   79.8692   13.3973 C.ar    1  UNL1        0.0353
     38 C          58.5484   78.5949   13.4555 C.ar    1  UNL1        0.1002
     39 N          58.0964   77.9968   12.3216 N.ar    1  UNL1       -0.2422
     40 C          58.1863   78.6073   11.1106 C.ar    1  UNL1        0.1002
     41 C          58.7507   79.8809   11.0079 C.ar    1  UNL1        0.0353
     42 C          63.1172   83.2210   11.0219 C.3     1  UNL1        0.0569
     43 C          62.9135   83.4903    9.5574 C.ar    1  UNL1       -0.0017
     44 C          63.5369   84.4826    8.8070 C.ar    1  UNL1        0.0681
     45 N          63.0236   84.5223    7.5562 N.ar    1  UNL1       -0.3523
     46 C          62.0718   83.5739    7.5138 C.ar    1  UNL1        0.0563
     47 C          61.2302   83.2698    6.4444 C.ar    1  UNL1        0.0170
     48 C          60.2627   82.2661    6.6330 C.ar    1  UNL1        0.0015
     49 C          60.1546   81.6008    7.8738 C.ar    1  UNL1        0.0001
     50 C          61.0179   81.9277    8.9354 C.ar    1  UNL1        0.0012
     51 C          61.9719   82.9235    8.7173 C.ar    1  UNL1        0.0131
     52 H          63.2939   85.1790    6.7907 H       1  UNL1        0.1660
@<TRIPOS>BOND
     1     1     2    2
     2     2     3   am
     3     3    31    1
     4    31    42    1
     5    42    43    1
     6    43    44   ar
     7    44    45   ar
     8    45    46   ar
     9    46    47   ar
    10    47    48   ar
    11    48    49   ar
    12    49    50   ar
    13    50    51   ar
    14    31    32    1
    15    32    33    2
    16    32    34   am
    17    34    36    1
    18    36    37   ar
    19    37    38   ar
    20    38    39   ar
    21    39    40   ar
    22    40    41   ar
    23     2     5    1
    24     5     6   ar
    25     6     7   ar
    26     7     8   ar
    27     8    12    1
    28    12    13    1
    29    13    14    1
    30    14    15    1
    31    15    18    1
    32    18    19   ar
    33    19    20   ar
    34    20    21   ar
    35    21    24    1
    36    24    25    1
    37    24    26    1
    38    24    27    1
    39    21    22   ar
    40    22    23   ar
    41    15    16    1
    42    16    28    1
    43    28    29    1
    44    16    17    1
    45     8     9   ar
    46     9    10   ar
    47    10    11    1
    48    51    43   ar
    49    41    36   ar
    50    10     5   ar
    51    51    46   ar
    52    17    12    1
    53    23    18   ar
    54     3     4    1
    55    45    52    1
    56    34    35    1
    57    29    30    1
