@<TRIPOS>MOLECULE
*****
 37 42 0 0 0
SMALL
GASTEIGER

@<TRIPOS>ATOM
      1 C         -21.9903  -11.4221  -13.5200 C.ar    1  UNL1        0.1095
      2 N         -21.1873  -12.1951  -14.2937 N.ar    1  UNL1       -0.1677
      3 N         -21.9050  -13.2172  -14.7441 N.ar    1  UNL1       -0.2319
      4 C         -21.3669  -14.3079  -15.5458 C.3     1  UNL1        0.1554
      5 C         -23.1459  -13.1171  -14.2443 C.ar    1  UNL1        0.1654
      6 N         -24.1660  -13.9931  -14.4087 N.ar    1  UNL1       -0.2050
      7 C         -25.3566  -13.7154  -13.8007 C.ar    1  UNL1        0.2014
      8 N         -25.5122  -12.5676  -13.0687 N.ar    1  UNL1       -0.2089
      9 C         -24.4882  -11.6778  -12.9002 C.ar    1  UNL1        0.1379
     10 C         -23.2588  -11.9917  -13.4870 C.ar    1  UNL1        0.0865
     11 N         -24.7249  -10.4341  -12.2302 N.pl3   1  UNL1       -0.2902
     12 C         -24.4223  -10.2321  -10.8201 C.3     1  UNL1        0.1090
     13 C         -25.2294   -8.9953  -10.3933 C.3     1  UNL1        0.0874
     14 N         -26.4467   -9.4016   -9.6841 N.3     1  UNL1       -0.3197
     15 C         -25.5622   -8.2972  -11.7224 C.3     1  UNL1        0.0934
     16 C         -25.6605   -9.4435  -12.7343 C.3     1  UNL1        0.1095
     17 H         -26.1647   -9.9316   -8.8274 H       1  UNL1        0.1189
     18 H         -26.9220   -8.5410   -9.3278 H       1  UNL1        0.1189
     19 N         -26.7190   -7.3583  -11.6025 N.3     1  UNL1       -0.2713
     20 C         -27.9852   -7.6822  -12.2994 C.3     1  UNL1        0.0721
     21 C         -27.9673   -7.2858  -13.7902 C.3     1  UNL1        0.0174
     22 C         -27.5252   -5.8322  -13.9764 C.3     1  UNL1        0.0029
     23 C         -26.2092   -5.5668  -13.2441 C.3     1  UNL1        0.0174
     24 C         -26.3486   -5.9373  -11.7647 C.3     1  UNL1        0.0721
     25 C         -21.5094   -8.9386  -13.1043 C.ar    1  UNL1        0.0809
     26 C         -21.4939  -10.2738  -12.7466 C.ar    1  UNL1        0.0577
     27 C         -20.9550  -10.2955  -11.4734 C.ar    1  UNL1        0.1231
     28 N         -20.6727   -9.0352  -11.0862 N.ar    1  UNL1       -0.1676
     29 N         -21.0112   -8.2217  -12.0751 N.ar    1  UNL1       -0.2488
     30 C         -20.8657   -6.7716  -12.0105 C.3     1  UNL1        0.1537
     31 C         -23.7908   -6.7470  -17.9459 C.3     1  UNL1        0.0310
     32 C         -23.1851   -7.2809  -16.6820 C.ar    1  UNL1       -0.0218
     33 C         -21.8812   -7.8001  -16.6869 C.ar    1  UNL1       -0.0042
     34 C         -21.3305   -8.3330  -15.5178 C.ar    1  UNL1        0.0012
     35 C         -22.0825   -8.3668  -14.3356 C.ar    1  UNL1        0.0174
     36 C         -23.3900   -7.8612  -14.3324 C.ar    1  UNL1        0.0012
     37 C         -23.9413   -7.3281  -15.5006 C.ar    1  UNL1       -0.0042
@<TRIPOS>BOND
     1    31    32    1
     2    32    33   ar
     3    33    34   ar
     4    34    35   ar
     5    35    25    1
     6    25    26   ar
     7    26     1    1
     8     1     2   ar
     9     2     3   ar
    10     3     4    1
    11     3     5   ar
    12     5     6   ar
    13     6     7   ar
    14     7     8   ar
    15     8     9   ar
    16     9    11    1
    17    11    12    1
    18    12    13    1
    19    13    14    1
    20    13    15    1
    21    15    19    1
    22    19    20    1
    23    20    21    1
    24    21    22    1
    25    22    23    1
    26    23    24    1
    27    15    16    1
    28     9    10   ar
    29    26    27   ar
    30    27    28   ar
    31    28    29   ar
    32    29    30    1
    33    35    36   ar
    34    36    37   ar
    35    37    32   ar
    36    29    25   ar
    37    10     1   ar
    38    10     5   ar
    39    16    11    1
    40    24    19    1
    41    14    17    1
    42    14    18    1
@<TRIPOS>MOLECULE
*****
 37 42 0 0 0
SMALL
GASTEIGER

@<TRIPOS>ATOM
      1 C         -21.9421   -7.6695  -12.0046 C.ar    1  UNL1        0.1095
      2 N         -21.7042   -6.3995  -11.5906 N.ar    1  UNL1       -0.1677
      3 N         -21.9318   -6.3402  -10.2840 N.ar    1  UNL1       -0.2319
      4 C         -21.8590   -5.1192   -9.4928 C.3     1  UNL1        0.1554
      5 C         -22.3370   -7.5497   -9.8685 C.ar    1  UNL1        0.1654
      6 N         -22.7311   -7.8948   -8.6192 N.ar    1  UNL1       -0.2050
      7 C         -23.1242   -9.1841   -8.4020 C.ar    1  UNL1        0.2014
      8 N         -23.0928  -10.1013   -9.4196 N.ar    1  UNL1       -0.2089
      9 C         -22.6942   -9.7611  -10.6822 C.ar    1  UNL1        0.1379
     10 C         -22.3374   -8.4284  -10.9080 C.ar    1  UNL1        0.0865
     11 N         -22.5608  -10.7734  -11.6867 N.pl3   1  UNL1       -0.2902
     12 C         -21.2686  -11.2983  -12.1054 C.3     1  UNL1        0.1090
     13 C         -21.5126  -11.9710  -13.4660 C.3     1  UNL1        0.0874
     14 N         -21.0816  -11.0886  -14.5548 N.3     1  UNL1       -0.3197
     15 C         -23.0334  -12.1967  -13.4967 C.3     1  UNL1        0.0934
     16 C         -23.6012  -11.0424  -12.6645 C.3     1  UNL1        0.1095
     17 H         -20.0564  -10.9115  -14.4460 H       1  UNL1        0.1189
     18 H         -21.1737  -11.6103  -15.4563 H       1  UNL1        0.1189
     19 N         -23.5556  -12.3929  -14.8834 N.3     1  UNL1       -0.2713
     20 C         -25.0166  -12.3292  -15.1189 C.3     1  UNL1        0.0721
     21 C         -25.7358  -13.6526  -14.7854 C.3     1  UNL1        0.0174
     22 C         -25.0605  -14.8433  -15.4705 C.3     1  UNL1        0.0029
     23 C         -23.5595  -14.8580  -15.1790 C.3     1  UNL1        0.0174
     24 C         -22.9311  -13.5255  -15.5975 C.3     1  UNL1        0.0721
     25 C         -22.9937   -8.2206  -14.2767 C.ar    1  UNL1        0.0809
     26 C         -21.9195   -8.0686  -13.4200 C.ar    1  UNL1        0.0577
     27 C         -20.8047   -8.3233  -14.1975 C.ar    1  UNL1        0.1231
     28 N         -21.1935   -8.6030  -15.4578 N.ar    1  UNL1       -0.1676
     29 N         -22.5157   -8.5379  -15.4983 N.ar    1  UNL1       -0.2488
     30 C         -23.2965   -8.7655  -16.7094 C.3     1  UNL1        0.1537
     31 C         -28.5683   -7.2290  -13.0981 C.3     1  UNL1        0.0310
     32 C         -27.1139   -7.4762  -13.3680 C.ar    1  UNL1       -0.0218
     33 C         -26.2978   -6.4404  -13.8486 C.ar    1  UNL1       -0.0042
     34 C         -24.9511   -6.6803  -14.1368 C.ar    1  UNL1        0.0012
     35 C         -24.4099   -7.9613  -13.9626 C.ar    1  UNL1        0.0174
     36 C         -25.2270   -9.0003  -13.4958 C.ar    1  UNL1        0.0012
     37 C         -26.5734   -8.7614  -13.2073 C.ar    1  UNL1       -0.0042
@<TRIPOS>BOND
     1    31    32    1
     2    32    33   ar
     3    33    34   ar
     4    34    35   ar
     5    35    25    1
     6    25    26   ar
     7    26     1    1
     8     1     2   ar
     9     2     3   ar
    10     3     4    1
    11     3     5   ar
    12     5     6   ar
    13     6     7   ar
    14     7     8   ar
    15     8     9   ar
    16     9    11    1
    17    11    12    1
    18    12    13    1
    19    13    14    1
    20    13    15    1
    21    15    19    1
    22    19    20    1
    23    20    21    1
    24    21    22    1
    25    22    23    1
    26    23    24    1
    27    15    16    1
    28     9    10   ar
    29    26    27   ar
    30    27    28   ar
    31    28    29   ar
    32    29    30    1
    33    35    36   ar
    34    36    37   ar
    35    37    32   ar
    36    29    25   ar
    37    10     1   ar
    38    10     5   ar
    39    16    11    1
    40    24    19    1
    41    14    17    1
    42    14    18    1
@<TRIPOS>MOLECULE
*****
 37 42 0 0 0
SMALL
GASTEIGER

@<TRIPOS>ATOM
      1 C         -24.8811   -9.1532  -11.1235 C.ar    1  UNL1        0.1095
      2 N         -25.5658   -8.8119  -10.0030 N.ar    1  UNL1       -0.1677
      3 N         -26.5657   -8.0130  -10.3556 N.ar    1  UNL1       -0.2319
      4 C         -27.4776   -7.3756   -9.4153 C.3     1  UNL1        0.1554
      5 C         -26.5081   -7.8212  -11.6820 C.ar    1  UNL1        0.1654
      6 N         -27.3072   -7.0205  -12.4273 N.ar    1  UNL1       -0.2050
      7 C         -27.0745   -6.9507  -13.7708 C.ar    1  UNL1        0.2014
      8 N         -26.0751   -7.6935  -14.3428 N.ar    1  UNL1       -0.2089
      9 C         -25.2663   -8.5055  -13.5977 C.ar    1  UNL1        0.1379
     10 C         -25.4806   -8.5362  -12.2166 C.ar    1  UNL1        0.0865
     11 N         -24.3135   -9.3554  -14.2468 N.pl3   1  UNL1       -0.2902
     12 C         -23.1767   -8.8341  -14.9929 C.3     1  UNL1        0.1090
     13 C         -22.7033   -9.9878  -15.8919 C.3     1  UNL1        0.0874
     14 N         -23.2009   -9.8050  -17.2591 N.3     1  UNL1       -0.3197
     15 C         -23.3130  -11.2382  -15.2366 C.3     1  UNL1        0.0934
     16 C         -24.6117  -10.7329  -14.5996 C.3     1  UNL1        0.1095
     17 H         -22.8131   -8.9075  -17.6310 H       1  UNL1        0.1189
     18 H         -22.7860  -10.5517  -17.8621 H       1  UNL1        0.1189
     19 N         -23.3905  -12.3977  -16.1767 N.3     1  UNL1       -0.2713
     20 C         -24.5700  -13.2921  -16.1219 C.3     1  UNL1        0.0721
     21 C         -24.4670  -14.3524  -15.0062 C.3     1  UNL1        0.0174
     22 C         -23.1356  -15.1048  -15.0719 C.3     1  UNL1        0.0029
     23 C         -21.9607  -14.1270  -15.1141 C.3     1  UNL1        0.0174
     24 C         -22.1280  -13.1568  -16.2872 C.3     1  UNL1        0.0721
     25 C         -22.3343   -9.4376  -11.0520 C.ar    1  UNL1        0.0809
     26 C         -23.6281   -9.9228  -11.0941 C.ar    1  UNL1        0.0577
     27 C         -23.4945  -11.2983  -11.0497 C.ar    1  UNL1        0.1231
     28 N         -22.1868  -11.6180  -10.9742 N.ar    1  UNL1       -0.1676
     29 N         -21.4929  -10.4899  -10.9747 N.ar    1  UNL1       -0.2488
     30 C         -20.0376  -10.4396  -10.8858 C.3     1  UNL1        0.1537
     31 C         -20.6879   -3.9014  -10.7542 C.3     1  UNL1        0.0310
     32 C         -21.1510   -5.3256  -10.8352 C.ar    1  UNL1       -0.0218
     33 C         -21.5023   -6.0224   -9.6686 C.ar    1  UNL1       -0.0042
     34 C         -21.8971   -7.3615   -9.7396 C.ar    1  UNL1        0.0012
     35 C         -21.9300   -8.0226  -10.9750 C.ar    1  UNL1        0.0174
     36 C         -21.5663   -7.3321  -12.1394 C.ar    1  UNL1        0.0012
     37 C         -21.1716   -5.9932  -12.0694 C.ar    1  UNL1       -0.0042
@<TRIPOS>BOND
     1    31    32    1
     2    32    33   ar
     3    33    34   ar
     4    34    35   ar
     5    35    25    1
     6    25    26   ar
     7    26     1    1
     8     1     2   ar
     9     2     3   ar
    10     3     4    1
    11     3     5   ar
    12     5     6   ar
    13     6     7   ar
    14     7     8   ar
    15     8     9   ar
    16     9    11    1
    17    11    12    1
    18    12    13    1
    19    13    14    1
    20    13    15    1
    21    15    19    1
    22    19    20    1
    23    20    21    1
    24    21    22    1
    25    22    23    1
    26    23    24    1
    27    15    16    1
    28     9    10   ar
    29    26    27   ar
    30    27    28   ar
    31    28    29   ar
    32    29    30    1
    33    35    36   ar
    34    36    37   ar
    35    37    32   ar
    36    29    25   ar
    37    10     1   ar
    38    10     5   ar
    39    16    11    1
    40    24    19    1
    41    14    17    1
    42    14    18    1
@<TRIPOS>MOLECULE
*****
 37 42 0 0 0
SMALL
GASTEIGER

@<TRIPOS>ATOM
      1 C         -24.2583  -11.9495  -15.2729 C.ar    1  UNL1        0.1095
      2 N         -24.2832  -12.8638  -16.2750 N.ar    1  UNL1       -0.1677
      3 N         -24.8516  -13.9707  -15.8121 N.ar    1  UNL1       -0.2319
      4 C         -24.9863  -15.2047  -16.5743 C.3     1  UNL1        0.1554
      5 C         -25.1633  -13.7797  -14.5213 C.ar    1  UNL1        0.1654
      6 N         -25.6988  -14.6848  -13.6675 N.ar    1  UNL1       -0.2050
      7 C         -25.9293  -14.2958  -12.3792 C.ar    1  UNL1        0.2014
      8 N         -25.6474  -13.0161  -11.9785 N.ar    1  UNL1       -0.2089
      9 C         -25.1091  -12.0965  -12.8348 C.ar    1  UNL1        0.1379
     10 C         -24.8328  -12.5156  -14.1396 C.ar    1  UNL1        0.0865
     11 N         -24.9410  -10.7384  -12.4119 N.pl3   1  UNL1       -0.2902
     12 C         -24.2087  -10.3766  -11.2062 C.3     1  UNL1        0.1090
     13 C         -24.6511   -8.9449  -10.8633 C.3     1  UNL1        0.0874
     14 N         -25.6531   -8.9642   -9.7929 N.3     1  UNL1       -0.3197
     15 C         -25.2478   -8.4195  -12.1796 C.3     1  UNL1        0.0934
     16 C         -25.8173   -9.6692  -12.8589 C.3     1  UNL1        0.1095
     17 H         -25.2174   -9.3942   -8.9447 H       1  UNL1        0.1189
     18 H         -25.8621   -7.9765   -9.5208 H       1  UNL1        0.1189
     19 N         -26.1568   -7.2515  -11.9707 N.3     1  UNL1       -0.2713
     20 C         -27.6117   -7.4225  -12.1900 C.3     1  UNL1        0.0721
     21 C         -28.0101   -7.3187  -13.6767 C.3     1  UNL1        0.0174
     22 C         -27.4428   -6.0508  -14.3198 C.3     1  UNL1        0.0029
     23 C         -25.9387   -5.9401  -14.0675 C.3     1  UNL1        0.0174
     24 C         -25.6539   -5.9954  -12.5638 C.3     1  UNL1        0.0721
     25 C         -22.4716  -10.2059  -14.6901 C.ar    1  UNL1        0.0809
     26 C         -23.5779  -10.6508  -15.3894 C.ar    1  UNL1        0.0577
     27 C         -23.8806   -9.6261  -16.2671 C.ar    1  UNL1        0.1231
     28 N         -22.9929   -8.6240  -16.1070 N.ar    1  UNL1       -0.1676
     29 N         -22.1449   -8.9816  -15.1545 N.ar    1  UNL1       -0.2488
     30 C         -21.0281   -8.1511  -14.7171 C.3     1  UNL1        0.1537
     31 C         -19.3711  -13.1754  -10.8148 C.3     1  UNL1        0.0310
     32 C         -20.2070  -12.4203  -11.8050 C.ar    1  UNL1       -0.0218
     33 C         -20.5240  -12.9940  -13.0461 C.ar    1  UNL1       -0.0042
     34 C         -21.2705  -12.2754  -13.9844 C.ar    1  UNL1        0.0012
     35 C         -21.6947  -10.9706  -13.6985 C.ar    1  UNL1        0.0174
     36 C         -21.3671  -10.3910  -12.4649 C.ar    1  UNL1        0.0012
     37 C         -20.6210  -11.1086  -11.5261 C.ar    1  UNL1       -0.0042
@<TRIPOS>BOND
     1    31    32    1
     2    32    33   ar
     3    33    34   ar
     4    34    35   ar
     5    35    25    1
     6    25    26   ar
     7    26     1    1
     8     1     2   ar
     9     2     3   ar
    10     3     4    1
    11     3     5   ar
    12     5     6   ar
    13     6     7   ar
    14     7     8   ar
    15     8     9   ar
    16     9    11    1
    17    11    12    1
    18    12    13    1
    19    13    14    1
    20    13    15    1
    21    15    19    1
    22    19    20    1
    23    20    21    1
    24    21    22    1
    25    22    23    1
    26    23    24    1
    27    15    16    1
    28     9    10   ar
    29    26    27   ar
    30    27    28   ar
    31    28    29   ar
    32    29    30    1
    33    35    36   ar
    34    36    37   ar
    35    37    32   ar
    36    29    25   ar
    37    10     1   ar
    38    10     5   ar
    39    16    11    1
    40    24    19    1
    41    14    17    1
    42    14    18    1
@<TRIPOS>MOLECULE
*****
 37 42 0 0 0
SMALL
GASTEIGER

@<TRIPOS>ATOM
      1 C         -21.5074  -10.1462  -13.0721 C.ar    1  UNL1        0.1095
      2 N         -20.9869  -11.3975  -13.1398 N.ar    1  UNL1       -0.1677
      3 N         -20.6190  -11.7599  -11.9168 N.ar    1  UNL1       -0.2319
      4 C         -19.9440  -13.0113  -11.5999 C.3     1  UNL1        0.1554
      5 C         -20.8745  -10.7443  -11.0784 C.ar    1  UNL1        0.1654
      6 N         -20.5877  -10.6848   -9.7558 N.ar    1  UNL1       -0.2050
      7 C         -20.9178   -9.5473   -9.0767 C.ar    1  UNL1        0.2014
      8 N         -21.5442   -8.5114   -9.7186 N.ar    1  UNL1       -0.2089
      9 C         -21.8388   -8.5650  -11.0524 C.ar    1  UNL1        0.1379
     10 C         -21.4563   -9.7139  -11.7511 C.ar    1  UNL1        0.0865
     11 N         -22.6000   -7.5142  -11.6591 N.pl3   1  UNL1       -0.2902
     12 C         -22.0827   -6.1625  -11.8203 C.3     1  UNL1        0.1090
     13 C         -23.3125   -5.2701  -12.0532 C.3     1  UNL1        0.0874
     14 N         -23.6794   -4.5754  -10.8152 N.3     1  UNL1       -0.3197
     15 C         -24.4076   -6.2594  -12.4858 C.3     1  UNL1        0.0934
     16 C         -24.0489   -7.5587  -11.7574 C.3     1  UNL1        0.1095
     17 H         -22.8748   -3.9716  -10.5282 H       1  UNL1        0.1189
     18 H         -24.4566   -3.9098  -11.0300 H       1  UNL1        0.1189
     19 N         -25.7839   -5.7047  -12.3068 N.3     1  UNL1       -0.2713
     20 C         -26.8286   -6.5545  -11.6899 C.3     1  UNL1        0.0721
     21 C         -27.4777   -7.5300  -12.6934 C.3     1  UNL1        0.0174
     22 C         -27.9518   -6.8016  -13.9535 C.3     1  UNL1        0.0029
     23 C         -26.8260   -5.9535  -14.5465 C.3     1  UNL1        0.0174
     24 C         -26.2904   -4.9814  -13.4913 C.3     1  UNL1        0.0721
     25 C         -22.6510   -9.7974  -15.3398 C.ar    1  UNL1        0.0809
     26 C         -21.8956   -9.3741  -14.2622 C.ar    1  UNL1        0.0577
     27 C         -21.6236   -8.0429  -14.5185 C.ar    1  UNL1        0.1231
     28 N         -22.1969   -7.6864  -15.6856 N.ar    1  UNL1       -0.1676
     29 N         -22.8162   -8.7500  -16.1747 N.ar    1  UNL1       -0.2488
     30 C         -23.5678   -8.7401  -17.4250 C.3     1  UNL1        0.1537
     31 C         -25.1146  -14.9971  -15.9248 C.3     1  UNL1        0.0310
     32 C         -24.4885  -13.6393  -15.8077 C.ar    1  UNL1       -0.0218
     33 C         -23.1717  -13.4277  -16.2449 C.ar    1  UNL1       -0.0042
     34 C         -22.5746  -12.1720  -16.1007 C.ar    1  UNL1        0.0012
     35 C         -23.2816  -11.1191  -15.5041 C.ar    1  UNL1        0.0174
     36 C         -24.5919  -11.3325  -15.0544 C.ar    1  UNL1        0.0012
     37 C         -25.1898  -12.5875  -15.1983 C.ar    1  UNL1       -0.0042
@<TRIPOS>BOND
     1    31    32    1
     2    32    33   ar
     3    33    34   ar
     4    34    35   ar
     5    35    25    1
     6    25    26   ar
     7    26     1    1
     8     1     2   ar
     9     2     3   ar
    10     3     4    1
    11     3     5   ar
    12     5     6   ar
    13     6     7   ar
    14     7     8   ar
    15     8     9   ar
    16     9    11    1
    17    11    12    1
    18    12    13    1
    19    13    14    1
    20    13    15    1
    21    15    19    1
    22    19    20    1
    23    20    21    1
    24    21    22    1
    25    22    23    1
    26    23    24    1
    27    15    16    1
    28     9    10   ar
    29    26    27   ar
    30    27    28   ar
    31    28    29   ar
    32    29    30    1
    33    35    36   ar
    34    36    37   ar
    35    37    32   ar
    36    29    25   ar
    37    10     1   ar
    38    10     5   ar
    39    16    11    1
    40    24    19    1
    41    14    17    1
    42    14    18    1
@<TRIPOS>MOLECULE
*****
 37 42 0 0 0
SMALL
GASTEIGER

@<TRIPOS>ATOM
      1 C         -22.3036   -8.7861  -10.2512 C.ar    1  UNL1        0.1095
      2 N         -21.6514   -7.9657   -9.3894 N.ar    1  UNL1       -0.1677
      3 N         -20.4884   -8.5277   -9.0822 N.ar    1  UNL1       -0.2319
      4 C         -19.5417   -7.9810   -8.1197 C.3     1  UNL1        0.1554
      5 C         -20.4061   -9.7067   -9.7169 C.ar    1  UNL1        0.1654
      6 N         -19.4094  -10.6189   -9.6199 N.ar    1  UNL1       -0.2050
      7 C         -19.5211  -11.7727  -10.3414 C.ar    1  UNL1        0.2014
      8 N         -20.6023  -11.9806  -11.1571 N.ar    1  UNL1       -0.2089
      9 C         -21.6108  -11.0638  -11.2620 C.ar    1  UNL1        0.1379
     10 C         -21.5121   -9.9058  -10.4850 C.ar    1  UNL1        0.0865
     11 N         -22.6620  -11.2632  -12.2142 N.pl3   1  UNL1       -0.2902
     12 C         -24.0434  -11.5023  -11.8200 C.3     1  UNL1        0.1090
     13 C         -24.7282  -12.1168  -13.0514 C.3     1  UNL1        0.0874
     14 N         -24.8320  -13.5719  -12.9031 N.3     1  UNL1       -0.3197
     15 C         -23.7987  -11.7376  -14.2163 C.3     1  UNL1        0.0934
     16 C         -22.4052  -11.6813  -13.5817 C.3     1  UNL1        0.1095
     17 H         -25.4146  -13.7738  -12.0581 H       1  UNL1        0.1189
     18 H         -25.3828  -13.9458  -13.7095 H       1  UNL1        0.1189
     19 N         -23.9959  -12.6097  -15.4140 N.3     1  UNL1       -0.2713
     20 C         -23.0540  -13.7272  -15.6547 C.3     1  UNL1        0.0721
     21 C         -21.7499  -13.2743  -16.3434 C.3     1  UNL1        0.0174
     22 C         -22.0393  -12.4424  -17.5953 C.3     1  UNL1        0.0029
     23 C         -23.0062  -11.3012  -17.2774 C.3     1  UNL1        0.0174
     24 C         -24.2882  -11.8590  -16.6524 C.3     1  UNL1        0.0721
     25 C         -24.1210   -8.2389  -11.9744 C.ar    1  UNL1        0.0809
     26 C         -23.6834   -8.5442  -10.6992 C.ar    1  UNL1        0.0577
     27 C         -24.8344   -8.6258   -9.9374 C.ar    1  UNL1        0.1231
     28 N         -25.9063   -8.3914  -10.7209 N.ar    1  UNL1       -0.1676
     29 N         -25.4680   -8.1600  -11.9491 N.ar    1  UNL1       -0.2488
     30 C         -26.3479   -7.8827  -13.0792 C.3     1  UNL1        0.1537
     31 C         -20.8585   -7.9104  -16.7386 C.3     1  UNL1        0.0310
     32 C         -21.7090   -7.9578  -15.5041 C.ar    1  UNL1       -0.0218
     33 C         -21.1205   -7.8439  -14.2351 C.ar    1  UNL1       -0.0042
     34 C         -21.9081   -7.9266  -13.0832 C.ar    1  UNL1        0.0012
     35 C         -23.2895   -8.1394  -13.1869 C.ar    1  UNL1        0.0174
     36 C         -23.8768   -8.2671  -14.4533 C.ar    1  UNL1        0.0012
     37 C         -23.0903   -8.1844  -15.6056 C.ar    1  UNL1       -0.0042
@<TRIPOS>BOND
     1    31    32    1
     2    32    33   ar
     3    33    34   ar
     4    34    35   ar
     5    35    25    1
     6    25    26   ar
     7    26     1    1
     8     1     2   ar
     9     2     3   ar
    10     3     4    1
    11     3     5   ar
    12     5     6   ar
    13     6     7   ar
    14     7     8   ar
    15     8     9   ar
    16     9    11    1
    17    11    12    1
    18    12    13    1
    19    13    14    1
    20    13    15    1
    21    15    19    1
    22    19    20    1
    23    20    21    1
    24    21    22    1
    25    22    23    1
    26    23    24    1
    27    15    16    1
    28     9    10   ar
    29    26    27   ar
    30    27    28   ar
    31    28    29   ar
    32    29    30    1
    33    35    36   ar
    34    36    37   ar
    35    37    32   ar
    36    29    25   ar
    37    10     1   ar
    38    10     5   ar
    39    16    11    1
    40    24    19    1
    41    14    17    1
    42    14    18    1
@<TRIPOS>MOLECULE
*****
 37 42 0 0 0
SMALL
GASTEIGER

@<TRIPOS>ATOM
      1 C         -23.3839   -7.5861  -16.9342 C.ar    1  UNL1        0.1095
      2 N         -23.8960   -6.4123  -17.3827 N.ar    1  UNL1       -0.1677
      3 N         -24.4137   -6.6196  -18.5875 N.ar    1  UNL1       -0.2319
      4 C         -24.9872   -5.5749  -19.4251 C.3     1  UNL1        0.1554
      5 C         -24.2127   -7.9035  -18.9206 C.ar    1  UNL1        0.1654
      6 N         -24.5314   -8.5030  -20.0927 N.ar    1  UNL1       -0.2050
      7 C         -24.2280   -9.8259  -20.2419 C.ar    1  UNL1        0.2014
      8 N         -23.6413  -10.5241  -19.2193 N.ar    1  UNL1       -0.2089
      9 C         -23.3189   -9.9266  -18.0328 C.ar    1  UNL1        0.1379
     10 C         -23.5902   -8.5612  -17.9044 C.ar    1  UNL1        0.0865
     11 N         -22.8180  -10.7162  -16.9478 N.pl3   1  UNL1       -0.2902
     12 C         -21.4835  -11.2992  -16.9517 C.3     1  UNL1        0.1090
     13 C         -21.5113  -12.4119  -15.8914 C.3     1  UNL1        0.0874
     14 N         -21.6733  -13.7211  -16.5315 N.3     1  UNL1       -0.3197
     15 C         -22.7291  -12.0597  -15.0210 C.3     1  UNL1        0.0934
     16 C         -23.6941  -11.3664  -15.9883 C.3     1  UNL1        0.1095
     17 H         -20.8553  -13.8793  -17.1642 H       1  UNL1        0.1189
     18 H         -21.5945  -14.4589  -15.7948 H       1  UNL1        0.1189
     19 N         -23.2313  -13.2296  -14.2380 N.3     1  UNL1       -0.2713
     20 C         -23.6147  -14.4667  -14.9568 C.3     1  UNL1        0.0721
     21 C         -25.0378  -14.3996  -15.5486 C.3     1  UNL1        0.0174
     22 C         -26.0607  -13.9661  -14.4957 C.3     1  UNL1        0.0029
     23 C         -25.6126  -12.6800  -13.8003 C.3     1  UNL1        0.0174
     24 C         -24.2170  -12.8684  -13.1985 C.3     1  UNL1        0.0721
     25 C         -23.0919   -7.7428  -14.3922 C.ar    1  UNL1        0.0809
     26 C         -22.6116   -7.6993  -15.6877 C.ar    1  UNL1        0.0577
     27 C         -21.2414   -7.8386  -15.5647 C.ar    1  UNL1        0.1231
     28 N         -20.9208   -7.9693  -14.2616 N.ar    1  UNL1       -0.1676
     29 N         -22.0428   -7.9118  -13.5602 N.ar    1  UNL1       -0.2488
     30 C         -22.0914   -8.0351  -12.1074 C.3     1  UNL1        0.1537
     31 C         -28.6608   -7.7401  -12.8313 C.3     1  UNL1        0.0310
     32 C         -27.2070   -7.7325  -13.2001 C.ar    1  UNL1       -0.0218
     33 C         -26.5921   -6.5455  -13.6275 C.ar    1  UNL1       -0.0042
     34 C         -25.2470   -6.5463  -14.0081 C.ar    1  UNL1        0.0012
     35 C         -24.5068   -7.7361  -13.9803 C.ar    1  UNL1        0.0174
     36 C         -25.1232   -8.9252  -13.5669 C.ar    1  UNL1        0.0012
     37 C         -26.4679   -8.9254  -13.1860 C.ar    1  UNL1       -0.0042
@<TRIPOS>BOND
     1    31    32    1
     2    32    33   ar
     3    33    34   ar
     4    34    35   ar
     5    35    25    1
     6    25    26   ar
     7    26     1    1
     8     1     2   ar
     9     2     3   ar
    10     3     4    1
    11     3     5   ar
    12     5     6   ar
    13     6     7   ar
    14     7     8   ar
    15     8     9   ar
    16     9    11    1
    17    11    12    1
    18    12    13    1
    19    13    14    1
    20    13    15    1
    21    15    19    1
    22    19    20    1
    23    20    21    1
    24    21    22    1
    25    22    23    1
    26    23    24    1
    27    15    16    1
    28     9    10   ar
    29    26    27   ar
    30    27    28   ar
    31    28    29   ar
    32    29    30    1
    33    35    36   ar
    34    36    37   ar
    35    37    32   ar
    36    29    25   ar
    37    10     1   ar
    38    10     5   ar
    39    16    11    1
    40    24    19    1
    41    14    17    1
    42    14    18    1
@<TRIPOS>MOLECULE
*****
 37 42 0 0 0
SMALL
GASTEIGER

@<TRIPOS>ATOM
      1 C         -25.3518   -7.3945  -14.0754 C.ar    1  UNL1        0.1095
      2 N         -26.2997   -6.4563  -13.8257 N.ar    1  UNL1       -0.1677
      3 N         -26.3286   -5.6134  -14.8511 N.ar    1  UNL1       -0.2319
      4 C         -27.1666   -4.4235  -14.9118 C.3     1  UNL1        0.1554
      5 C         -25.3928   -5.9892  -15.7357 C.ar    1  UNL1        0.1654
      6 N         -25.0555   -5.3580  -16.8859 N.ar    1  UNL1       -0.2050
      7 C         -24.0580   -5.8970  -17.6467 C.ar    1  UNL1        0.2014
      8 N         -23.4399   -7.0576  -17.2615 N.ar    1  UNL1       -0.2089
      9 C         -23.7763   -7.7014  -16.1035 C.ar    1  UNL1        0.1379
     10 C         -24.7662   -7.1188  -15.3066 C.ar    1  UNL1        0.0865
     11 N         -23.1924   -8.9729  -15.7969 N.pl3   1  UNL1       -0.2902
     12 C         -21.8104   -9.1174  -15.3607 C.3     1  UNL1        0.1090
     13 C         -21.4514  -10.5937  -15.5944 C.3     1  UNL1        0.0874
     14 N         -20.6784  -10.7400  -16.8317 N.3     1  UNL1       -0.3197
     15 C         -22.8176  -11.2915  -15.7019 C.3     1  UNL1        0.0934
     16 C         -23.7395  -10.2223  -16.2973 C.3     1  UNL1        0.1095
     17 H         -19.7940  -10.1902  -16.7318 H       1  UNL1        0.1189
     18 H         -20.3720  -11.7365  -16.9117 H       1  UNL1        0.1189
     19 N         -22.7321  -12.6153  -16.3906 N.3     1  UNL1       -0.2713
     20 C         -23.9796  -13.2755  -16.8400 C.3     1  UNL1        0.0721
     21 C         -24.6942  -14.0413  -15.7074 C.3     1  UNL1        0.0174
     22 C         -23.7343  -14.9857  -14.9796 C.3     1  UNL1        0.0029
     23 C         -22.4753  -14.2418  -14.5325 C.3     1  UNL1        0.0174
     24 C         -21.8106  -13.5662  -15.7354 C.3     1  UNL1        0.0721
     25 C         -23.9353   -8.3389  -12.1589 C.ar    1  UNL1        0.0809
     26 C         -24.9528   -8.4124  -13.0917 C.ar    1  UNL1        0.0577
     27 C         -25.5549   -9.6366  -12.8666 C.ar    1  UNL1        0.1231
     28 N         -24.9345  -10.2583  -11.8437 N.ar    1  UNL1       -0.1676
     29 N         -23.9590   -9.4685  -11.4208 N.ar    1  UNL1       -0.2488
     30 C         -23.0772   -9.8032  -10.3079 C.3     1  UNL1        0.1537
     31 C         -20.4487   -3.8379  -11.1422 C.3     1  UNL1        0.0310
     32 C         -21.3589   -4.9918  -11.4410 C.ar    1  UNL1       -0.0218
     33 C         -22.7338   -4.8951  -11.1759 C.ar    1  UNL1       -0.0042
     34 C         -23.5764   -5.9838  -11.4183 C.ar    1  UNL1        0.0012
     35 C         -23.0517   -7.1854  -11.9134 C.ar    1  UNL1        0.0174
     36 C         -21.6766   -7.2882  -12.1657 C.ar    1  UNL1        0.0012
     37 C         -20.8334   -6.2003  -11.9238 C.ar    1  UNL1       -0.0042
@<TRIPOS>BOND
     1    31    32    1
     2    32    33   ar
     3    33    34   ar
     4    34    35   ar
     5    35    25    1
     6    25    26   ar
     7    26     1    1
     8     1     2   ar
     9     2     3   ar
    10     3     4    1
    11     3     5   ar
    12     5     6   ar
    13     6     7   ar
    14     7     8   ar
    15     8     9   ar
    16     9    11    1
    17    11    12    1
    18    12    13    1
    19    13    14    1
    20    13    15    1
    21    15    19    1
    22    19    20    1
    23    20    21    1
    24    21    22    1
    25    22    23    1
    26    23    24    1
    27    15    16    1
    28     9    10   ar
    29    26    27   ar
    30    27    28   ar
    31    28    29   ar
    32    29    30    1
    33    35    36   ar
    34    36    37   ar
    35    37    32   ar
    36    29    25   ar
    37    10     1   ar
    38    10     5   ar
    39    16    11    1
    40    24    19    1
    41    14    17    1
    42    14    18    1
@<TRIPOS>MOLECULE
*****
 37 42 0 0 0
SMALL
GASTEIGER

@<TRIPOS>ATOM
      1 C         -24.1486  -10.2683  -13.6742 C.ar    1  UNL1        0.1095
      2 N         -24.6859  -11.2383  -14.4561 N.ar    1  UNL1       -0.1677
      3 N         -24.1874  -11.1079  -15.6796 N.ar    1  UNL1       -0.2319
      4 C         -24.5876  -11.9212  -16.8198 C.3     1  UNL1        0.1554
      5 C         -23.3612  -10.0510  -15.6907 C.ar    1  UNL1        0.1654
      6 N         -22.7016   -9.5407  -16.7582 N.ar    1  UNL1       -0.2050
      7 C         -21.9143   -8.4424  -16.5629 C.ar    1  UNL1        0.2014
      8 N         -21.7819   -7.8953  -15.3136 N.ar    1  UNL1       -0.2089
      9 C         -22.4424   -8.4060  -14.2312 C.ar    1  UNL1        0.1379
     10 C         -23.2828   -9.5020  -14.4475 C.ar    1  UNL1        0.0865
     11 N         -22.1846   -7.8813  -12.9236 N.pl3   1  UNL1       -0.2902
     12 C         -22.6446   -6.5658  -12.5009 C.3     1  UNL1        0.1090
     13 C         -21.7930   -6.2004  -11.2743 C.3     1  UNL1        0.0874
     14 N         -20.7156   -5.2827  -11.6576 N.3     1  UNL1       -0.3197
     15 C         -21.2347   -7.5521  -10.7989 C.3     1  UNL1        0.0934
     16 C         -21.1097   -8.3792  -12.0825 C.3     1  UNL1        0.1095
     17 H         -21.1491   -4.4102  -12.0384 H       1  UNL1        0.1189
     18 H         -20.2158   -4.9822  -10.7897 H       1  UNL1        0.1189
     19 N         -20.0248   -7.4001   -9.9345 N.3     1  UNL1       -0.2713
     20 C         -18.9012   -8.3521  -10.0939 C.3     1  UNL1        0.0721
     21 C         -19.1290   -9.6796   -9.3418 C.3     1  UNL1        0.0174
     22 C         -19.5163   -9.4348   -7.8813 C.3     1  UNL1        0.0029
     23 C         -20.6866   -8.4550   -7.7867 C.3     1  UNL1        0.0174
     24 C         -20.3393   -7.1520   -8.5125 C.3     1  UNL1        0.0721
     25 C         -25.4442   -9.0566  -11.8235 C.ar    1  UNL1        0.0809
     26 C         -24.5766  -10.0274  -12.2879 C.ar    1  UNL1        0.0577
     27 C         -24.2338  -10.7638  -11.1689 C.ar    1  UNL1        0.1231
     28 N         -24.8731  -10.2640  -10.0921 N.ar    1  UNL1       -0.1676
     29 N         -25.6026   -9.2348  -10.4952 N.ar    1  UNL1       -0.2488
     30 C         -26.4500   -8.4502   -9.6038 C.3     1  UNL1        0.1537
     31 C         -28.3328   -5.1597  -14.9730 C.3     1  UNL1        0.0310
     32 C         -27.5705   -6.1858  -14.1885 C.ar    1  UNL1       -0.0218
     33 C         -28.1697   -7.4107  -13.8562 C.ar    1  UNL1       -0.0042
     34 C         -27.4732   -8.3515  -13.0921 C.ar    1  UNL1        0.0012
     35 C         -26.1768   -8.0719  -12.6391 C.ar    1  UNL1        0.0174
     36 C         -25.5820   -6.8434  -12.9585 C.ar    1  UNL1        0.0012
     37 C         -26.2774   -5.9022  -13.7224 C.ar    1  UNL1       -0.0042
@<TRIPOS>BOND
     1    31    32    1
     2    32    33   ar
     3    33    34   ar
     4    34    35   ar
     5    35    25    1
     6    25    26   ar
     7    26     1    1
     8     1     2   ar
     9     2     3   ar
    10     3     4    1
    11     3     5   ar
    12     5     6   ar
    13     6     7   ar
    14     7     8   ar
    15     8     9   ar
    16     9    11    1
    17    11    12    1
    18    12    13    1
    19    13    14    1
    20    13    15    1
    21    15    19    1
    22    19    20    1
    23    20    21    1
    24    21    22    1
    25    22    23    1
    26    23    24    1
    27    15    16    1
    28     9    10   ar
    29    26    27   ar
    30    27    28   ar
    31    28    29   ar
    32    29    30    1
    33    35    36   ar
    34    36    37   ar
    35    37    32   ar
    36    29    25   ar
    37    10     1   ar
    38    10     5   ar
    39    16    11    1
    40    24    19    1
    41    14    17    1
    42    14    18    1
