@<TRIPOS>MOLECULE
*****
 50 55 0 0 0
SMALL
GASTEIGER

@<TRIPOS>ATOM
      1 C         -30.0440   49.5726   -4.8798 C.2     1  UNL1        0.2483
      2 O         -30.1645   50.6842   -4.2955 O.2     1  UNL1       -0.2701
      3 N         -29.8581   48.3742   -4.1063 N.am    1  UNL1       -0.2945
      4 H         -29.6854   47.4672   -4.5942 H       1  UNL1        0.1501
      5 C         -29.2603   49.0692   -8.5802 C.ar    1  UNL1        0.0756
      6 C         -30.5258   49.3518   -9.1447 C.ar    1  UNL1        0.0529
      7 C         -31.5836   49.7432   -8.3166 C.ar    1  UNL1        0.0149
      8 C         -31.4091   49.8309   -6.9378 C.ar    1  UNL1        0.0080
      9 C         -30.1740   49.5175   -6.3534 C.ar    1  UNL1        0.0809
     10 C         -29.0928   49.1599   -7.1823 C.ar    1  UNL1        0.1483
     11 F         -27.8594   48.9848   -6.6443 F       1  UNL1       -0.2039
     12 N         -30.7667   49.1939  -10.5524 N.pl3   1  UNL1       -0.3039
     13 C         -30.6381   50.3464  -11.4499 C.3     1  UNL1        0.1122
     14 C         -29.9006   49.9317  -12.7248 C.3     1  UNL1        0.1122
     15 N         -30.4848   48.7158  -13.3171 N.pl3   1  UNL1       -0.3040
     16 C         -31.4800   47.9336  -12.5658 C.3     1  UNL1        0.1122
     17 C         -31.1105   47.8680  -11.0796 C.3     1  UNL1        0.1122
     18 C         -30.1821   48.3792  -14.6890 C.ar    1  UNL1        0.0496
     19 C         -30.5687   47.1359  -15.2250 C.ar    1  UNL1        0.0260
     20 C         -30.2787   46.8150  -16.5555 C.ar    1  UNL1        0.0597
     21 CL        -30.7698   45.2635  -17.2104 Cl      1  UNL1       -0.0822
     22 C         -29.6020   47.7314  -17.3649 C.ar    1  UNL1        0.0229
     23 C         -29.2156   48.9703  -16.8465 C.ar    1  UNL1        0.0597
     24 CL        -28.3647   50.1186  -17.8638 Cl      1  UNL1       -0.0822
     25 C         -29.5047   49.2944  -15.5165 C.ar    1  UNL1        0.0260
     26 C         -27.5833   47.3296   -9.5435 C.3     1  UNL1        0.0774
     27 C         -28.1057   48.7295   -9.4474 C.2     1  UNL1        0.1769
     28 O         -27.5270   49.6392  -10.1004 O.2     1  UNL1       -0.2912
     29 C         -30.0050   48.3436   -2.6457 C.3     1  UNL1        0.1535
     30 C         -30.7259   47.0717   -2.2313 C.2     1  UNL1        0.2443
     31 O         -31.3117   47.0184   -1.1157 O.2     1  UNL1       -0.2730
     32 N         -30.7533   45.9074   -3.0752 N.am    1  UNL1       -0.2825
     33 H         -30.8696   44.9764   -2.6149 H       1  UNL1        0.1549
     34 C         -30.5385   45.9330   -4.4937 C.ar    1  UNL1        0.0535
     35 C         -31.5834   46.2385   -5.3779 C.ar    1  UNL1        0.0353
     36 C         -31.3361   46.2566   -6.7527 C.ar    1  UNL1        0.1002
     37 N         -30.0944   45.9691   -7.2264 N.ar    1  UNL1       -0.2422
     38 C         -29.0686   45.6544   -6.3914 C.ar    1  UNL1        0.1002
     39 C         -29.2752   45.6201   -5.0102 C.ar    1  UNL1        0.0353
     40 C         -28.6173   48.4603   -1.9833 C.3     1  UNL1        0.0569
     41 C         -27.5400   47.9027   -2.8688 C.ar    1  UNL1       -0.0017
     42 C         -26.9743   48.5315   -3.9743 C.ar    1  UNL1        0.0681
     43 N         -26.1266   47.6930   -4.6125 N.ar    1  UNL1       -0.3523
     44 C         -26.1618   46.5367   -3.9276 C.ar    1  UNL1        0.0563
     45 C         -25.4819   45.3569   -4.2270 C.ar    1  UNL1        0.0170
     46 C         -25.6945   44.2451   -3.3914 C.ar    1  UNL1        0.0015
     47 C         -26.5730   44.3359   -2.2893 C.ar    1  UNL1        0.0001
     48 C         -27.2461   45.5394   -2.0119 C.ar    1  UNL1        0.0012
     49 C         -27.0145   46.6249   -2.8571 C.ar    1  UNL1        0.0131
     50 H         -25.5784   47.8975   -5.4774 H       1  UNL1        0.1660
@<TRIPOS>BOND
     1    26    27    1
     2    27    28    2
     3    27     5    1
     4     5     6   ar
     5     6    12    1
     6    12    13    1
     7    13    14    1
     8    14    15    1
     9    15    18    1
    10    18    19   ar
    11    19    20   ar
    12    20    21    1
    13    20    22   ar
    14    22    23   ar
    15    23    24    1
    16    23    25   ar
    17    15    16    1
    18    16    17    1
    19     6     7   ar
    20     7     8   ar
    21     8     9   ar
    22     9     1    1
    23     1     2    2
    24     1     3   am
    25     3    29    1
    26    29    40    1
    27    40    41    1
    28    41    42   ar
    29    42    43   ar
    30    43    44   ar
    31    44    45   ar
    32    45    46   ar
    33    46    47   ar
    34    47    48   ar
    35    48    49   ar
    36    29    30    1
    37    30    31    2
    38    30    32   am
    39    32    34    1
    40    34    35   ar
    41    35    36   ar
    42    36    37   ar
    43    37    38   ar
    44    38    39   ar
    45     9    10   ar
    46    10    11    1
    47    10     5   ar
    48    17    12    1
    49    49    41   ar
    50    39    34   ar
    51    25    18   ar
    52    49    44   ar
    53     3     4    1
    54    43    50    1
    55    32    33    1
@<TRIPOS>MOLECULE
*****
 50 55 0 0 0
SMALL
GASTEIGER

@<TRIPOS>ATOM
      1 C         -29.8361   48.6316   -3.7688 C.2     1  UNL1        0.2483
      2 O         -30.9920   49.1165   -3.6267 O.2     1  UNL1       -0.2701
      3 N         -29.3532   47.6481   -2.8368 N.am    1  UNL1       -0.2945
      4 H         -28.3705   47.3033   -2.9140 H       1  UNL1        0.1501
      5 C         -28.7668   49.4193   -7.3461 C.ar    1  UNL1        0.0756
      6 C         -27.4548   49.8946   -7.1162 C.ar    1  UNL1        0.0529
      7 C         -26.9369   49.9020   -5.8163 C.ar    1  UNL1        0.0149
      8 C         -27.7116   49.4708   -4.7424 C.ar    1  UNL1        0.0080
      9 C         -29.0280   49.0324   -4.9426 C.ar    1  UNL1        0.0809
     10 C         -29.5447   48.9851   -6.2521 C.ar    1  UNL1        0.1483
     11 F         -30.7664   48.4385   -6.4760 F       1  UNL1       -0.2039
     12 N         -26.6548   50.4234   -8.1862 N.pl3   1  UNL1       -0.3039
     13 C         -26.7424   51.8460   -8.5305 C.3     1  UNL1        0.1122
     14 C         -25.3407   52.4076   -8.7773 C.3     1  UNL1        0.1122
     15 N         -24.5765   51.5642   -9.7128 N.pl3   1  UNL1       -0.3040
     16 C         -25.0904   50.2409  -10.1020 C.3     1  UNL1        0.1122
     17 C         -25.7340   49.5339   -8.9039 C.3     1  UNL1        0.1122
     18 C         -23.3980   52.1022  -10.3523 C.ar    1  UNL1        0.0496
     19 C         -23.5014   52.8246  -11.5565 C.ar    1  UNL1        0.0260
     20 C         -22.3588   53.3488  -12.1705 C.ar    1  UNL1        0.0597
     21 CL        -22.5037   54.2497  -13.6687 Cl      1  UNL1       -0.0822
     22 C         -21.1024   53.1594  -11.5889 C.ar    1  UNL1        0.0229
     23 C         -20.9861   52.4473  -10.3921 C.ar    1  UNL1        0.0597
     24 CL        -19.4077   52.2092   -9.6644 Cl      1  UNL1       -0.0822
     25 C         -22.1269   51.9224   -9.7753 C.ar    1  UNL1        0.0260
     26 C         -30.2921   50.3278   -9.2473 C.3     1  UNL1        0.0774
     27 C         -29.3062   49.3292   -8.7250 C.2     1  UNL1        0.1769
     28 O         -28.9536   48.3769   -9.4718 O.2     1  UNL1       -0.2912
     29 C         -30.2180   47.0179   -1.8315 C.3     1  UNL1        0.1535
     30 C         -30.3974   45.5457   -2.1624 C.2     1  UNL1        0.2443
     31 O         -31.5475   45.0298   -2.1220 O.2     1  UNL1       -0.2730
     32 N         -29.2830   44.7072   -2.5140 N.am    1  UNL1       -0.2825
     33 H         -29.3659   43.6833   -2.3219 H       1  UNL1        0.1549
     34 C         -28.0336   45.1960   -3.0230 C.ar    1  UNL1        0.0535
     35 C         -27.8814   45.5171   -4.3798 C.ar    1  UNL1        0.0353
     36 C         -26.6508   45.9929   -4.8387 C.ar    1  UNL1        0.1002
     37 N         -25.6086   46.1319   -3.9765 N.ar    1  UNL1       -0.2422
     38 C         -25.7255   45.8128   -2.6601 C.ar    1  UNL1        0.1002
     39 C         -26.9375   45.3287   -2.1619 C.ar    1  UNL1        0.0353
     40 C         -29.6139   47.2226   -0.4275 C.3     1  UNL1        0.0569
     41 C         -30.3016   48.3378    0.3066 C.ar    1  UNL1       -0.0017
     42 C         -31.1018   49.3264   -0.2589 C.ar    1  UNL1        0.0681
     43 N         -31.4533   50.2407    0.6737 N.ar    1  UNL1       -0.3523
     44 C         -30.8718   49.8454    1.8194 C.ar    1  UNL1        0.0563
     45 C         -30.9125   50.4921    3.0539 C.ar    1  UNL1        0.0170
     46 C         -30.1952   49.9194    4.1203 C.ar    1  UNL1        0.0015
     47 C         -29.4606   48.7282    3.9306 C.ar    1  UNL1        0.0001
     48 C         -29.4372   48.0981    2.6733 C.ar    1  UNL1        0.0012
     49 C         -30.1587   48.6884    1.6354 C.ar    1  UNL1        0.0131
     50 H         -32.0362   51.0940    0.5236 H       1  UNL1        0.1660
@<TRIPOS>BOND
     1    26    27    1
     2    27    28    2
     3    27     5    1
     4     5     6   ar
     5     6    12    1
     6    12    13    1
     7    13    14    1
     8    14    15    1
     9    15    18    1
    10    18    19   ar
    11    19    20   ar
    12    20    21    1
    13    20    22   ar
    14    22    23   ar
    15    23    24    1
    16    23    25   ar
    17    15    16    1
    18    16    17    1
    19     6     7   ar
    20     7     8   ar
    21     8     9   ar
    22     9     1    1
    23     1     2    2
    24     1     3   am
    25     3    29    1
    26    29    40    1
    27    40    41    1
    28    41    42   ar
    29    42    43   ar
    30    43    44   ar
    31    44    45   ar
    32    45    46   ar
    33    46    47   ar
    34    47    48   ar
    35    48    49   ar
    36    29    30    1
    37    30    31    2
    38    30    32   am
    39    32    34    1
    40    34    35   ar
    41    35    36   ar
    42    36    37   ar
    43    37    38   ar
    44    38    39   ar
    45     9    10   ar
    46    10    11    1
    47    10     5   ar
    48    17    12    1
    49    49    41   ar
    50    39    34   ar
    51    25    18   ar
    52    49    44   ar
    53     3     4    1
    54    43    50    1
    55    32    33    1
@<TRIPOS>MOLECULE
*****
 50 55 0 0 0
SMALL
GASTEIGER

@<TRIPOS>ATOM
      1 C         -30.3615   47.7468   -4.0525 C.2     1  UNL1        0.2483
      2 O         -31.5840   47.5604   -4.3019 O.2     1  UNL1       -0.2701
      3 N         -29.7992   47.2560   -2.8228 N.am    1  UNL1       -0.2945
      4 H         -28.8060   47.4755   -2.5862 H       1  UNL1        0.1501
      5 C         -27.8402   50.0643   -5.7356 C.ar    1  UNL1        0.0756
      6 C         -27.8605   49.5435   -7.0503 C.ar    1  UNL1        0.0529
      7 C         -28.7241   48.4888   -7.3660 C.ar    1  UNL1        0.0149
      8 C         -29.5447   47.9286   -6.3902 C.ar    1  UNL1        0.0080
      9 C         -29.5122   48.4034   -5.0717 C.ar    1  UNL1        0.0809
     10 C         -28.6744   49.4901   -4.7534 C.ar    1  UNL1        0.1483
     11 F         -28.7312   50.0460   -3.5168 F       1  UNL1       -0.2039
     12 N         -26.9707   50.0404   -8.0633 N.pl3   1  UNL1       -0.3039
     13 C         -27.3329   51.2352   -8.8323 C.3     1  UNL1        0.1122
     14 C         -26.1146   52.1500   -8.9745 C.3     1  UNL1        0.1122
     15 N         -24.9342   51.4092   -9.4525 N.pl3   1  UNL1       -0.3040
     16 C         -24.9591   49.9387   -9.5102 C.3     1  UNL1        0.1122
     17 C         -25.6914   49.3592   -8.2947 C.3     1  UNL1        0.1122
     18 C         -23.8114   52.1383   -9.9957 C.ar    1  UNL1        0.0496
     19 C         -22.6769   51.4560  -10.4752 C.ar    1  UNL1        0.0260
     20 C         -21.5934   52.1646  -11.0055 C.ar    1  UNL1        0.0597
     21 CL        -20.1882   51.3006  -11.6022 Cl      1  UNL1       -0.0822
     22 C         -21.6315   53.5602  -11.0647 C.ar    1  UNL1        0.0229
     23 C         -22.7529   54.2496  -10.5955 C.ar    1  UNL1        0.0597
     24 CL        -22.7980   56.0018  -10.6690 Cl      1  UNL1       -0.0822
     25 C         -23.8382   53.5438  -10.0651 C.ar    1  UNL1        0.0260
     26 C         -25.8811   51.1328   -4.3990 C.3     1  UNL1        0.0774
     27 C         -26.9905   51.2328   -5.3996 C.2     1  UNL1        0.1769
     28 O         -27.2186   52.3470   -5.9432 O.2     1  UNL1       -0.2912
     29 C         -30.5316   46.3602   -1.9190 C.3     1  UNL1        0.1535
     30 C         -30.3842   44.9239   -2.3931 C.2     1  UNL1        0.2443
     31 O         -31.3945   44.1701   -2.4326 O.2     1  UNL1       -0.2730
     32 N         -29.1120   44.3852   -2.7929 N.am    1  UNL1       -0.2825
     33 H         -28.9709   43.3538   -2.7013 H       1  UNL1        0.1549
     34 C         -27.9964   45.1804   -3.2197 C.ar    1  UNL1        0.0535
     35 C         -27.7206   45.3673   -4.5820 C.ar    1  UNL1        0.0353
     36 C         -26.6272   46.1504   -4.9598 C.ar    1  UNL1        0.1002
     37 N         -25.8330   46.7159   -4.0120 N.ar    1  UNL1       -0.2422
     38 C         -26.0695   46.5371   -2.6852 C.ar    1  UNL1        0.1002
     39 C         -27.1495   45.7569   -2.2652 C.ar    1  UNL1        0.0353
     40 C         -30.0172   46.5458   -0.4771 C.3     1  UNL1        0.0569
     41 C         -30.5774   47.7916    0.1472 C.ar    1  UNL1       -0.0017
     42 C         -31.3629   48.7498   -0.4870 C.ar    1  UNL1        0.0681
     43 N         -31.5839   49.7999    0.3361 N.ar    1  UNL1       -0.3523
     44 C         -30.9345   49.5192    1.4793 C.ar    1  UNL1        0.0563
     45 C         -30.8371   50.3229    2.6143 C.ar    1  UNL1        0.0170
     46 C         -30.0694   49.8472    3.6931 C.ar    1  UNL1        0.0015
     47 C         -29.4224   48.5943    3.6134 C.ar    1  UNL1        0.0001
     48 C         -29.5380   47.8051    2.4549 C.ar    1  UNL1        0.0012
     49 C         -30.3066   48.3023    1.4022 C.ar    1  UNL1        0.0131
     50 H         -32.1270   50.6639    0.1148 H       1  UNL1        0.1660
@<TRIPOS>BOND
     1    26    27    1
     2    27    28    2
     3    27     5    1
     4     5     6   ar
     5     6    12    1
     6    12    13    1
     7    13    14    1
     8    14    15    1
     9    15    18    1
    10    18    19   ar
    11    19    20   ar
    12    20    21    1
    13    20    22   ar
    14    22    23   ar
    15    23    24    1
    16    23    25   ar
    17    15    16    1
    18    16    17    1
    19     6     7   ar
    20     7     8   ar
    21     8     9   ar
    22     9     1    1
    23     1     2    2
    24     1     3   am
    25     3    29    1
    26    29    40    1
    27    40    41    1
    28    41    42   ar
    29    42    43   ar
    30    43    44   ar
    31    44    45   ar
    32    45    46   ar
    33    46    47   ar
    34    47    48   ar
    35    48    49   ar
    36    29    30    1
    37    30    31    2
    38    30    32   am
    39    32    34    1
    40    34    35   ar
    41    35    36   ar
    42    36    37   ar
    43    37    38   ar
    44    38    39   ar
    45     9    10   ar
    46    10    11    1
    47    10     5   ar
    48    17    12    1
    49    49    41   ar
    50    39    34   ar
    51    25    18   ar
    52    49    44   ar
    53     3     4    1
    54    43    50    1
    55    32    33    1
@<TRIPOS>MOLECULE
*****
 50 55 0 0 0
SMALL
GASTEIGER

@<TRIPOS>ATOM
      1 C         -30.4080   48.3901   -6.1006 C.2     1  UNL1        0.2483
      2 O         -30.9026   49.3869   -5.5063 O.2     1  UNL1       -0.2701
      3 N         -29.7492   47.3598   -5.3431 N.am    1  UNL1       -0.2945
      4 H         -29.2773   46.5739   -5.8433 H       1  UNL1        0.1501
      5 C         -30.1700   49.0234   -9.8560 C.ar    1  UNL1        0.0756
      6 C         -30.8948   47.9112  -10.3437 C.ar    1  UNL1        0.0529
      7 C         -31.4800   47.0147   -9.4428 C.ar    1  UNL1        0.0149
      8 C         -31.3322   47.1923   -8.0695 C.ar    1  UNL1        0.0080
      9 C         -30.5851   48.2658   -7.5650 C.ar    1  UNL1        0.0809
     10 C         -30.0248   49.1950   -8.4632 C.ar    1  UNL1        0.1483
     11 F         -29.4145   50.3096   -7.9873 F       1  UNL1       -0.2039
     12 N         -31.0003   47.6493  -11.7526 N.pl3   1  UNL1       -0.3039
     13 C         -31.5830   48.6587  -12.6423 C.3     1  UNL1        0.1122
     14 C         -30.7477   48.7691  -13.9195 C.3     1  UNL1        0.1122
     15 N         -30.4997   47.4469  -14.5202 N.pl3   1  UNL1       -0.3040
     16 C         -30.8349   46.2229  -13.7747 C.3     1  UNL1        0.1122
     17 C         -30.4931   46.3806  -12.2888 C.3     1  UNL1        0.1122
     18 C         -30.0612   47.3630  -15.8942 C.ar    1  UNL1        0.0496
     19 C         -30.1934   46.1624  -16.6177 C.ar    1  UNL1        0.0260
     20 C         -29.7727   46.0859  -17.9498 C.ar    1  UNL1        0.0597
     21 CL        -29.9471   44.5841  -18.8395 Cl      1  UNL1       -0.0822
     22 C         -29.2178   47.2062  -18.5739 C.ar    1  UNL1        0.0229
     23 C         -29.0840   48.4051  -17.8683 C.ar    1  UNL1        0.0597
     24 CL        -28.3854   49.8100  -18.6531 Cl      1  UNL1       -0.0822
     25 C         -29.5043   48.4850  -16.5363 C.ar    1  UNL1        0.0260
     26 C         -30.3067   51.3262  -11.0580 C.3     1  UNL1        0.0774
     27 C         -29.6091   50.0282  -10.7920 C.2     1  UNL1        0.1769
     28 O         -28.5352   49.7801  -11.4037 O.2     1  UNL1       -0.2912
     29 C         -29.7976   47.3013   -3.8768 C.3     1  UNL1        0.1535
     30 C         -30.5542   46.0581   -3.4397 C.2     1  UNL1        0.2443
     31 O         -30.5797   45.0440   -4.1891 O.2     1  UNL1       -0.2730
     32 N         -31.2608   46.0024   -2.1882 N.am    1  UNL1       -0.2825
     33 H         -32.0725   45.3480   -2.1174 H       1  UNL1        0.1549
     34 C         -30.9830   46.8517   -1.0655 C.ar    1  UNL1        0.0535
     35 C         -30.3732   46.3448    0.0913 C.ar    1  UNL1        0.0353
     36 C         -30.1157   47.2024    1.1635 C.ar    1  UNL1        0.1002
     37 N         -30.4646   48.5144    1.0869 N.ar    1  UNL1       -0.2422
     38 C         -31.0709   49.0270   -0.0168 C.ar    1  UNL1        0.1002
     39 C         -31.3509   48.2020   -1.1088 C.ar    1  UNL1        0.0353
     40 C         -28.3637   47.3312   -3.3100 C.3     1  UNL1        0.0569
     41 C         -27.3582   46.9112   -4.3436 C.ar    1  UNL1       -0.0017
     42 C         -26.6332   45.7231   -4.3530 C.ar    1  UNL1        0.0681
     43 N         -25.7284   45.7295   -5.3582 N.ar    1  UNL1       -0.3523
     44 C         -25.8667   46.9159   -5.9751 C.ar    1  UNL1        0.0563
     45 C         -25.1221   47.4008   -7.0495 C.ar    1  UNL1        0.0170
     46 C         -25.4107   48.6955   -7.5186 C.ar    1  UNL1        0.0015
     47 C         -26.4239   49.4681   -6.9092 C.ar    1  UNL1        0.0001
     48 C         -27.1585   48.9528   -5.8260 C.ar    1  UNL1        0.0012
     49 C         -26.8508   47.6660   -5.3837 C.ar    1  UNL1        0.0131
     50 H         -25.0443   44.9748   -5.5880 H       1  UNL1        0.1660
@<TRIPOS>BOND
     1    26    27    1
     2    27    28    2
     3    27     5    1
     4     5     6   ar
     5     6    12    1
     6    12    13    1
     7    13    14    1
     8    14    15    1
     9    15    18    1
    10    18    19   ar
    11    19    20   ar
    12    20    21    1
    13    20    22   ar
    14    22    23   ar
    15    23    24    1
    16    23    25   ar
    17    15    16    1
    18    16    17    1
    19     6     7   ar
    20     7     8   ar
    21     8     9   ar
    22     9     1    1
    23     1     2    2
    24     1     3   am
    25     3    29    1
    26    29    40    1
    27    40    41    1
    28    41    42   ar
    29    42    43   ar
    30    43    44   ar
    31    44    45   ar
    32    45    46   ar
    33    46    47   ar
    34    47    48   ar
    35    48    49   ar
    36    29    30    1
    37    30    31    2
    38    30    32   am
    39    32    34    1
    40    34    35   ar
    41    35    36   ar
    42    36    37   ar
    43    37    38   ar
    44    38    39   ar
    45     9    10   ar
    46    10    11    1
    47    10     5   ar
    48    17    12    1
    49    49    41   ar
    50    39    34   ar
    51    25    18   ar
    52    49    44   ar
    53     3     4    1
    54    43    50    1
    55    32    33    1
@<TRIPOS>MOLECULE
*****
 50 55 0 0 0
SMALL
GASTEIGER

@<TRIPOS>ATOM
      1 C         -29.7846   49.2692   -4.6180 C.2     1  UNL1        0.2483
      2 O         -29.3669   50.3547   -4.1294 O.2     1  UNL1       -0.2701
      3 N         -30.0803   48.1607   -3.7501 N.am    1  UNL1       -0.2945
      4 H         -30.3552   47.2417   -4.1629 H       1  UNL1        0.1501
      5 C         -29.2788   49.3148   -8.3999 C.ar    1  UNL1        0.0756
      6 C         -30.5677   48.9216   -8.8294 C.ar    1  UNL1        0.0529
      7 C         -31.5762   48.6992   -7.8854 C.ar    1  UNL1        0.0149
      8 C         -31.3153   48.8351   -6.5242 C.ar    1  UNL1        0.0080
      9 C         -30.0347   49.1859   -6.0746 C.ar    1  UNL1        0.0809
     10 C         -29.0233   49.4493   -7.0189 C.ar    1  UNL1        0.1483
     11 F         -27.8194   49.9189   -6.6048 F       1  UNL1       -0.2039
     12 N         -30.8530   48.6919  -10.2188 N.pl3   1  UNL1       -0.3039
     13 C         -31.0808   49.8292  -11.1160 C.3     1  UNL1        0.1122
     14 C         -30.3481   49.6009  -12.4398 C.3     1  UNL1        0.1122
     15 N         -30.6423   48.2700  -12.9989 N.pl3   1  UNL1       -0.3040
     16 C         -31.3544   47.2694  -12.1875 C.3     1  UNL1        0.1122
     17 C         -30.8830   47.3164  -10.7297 C.3     1  UNL1        0.1122
     18 C         -30.3554   48.0058  -14.3900 C.ar    1  UNL1        0.0496
     19 C         -30.5280   46.7152  -14.9258 C.ar    1  UNL1        0.0260
     20 C         -30.2543   46.4638  -16.2746 C.ar    1  UNL1        0.0597
     21 CL        -30.4774   44.8515  -16.9288 Cl      1  UNL1       -0.0822
     22 C         -29.8076   47.4971  -17.1025 C.ar    1  UNL1        0.0229
     23 C         -29.6353   48.7834  -16.5842 C.ar    1  UNL1        0.0597
     24 CL        -29.0728   50.0789  -17.6249 Cl      1  UNL1       -0.0822
     25 C         -29.9088   49.0382  -15.2360 C.ar    1  UNL1        0.0260
     26 C         -27.8778   51.0456   -9.7445 C.3     1  UNL1        0.0774
     27 C         -28.2182   49.6319   -9.3872 C.2     1  UNL1        0.1769
     28 O         -27.6034   48.6952   -9.9649 O.2     1  UNL1       -0.2912
     29 C         -30.1170   48.2878   -2.2878 C.3     1  UNL1        0.1535
     30 C         -31.0353   47.2262   -1.7056 C.2     1  UNL1        0.2443
     31 O         -31.3467   46.2188   -2.3975 O.2     1  UNL1       -0.2730
     32 N         -31.5772   47.3389   -0.3781 N.am    1  UNL1       -0.2825
     33 H         -32.4831   46.8567   -0.1808 H       1  UNL1        0.1549
     34 C         -31.0047   48.1446    0.6621 C.ar    1  UNL1        0.0535
     35 C         -29.8986   47.6958    1.3984 C.ar    1  UNL1        0.0353
     36 C         -29.3665   48.5089    2.4020 C.ar    1  UNL1        0.1002
     37 N         -29.9255   49.7196    2.6672 N.ar    1  UNL1       -0.2422
     38 C         -31.0075   50.1709    1.9787 C.ar    1  UNL1        0.1002
     39 C         -31.5733   49.3863    0.9708 C.ar    1  UNL1        0.0353
     40 C         -28.6858   48.1831   -1.7231 C.3     1  UNL1        0.0569
     41 C         -27.9924   46.9456   -2.2164 C.ar    1  UNL1       -0.0017
     42 C         -27.9132   45.7249   -1.5523 C.ar    1  UNL1        0.0681
     43 N         -27.1076   44.8722   -2.2251 N.ar    1  UNL1       -0.3523
     44 C         -26.6672   45.5475   -3.3009 C.ar    1  UNL1        0.0563
     45 C         -25.7770   45.0968   -4.2746 C.ar    1  UNL1        0.0170
     46 C         -25.4188   45.9892   -5.3018 C.ar    1  UNL1        0.0015
     47 C         -25.9508   47.2971   -5.3311 C.ar    1  UNL1        0.0001
     48 C         -26.8467   47.7245   -4.3346 C.ar    1  UNL1        0.0012
     49 C         -27.1841   46.8175   -3.3297 C.ar    1  UNL1        0.0131
     50 H         -26.8591   43.8967   -1.9473 H       1  UNL1        0.1660
@<TRIPOS>BOND
     1    26    27    1
     2    27    28    2
     3    27     5    1
     4     5     6   ar
     5     6    12    1
     6    12    13    1
     7    13    14    1
     8    14    15    1
     9    15    18    1
    10    18    19   ar
    11    19    20   ar
    12    20    21    1
    13    20    22   ar
    14    22    23   ar
    15    23    24    1
    16    23    25   ar
    17    15    16    1
    18    16    17    1
    19     6     7   ar
    20     7     8   ar
    21     8     9   ar
    22     9     1    1
    23     1     2    2
    24     1     3   am
    25     3    29    1
    26    29    40    1
    27    40    41    1
    28    41    42   ar
    29    42    43   ar
    30    43    44   ar
    31    44    45   ar
    32    45    46   ar
    33    46    47   ar
    34    47    48   ar
    35    48    49   ar
    36    29    30    1
    37    30    31    2
    38    30    32   am
    39    32    34    1
    40    34    35   ar
    41    35    36   ar
    42    36    37   ar
    43    37    38   ar
    44    38    39   ar
    45     9    10   ar
    46    10    11    1
    47    10     5   ar
    48    17    12    1
    49    49    41   ar
    50    39    34   ar
    51    25    18   ar
    52    49    44   ar
    53     3     4    1
    54    43    50    1
    55    32    33    1
@<TRIPOS>MOLECULE
*****
 50 55 0 0 0
SMALL
GASTEIGER

@<TRIPOS>ATOM
      1 C         -30.3106   48.0662   -5.4067 C.2     1  UNL1        0.2483
      2 O         -30.2090   49.1682   -4.8010 O.2     1  UNL1       -0.2701
      3 N         -30.4190   46.8442   -4.6556 N.am    1  UNL1       -0.2945
      4 H         -30.4290   45.9290   -5.1584 H       1  UNL1        0.1501
      5 C         -29.5771   47.3664   -9.0854 C.ar    1  UNL1        0.0756
      6 C         -30.6684   48.0331   -9.6893 C.ar    1  UNL1        0.0529
      7 C         -31.5835   48.7297   -8.8924 C.ar    1  UNL1        0.0149
      8 C         -31.4450   48.7500   -7.5068 C.ar    1  UNL1        0.0080
      9 C         -30.3930   48.0635   -6.8847 C.ar    1  UNL1        0.0809
     10 C         -29.4450   47.3917   -7.6810 C.ar    1  UNL1        0.1483
     11 F         -28.3498   46.8373   -7.1027 F       1  UNL1       -0.2039
     12 N         -30.8907   47.9669  -11.1073 N.pl3   1  UNL1       -0.3039
     13 C         -30.8972   49.1976  -11.9045 C.3     1  UNL1        0.1122
     14 C         -30.1179   48.9791  -13.2030 C.3     1  UNL1        0.1122
     15 N         -30.5579   47.7578  -13.8996 N.pl3   1  UNL1       -0.3040
     16 C         -31.4551   46.8058  -13.2249 C.3     1  UNL1        0.1122
     17 C         -31.0791   46.6590  -11.7462 C.3     1  UNL1        0.1122
     18 C         -30.2195   47.5745  -15.2921 C.ar    1  UNL1        0.0496
     19 C         -30.5176   46.3659  -15.9501 C.ar    1  UNL1        0.0260
     20 C         -30.1934   46.1934  -17.3001 C.ar    1  UNL1        0.0597
     21 CL        -30.5742   44.6833  -18.1073 Cl      1  UNL1       -0.0822
     22 C         -29.5704   47.2250  -18.0075 C.ar    1  UNL1        0.0229
     23 C         -29.2720   48.4310  -17.3674 C.ar    1  UNL1        0.0597
     24 CL        -28.4884   49.7242  -18.2569 Cl      1  UNL1       -0.0822
     25 C         -29.5956   48.6067  -16.0177 C.ar    1  UNL1        0.0260
     26 C         -28.4457   45.1963   -9.9668 C.3     1  UNL1        0.0774
     27 C         -28.5524   46.6889   -9.9170 C.2     1  UNL1        0.1769
     28 O         -27.7301   47.3784  -10.5783 O.2     1  UNL1       -0.2912
     29 C         -30.6249   46.8238   -3.2019 C.3     1  UNL1        0.1535
     30 C         -30.3746   45.4224   -2.6701 C.2     1  UNL1        0.2443
     31 O         -31.3500   44.6609   -2.4268 O.2     1  UNL1       -0.2730
     32 N         -29.0453   44.9331   -2.4210 N.am    1  UNL1       -0.2825
     33 H         -28.9298   44.1870   -1.6984 H       1  UNL1        0.1549
     34 C         -27.8610   45.4664   -3.0309 C.ar    1  UNL1        0.0535
     35 C         -27.0413   46.3751   -2.3458 C.ar    1  UNL1        0.0353
     36 C         -25.8945   46.8711   -2.9708 C.ar    1  UNL1        0.1002
     37 N         -25.5849   46.4824   -4.2364 N.ar    1  UNL1       -0.2422
     38 C         -26.3712   45.6150   -4.9277 C.ar    1  UNL1        0.1002
     39 C         -27.5296   45.0998   -4.3410 C.ar    1  UNL1        0.0353
     40 C         -29.7045   47.8655   -2.5341 C.3     1  UNL1        0.0569
     41 C         -30.4500   48.6823   -1.5180 C.ar    1  UNL1       -0.0017
     42 C         -31.1393   49.8674   -1.7583 C.ar    1  UNL1        0.0681
     43 N         -31.5838   50.3994   -0.5970 N.ar    1  UNL1       -0.3523
     44 C         -31.1702   49.5680    0.3750 C.ar    1  UNL1        0.0563
     45 C         -31.3544   49.7173    1.7489 C.ar    1  UNL1        0.0170
     46 C         -30.8012   48.7402    2.5967 C.ar    1  UNL1        0.0015
     47 C         -30.0831   47.6495    2.0586 C.ar    1  UNL1        0.0001
     48 C         -29.9127   47.5252    0.6680 C.ar    1  UNL1        0.0012
     49 C         -30.4734   48.5086   -0.1474 C.ar    1  UNL1        0.0131
     50 H         -32.1165   51.2901   -0.4812 H       1  UNL1        0.1660
@<TRIPOS>BOND
     1    26    27    1
     2    27    28    2
     3    27     5    1
     4     5     6   ar
     5     6    12    1
     6    12    13    1
     7    13    14    1
     8    14    15    1
     9    15    18    1
    10    18    19   ar
    11    19    20   ar
    12    20    21    1
    13    20    22   ar
    14    22    23   ar
    15    23    24    1
    16    23    25   ar
    17    15    16    1
    18    16    17    1
    19     6     7   ar
    20     7     8   ar
    21     8     9   ar
    22     9     1    1
    23     1     2    2
    24     1     3   am
    25     3    29    1
    26    29    40    1
    27    40    41    1
    28    41    42   ar
    29    42    43   ar
    30    43    44   ar
    31    44    45   ar
    32    45    46   ar
    33    46    47   ar
    34    47    48   ar
    35    48    49   ar
    36    29    30    1
    37    30    31    2
    38    30    32   am
    39    32    34    1
    40    34    35   ar
    41    35    36   ar
    42    36    37   ar
    43    37    38   ar
    44    38    39   ar
    45     9    10   ar
    46    10    11    1
    47    10     5   ar
    48    17    12    1
    49    49    41   ar
    50    39    34   ar
    51    25    18   ar
    52    49    44   ar
    53     3     4    1
    54    43    50    1
    55    32    33    1
@<TRIPOS>MOLECULE
*****
 50 55 0 0 0
SMALL
GASTEIGER

@<TRIPOS>ATOM
      1 C         -25.9980   50.0202   -9.9527 C.2     1  UNL1        0.2483
      2 O         -26.6574   50.2220  -11.0091 O.2     1  UNL1       -0.2701
      3 N         -26.4342   49.0180   -9.0174 N.am    1  UNL1       -0.2945
      4 H         -25.9288   48.9041   -8.1107 H       1  UNL1        0.1501
      5 C         -22.8377   52.0690  -10.5652 C.ar    1  UNL1        0.0756
      6 C         -22.4025   52.2618   -9.2334 C.ar    1  UNL1        0.0529
      7 C         -23.1174   51.6834   -8.1788 C.ar    1  UNL1        0.0149
      8 C         -24.2699   50.9419   -8.4265 C.ar    1  UNL1        0.0080
      9 C         -24.7409   50.7710   -9.7358 C.ar    1  UNL1        0.0809
     10 C         -24.0066   51.3169  -10.8067 C.ar    1  UNL1        0.1483
     11 F         -24.3755   51.0469  -12.0844 F       1  UNL1       -0.2039
     12 N         -21.2657   53.0875   -8.9323 N.pl3   1  UNL1       -0.3039
     13 C         -20.8501   54.1312   -9.8748 C.3     1  UNL1        0.1122
     14 C         -20.5016   55.4108   -9.1116 C.3     1  UNL1        0.1122
     15 N         -19.5750   55.1418   -7.9982 N.pl3   1  UNL1       -0.3040
     16 C         -19.2849   53.7554   -7.5979 C.3     1  UNL1        0.1122
     17 C         -20.5509   52.8939   -7.6652 C.3     1  UNL1        0.1122
     18 C         -18.8477   56.2376   -7.4002 C.ar    1  UNL1        0.0496
     19 C         -19.3722   57.5440   -7.4224 C.ar    1  UNL1        0.0260
     20 C         -18.6680   58.6021   -6.8378 C.ar    1  UNL1        0.0597
     21 CL        -19.3358   60.2239   -6.8702 Cl      1  UNL1       -0.0822
     22 C         -17.4348   58.3674   -6.2238 C.ar    1  UNL1        0.0229
     23 C         -16.9044   57.0749   -6.1918 C.ar    1  UNL1        0.0597
     24 CL        -15.3553   56.7827   -5.4220 Cl      1  UNL1       -0.0822
     25 C         -17.6066   56.0146   -6.7750 C.ar    1  UNL1        0.0260
     26 C         -22.5627   53.7324  -12.5460 C.3     1  UNL1        0.0774
     27 C         -22.0507   52.6067  -11.7018 C.2     1  UNL1        0.1769
     28 O         -20.9367   52.0913  -11.9886 O.2     1  UNL1       -0.2912
     29 C         -27.5061   48.0624   -9.3234 C.3     1  UNL1        0.1535
     30 C         -26.9801   46.6434   -9.1857 C.2     1  UNL1        0.2443
     31 O         -26.0174   46.4045   -8.4069 O.2     1  UNL1       -0.2730
     32 N         -27.5438   45.5510   -9.9324 N.am    1  UNL1       -0.2825
     33 H         -26.9273   44.7319  -10.1351 H       1  UNL1        0.1549
     34 C         -28.8637   45.5535  -10.4952 C.ar    1  UNL1        0.0535
     35 C         -29.0916   46.0070  -11.8026 C.ar    1  UNL1        0.0353
     36 C         -30.3900   45.9922  -12.3178 C.ar    1  UNL1        0.1002
     37 N         -31.4231   45.5514  -11.5515 N.ar    1  UNL1       -0.2422
     38 C         -31.2312   45.1215  -10.2760 C.ar    1  UNL1        0.1002
     39 C         -29.9491   45.1251   -9.7212 C.ar    1  UNL1        0.0353
     40 C         -28.7110   48.3218   -8.3965 C.3     1  UNL1        0.0569
     41 C         -28.5693   49.6274   -7.6678 C.ar    1  UNL1       -0.0017
     42 C         -29.0589   50.8615   -8.0853 C.ar    1  UNL1        0.0681
     43 N         -28.6410   51.8420   -7.2528 N.ar    1  UNL1       -0.3523
     44 C         -27.8815   51.2398   -6.3212 C.ar    1  UNL1        0.0563
     45 C         -27.1964   51.8463   -5.2692 C.ar    1  UNL1        0.0170
     46 C         -26.4234   51.0253   -4.4277 C.ar    1  UNL1        0.0015
     47 C         -26.3520   49.6332   -4.6551 C.ar    1  UNL1        0.0001
     48 C         -27.0537   49.0491   -5.7250 C.ar    1  UNL1        0.0012
     49 C         -27.8125   49.8879   -6.5415 C.ar    1  UNL1        0.0131
     50 H         -28.8467   52.8624   -7.3360 H       1  UNL1        0.1660
@<TRIPOS>BOND
     1    26    27    1
     2    27    28    2
     3    27     5    1
     4     5     6   ar
     5     6    12    1
     6    12    13    1
     7    13    14    1
     8    14    15    1
     9    15    18    1
    10    18    19   ar
    11    19    20   ar
    12    20    21    1
    13    20    22   ar
    14    22    23   ar
    15    23    24    1
    16    23    25   ar
    17    15    16    1
    18    16    17    1
    19     6     7   ar
    20     7     8   ar
    21     8     9   ar
    22     9     1    1
    23     1     2    2
    24     1     3   am
    25     3    29    1
    26    29    40    1
    27    40    41    1
    28    41    42   ar
    29    42    43   ar
    30    43    44   ar
    31    44    45   ar
    32    45    46   ar
    33    46    47   ar
    34    47    48   ar
    35    48    49   ar
    36    29    30    1
    37    30    31    2
    38    30    32   am
    39    32    34    1
    40    34    35   ar
    41    35    36   ar
    42    36    37   ar
    43    37    38   ar
    44    38    39   ar
    45     9    10   ar
    46    10    11    1
    47    10     5   ar
    48    17    12    1
    49    49    41   ar
    50    39    34   ar
    51    25    18   ar
    52    49    44   ar
    53     3     4    1
    54    43    50    1
    55    32    33    1
@<TRIPOS>MOLECULE
*****
 50 55 0 0 0
SMALL
GASTEIGER

@<TRIPOS>ATOM
      1 C         -29.9289   48.4250   -3.6279 C.2     1  UNL1        0.2483
      2 O         -29.4942   49.4035   -2.9607 O.2     1  UNL1       -0.2701
      3 N         -30.3402   47.2240   -2.9514 N.am    1  UNL1       -0.2945
      4 H         -30.6299   46.3908   -3.5103 H       1  UNL1        0.1501
      5 C         -29.1383   48.6919   -7.3514 C.ar    1  UNL1        0.0756
      6 C         -30.4482   48.7443   -7.8821 C.ar    1  UNL1        0.0529
      7 C         -31.5483   48.7398   -7.0175 C.ar    1  UNL1        0.0149
      8 C         -31.3661   48.6567   -5.6393 C.ar    1  UNL1        0.0080
      9 C         -30.0780   48.5644   -5.0941 C.ar    1  UNL1        0.0809
     10 C         -28.9633   48.6071   -5.9540 C.ar    1  UNL1        0.1483
     11 F         -27.7110   48.6539   -5.4334 F       1  UNL1       -0.2039
     12 N         -30.6787   48.7486   -9.3004 N.pl3   1  UNL1       -0.3039
     13 C         -30.2895   49.9139  -10.1008 C.3     1  UNL1        0.1122
     14 C         -29.6202   49.4529  -11.3973 C.3     1  UNL1        0.1122
     15 N         -30.4281   48.4351  -12.0915 N.pl3   1  UNL1       -0.3040
     16 C         -31.5839   47.8233  -11.4159 C.3     1  UNL1        0.1122
     17 C         -31.2761   47.5683   -9.9361 C.3     1  UNL1        0.1122
     18 C         -30.1651   48.1487  -13.4829 C.ar    1  UNL1        0.0496
     19 C         -29.7842   49.1757  -14.3675 C.ar    1  UNL1        0.0260
     20 C         -29.5252   48.8942  -15.7132 C.ar    1  UNL1        0.0597
     21 CL        -29.0480   50.1837  -16.8027 Cl      1  UNL1       -0.0822
     22 C         -29.6416   47.5856  -16.1895 C.ar    1  UNL1        0.0229
     23 C         -30.0155   46.5563  -15.3213 C.ar    1  UNL1        0.0597
     24 CL        -30.1628   44.9144  -15.9216 Cl      1  UNL1       -0.0822
     25 C         -30.2746   46.8345  -13.9749 C.ar    1  UNL1        0.0260
     26 C         -27.0696   49.9806   -8.2601 C.3     1  UNL1        0.0774
     27 C         -27.9577   48.7752   -8.2455 C.2     1  UNL1        0.1769
     28 O         -27.7048   47.8256   -9.0351 O.2     1  UNL1       -0.2912
     29 C         -30.4751   47.1440   -1.4915 C.3     1  UNL1        0.1535
     30 C         -30.1686   45.7300   -1.0268 C.2     1  UNL1        0.2443
     31 O         -30.9350   45.1612   -0.2025 O.2     1  UNL1       -0.2730
     32 N         -29.0121   45.0135   -1.4934 N.am    1  UNL1       -0.2825
     33 H         -28.6171   44.2716   -0.8723 H       1  UNL1        0.1549
     34 C         -28.3123   45.3138   -2.7096 C.ar    1  UNL1        0.0535
     35 C         -28.8007   44.8802   -3.9508 C.ar    1  UNL1        0.0353
     36 C         -28.0937   45.1939   -5.1141 C.ar    1  UNL1        0.1002
     37 N         -26.9368   45.9042   -5.0387 N.ar    1  UNL1       -0.2422
     38 C         -26.4339   46.3226   -3.8469 C.ar    1  UNL1        0.1002
     39 C         -27.1074   46.0253   -2.6596 C.ar    1  UNL1        0.0353
     40 C         -29.5468   48.1815   -0.8283 C.3     1  UNL1        0.0569
     41 C         -30.2773   48.9846    0.2095 C.ar    1  UNL1       -0.0017
     42 C         -31.2228   49.9773   -0.0315 C.ar    1  UNL1        0.0681
     43 N         -31.5817   50.5790    1.1253 N.ar    1  UNL1       -0.3523
     44 C         -30.8620   49.9841    2.0925 C.ar    1  UNL1        0.0563
     45 C         -30.8583   50.2914    3.4524 C.ar    1  UNL1        0.0170
     46 C         -29.9930   49.5628    4.2890 C.ar    1  UNL1        0.0015
     47 C         -29.1593   48.5564    3.7534 C.ar    1  UNL1        0.0001
     48 C         -29.1839   48.2685    2.3769 C.ar    1  UNL1        0.0012
     49 C         -30.0527   49.0065    1.5726 C.ar    1  UNL1        0.0131
     50 H         -32.2607   51.3645    1.2366 H       1  UNL1        0.1660
@<TRIPOS>BOND
     1    26    27    1
     2    27    28    2
     3    27     5    1
     4     5     6   ar
     5     6    12    1
     6    12    13    1
     7    13    14    1
     8    14    15    1
     9    15    18    1
    10    18    19   ar
    11    19    20   ar
    12    20    21    1
    13    20    22   ar
    14    22    23   ar
    15    23    24    1
    16    23    25   ar
    17    15    16    1
    18    16    17    1
    19     6     7   ar
    20     7     8   ar
    21     8     9   ar
    22     9     1    1
    23     1     2    2
    24     1     3   am
    25     3    29    1
    26    29    40    1
    27    40    41    1
    28    41    42   ar
    29    42    43   ar
    30    43    44   ar
    31    44    45   ar
    32    45    46   ar
    33    46    47   ar
    34    47    48   ar
    35    48    49   ar
    36    29    30    1
    37    30    31    2
    38    30    32   am
    39    32    34    1
    40    34    35   ar
    41    35    36   ar
    42    36    37   ar
    43    37    38   ar
    44    38    39   ar
    45     9    10   ar
    46    10    11    1
    47    10     5   ar
    48    17    12    1
    49    49    41   ar
    50    39    34   ar
    51    25    18   ar
    52    49    44   ar
    53     3     4    1
    54    43    50    1
    55    32    33    1
@<TRIPOS>MOLECULE
*****
 50 55 0 0 0
SMALL
GASTEIGER

@<TRIPOS>ATOM
      1 C         -25.9528   49.8690   -9.7241 C.2     1  UNL1        0.2483
      2 O         -26.6240   50.0005  -10.7841 O.2     1  UNL1       -0.2701
      3 N         -26.3618   48.9107   -8.7323 N.am    1  UNL1       -0.2945
      4 H         -25.8474   48.8559   -7.8252 H       1  UNL1        0.1501
      5 C         -22.8580   51.9729  -10.4703 C.ar    1  UNL1        0.0756
      6 C         -22.3960   52.2134   -9.1554 C.ar    1  UNL1        0.0529
      7 C         -23.0715   51.6486   -8.0680 C.ar    1  UNL1        0.0149
      8 C         -24.2114   50.8736   -8.2668 C.ar    1  UNL1        0.0080
      9 C         -24.7091   50.6548   -9.5589 C.ar    1  UNL1        0.0809
     10 C         -24.0139   51.1872  -10.6622 C.ar    1  UNL1        0.1483
     11 F         -24.4065   50.8726  -11.9225 F       1  UNL1       -0.2039
     12 N         -21.2725   53.0736   -8.9052 N.pl3   1  UNL1       -0.3039
     13 C         -20.9698   54.1690   -9.8318 C.3     1  UNL1        0.1122
     14 C         -20.6145   55.4318   -9.0443 C.3     1  UNL1        0.1122
     15 N         -19.5968   55.1592   -8.0145 N.pl3   1  UNL1       -0.3040
     16 C         -19.2239   53.7718   -7.6943 C.3     1  UNL1        0.1122
     17 C         -20.4571   52.8615   -7.7034 C.3     1  UNL1        0.1122
     18 C         -18.8694   56.2606   -7.4270 C.ar    1  UNL1        0.0496
     19 C         -17.6332   56.0449   -6.7885 C.ar    1  UNL1        0.0260
     20 C         -16.9287   57.1143   -6.2252 C.ar    1  UNL1        0.0597
     21 CL        -15.3879   56.8307   -5.4359 Cl      1  UNL1       -0.0822
     22 C         -17.4491   58.4094   -6.2948 C.ar    1  UNL1        0.0229
     23 C         -18.6734   58.6378   -6.9287 C.ar    1  UNL1        0.0597
     24 CL        -19.3258   60.2641   -7.0135 Cl      1  UNL1       -0.0822
     25 C         -19.3800   57.5706   -7.4935 C.ar    1  UNL1        0.0260
     26 C         -22.6233   53.6522  -12.4428 C.3     1  UNL1        0.0774
     27 C         -22.1114   52.4964  -11.6403 C.2     1  UNL1        0.1769
     28 O         -21.0344   51.9436  -11.9915 O.2     1  UNL1       -0.2912
     29 C         -27.4167   47.9192   -8.9769 C.3     1  UNL1        0.1535
     30 C         -26.7952   46.5426   -9.1444 C.2     1  UNL1        0.2443
     31 O         -25.7244   46.2608   -8.5409 O.2     1  UNL1       -0.2730
     32 N         -27.3895   45.5410   -9.9883 N.am    1  UNL1       -0.2825
     33 H         -26.7591   44.8159  -10.3995 H       1  UNL1        0.1549
     34 C         -28.7710   45.5277  -10.3760 C.ar    1  UNL1        0.0535
     35 C         -29.7532   44.9864   -9.5339 C.ar    1  UNL1        0.0353
     36 C         -31.0887   44.9934   -9.9439 C.ar    1  UNL1        0.1002
     37 N         -31.4280   45.5115  -11.1544 N.ar    1  UNL1       -0.2422
     38 C         -30.4931   46.0277  -11.9958 C.ar    1  UNL1        0.1002
     39 C         -29.1460   46.0351  -11.6260 C.ar    1  UNL1        0.0353
     40 C         -28.4370   47.9530   -7.8211 C.3     1  UNL1        0.0569
     41 C         -27.7566   48.1486   -6.4965 C.ar    1  UNL1       -0.0017
     42 C         -27.5366   47.1708   -5.5307 C.ar    1  UNL1        0.0681
     43 N         -27.0134   47.7212   -4.4116 N.ar    1  UNL1       -0.3523
     44 C         -26.9133   49.0391   -4.6574 C.ar    1  UNL1        0.0563
     45 C         -26.4640   50.0291   -3.7846 C.ar    1  UNL1        0.0170
     46 C         -26.4780   51.3610   -4.2377 C.ar    1  UNL1        0.0015
     47 C         -26.9370   51.6700   -5.5371 C.ar    1  UNL1        0.0001
     48 C         -27.3852   50.6502   -6.3958 C.ar    1  UNL1        0.0012
     49 C         -27.3586   49.3392   -5.9194 C.ar    1  UNL1        0.0131
     50 H         -26.7645   47.2235   -3.5280 H       1  UNL1        0.1660
@<TRIPOS>BOND
     1    26    27    1
     2    27    28    2
     3    27     5    1
     4     5     6   ar
     5     6    12    1
     6    12    13    1
     7    13    14    1
     8    14    15    1
     9    15    18    1
    10    18    19   ar
    11    19    20   ar
    12    20    21    1
    13    20    22   ar
    14    22    23   ar
    15    23    24    1
    16    23    25   ar
    17    15    16    1
    18    16    17    1
    19     6     7   ar
    20     7     8   ar
    21     8     9   ar
    22     9     1    1
    23     1     2    2
    24     1     3   am
    25     3    29    1
    26    29    40    1
    27    40    41    1
    28    41    42   ar
    29    42    43   ar
    30    43    44   ar
    31    44    45   ar
    32    45    46   ar
    33    46    47   ar
    34    47    48   ar
    35    48    49   ar
    36    29    30    1
    37    30    31    2
    38    30    32   am
    39    32    34    1
    40    34    35   ar
    41    35    36   ar
    42    36    37   ar
    43    37    38   ar
    44    38    39   ar
    45     9    10   ar
    46    10    11    1
    47    10     5   ar
    48    17    12    1
    49    49    41   ar
    50    39    34   ar
    51    25    18   ar
    52    49    44   ar
    53     3     4    1
    54    43    50    1
    55    32    33    1
