@<TRIPOS>MOLECULE
*****
 58 62 0 0 0
SMALL
GASTEIGER

@<TRIPOS>ATOM
      1 C         -25.6981   -6.6921  -14.1673 C.ar    1  UNL1        0.0548
      2 C         -26.2378   -7.6167  -13.2626 C.ar    1  UNL1        0.0077
      3 C         -25.4674   -8.6875  -12.8060 C.ar    1  UNL1        0.0390
      4 C         -24.1245   -8.8234  -13.2055 C.ar    1  UNL1        0.1598
      5 C         -23.5848   -7.9144  -14.1339 C.ar    1  UNL1        0.0993
      6 C         -24.3902   -6.8780  -14.6352 C.ar    1  UNL1        0.0235
      7 N         -26.4089   -5.0741  -15.9826 N.am    1  UNL1       -0.3040
      8 C         -26.4790   -5.5192  -14.6136 C.2     1  UNL1        0.2458
      9 O         -27.2403   -4.9424  -13.7911 O.2     1  UNL1       -0.2701
     10 H         -25.8314   -5.6479  -16.6386 H       1  UNL1        0.1496
     11 C         -26.5026   -2.6180  -16.0075 C.3     1  UNL1        0.0196
     12 C         -27.1431   -3.9186  -16.5355 C.3     1  UNL1        0.0572
     13 C         -27.0565   -3.9139  -18.0753 C.3     1  UNL1        0.0196
     14 C         -28.6149   -3.9587  -16.0815 C.3     1  UNL1        0.0196
     15 N         -22.2023   -8.0073  -14.5175 N.pl3   1  UNL1       -0.2120
     16 H         -21.4861   -7.4421  -14.0097 H       1  UNL1        0.1738
     17 S         -21.7366   -8.6996  -16.0401 S.O2    1  UNL1        0.0745
     18 O         -20.2731   -8.4495  -16.2755 O.2     1  UNL1       -0.1499
     19 O         -22.5197   -8.0610  -17.1525 O.2     1  UNL1       -0.1499
     20 C         -22.0822  -10.4335  -15.9940 C.ar    1  UNL1        0.1356
     21 C         -21.5829  -11.2075  -14.9353 C.ar    1  UNL1        0.0207
     22 C         -22.0045  -12.5269  -14.7621 C.ar    1  UNL1       -0.0028
     23 C         -22.9364  -13.0915  -15.6425 C.ar    1  UNL1       -0.0216
     24 C         -23.3825  -12.3465  -16.7436 C.ar    1  UNL1        0.0085
     25 C         -22.9715  -11.0200  -16.9177 C.ar    1  UNL1        0.0762
     26 CL        -23.6212  -10.1185  -18.2833 Cl      1  UNL1       -0.0809
     27 C         -23.4093  -14.5042  -15.4346 C.3     1  UNL1        0.0224
     28 C         -24.7215  -14.6253  -14.6690 C.3     1  UNL1        0.0047
     29 C         -24.6939  -14.8775  -16.1646 C.3     1  UNL1        0.0047
     30 O         -23.3089   -9.8493  -12.7010 O.3     1  UNL1       -0.4513
     31 C         -22.3889   -9.7046  -11.6538 C.ar    1  UNL1        0.1580
     32 C         -21.0731   -9.3512  -11.9700 C.ar    1  UNL1        0.0677
     33 C         -20.1145   -9.2028  -10.9645 C.ar    1  UNL1        0.1398
     34 F         -18.8385   -8.8912  -11.3068 F       1  UNL1       -0.2044
     35 C         -20.4713   -9.3821   -9.6169 C.ar    1  UNL1        0.0175
     36 C         -21.7948   -9.7224   -9.2962 C.ar    1  UNL1        0.0130
     37 C         -22.7563   -9.8726  -10.3019 C.ar    1  UNL1        0.0919
     38 CL        -24.4159  -10.2116   -9.8262 Cl      1  UNL1       -0.0791
     39 C         -19.4398   -9.2700   -8.5267 C.3     1  UNL1        0.1382
     40 C         -19.6965   -8.0452   -7.7100 C.2     1  UNL1        0.3234
     41 O         -19.5106   -6.9039   -8.2141 O.2     1  UNL1       -0.2497
     42 O         -20.1902   -8.1805   -6.4089 O.3     1  UNL1       -0.4215
     43 C         -19.3966   -7.9434   -5.2492 C.3     1  UNL1        0.3207
     44 O         -18.0365   -8.1765   -5.5580 O.3     1  UNL1       -0.3070
     45 C         -17.1988   -7.6560   -4.5352 C.3     1  UNL1        0.2456
     46 C         -17.6555   -8.0651   -3.0953 C.3     1  UNL1        0.1781
     47 O         -18.2337   -6.9620   -2.4449 O.3     1  UNL1       -0.3790
     48 C         -18.6833   -9.2168   -3.1418 C.3     1  UNL1        0.1733
     49 O         -18.0417  -10.4010   -3.5460 O.3     1  UNL1       -0.3793
     50 C         -19.8419   -8.9065   -4.1271 C.3     1  UNL1        0.2106
     51 O         -20.9670   -8.3977   -3.4533 O.3     1  UNL1       -0.3766
     52 H         -17.4892   -6.3566   -2.1894 H       1  UNL1        0.2106
     53 H         -17.5216  -10.7297   -2.7666 H       1  UNL1        0.2105
     54 H         -20.6934   -7.5629   -2.9921 H       1  UNL1        0.2107
     55 C         -15.7992   -8.1338   -4.7884 C.2     1  UNL1        0.3439
     56 O         -15.5244   -9.3604   -4.6972 O.2     1  UNL1       -0.2475
     57 O         -14.8129   -7.2292   -5.1704 O.3     1  UNL1       -0.4785
     58 H         -13.8682   -7.5406   -5.3620 H       1  UNL1        0.2951
@<TRIPOS>BOND
     1    11    12    1
     2    12    13    1
     3    12    14    1
     4    12     7    1
     5     7     8   am
     6     8     9    2
     7     8     1    1
     8     1     2   ar
     9     2     3   ar
    10     3     4   ar
    11     4    30    1
    12    30    31    1
    13    31    32   ar
    14    32    33   ar
    15    33    34    1
    16    33    35   ar
    17    35    39    1
    18    39    40    1
    19    40    41    2
    20    40    42    1
    21    42    43    1
    22    43    44    1
    23    44    45    1
    24    45    55    1
    25    55    56    2
    26    55    57    1
    27    45    46    1
    28    46    47    1
    29    46    48    1
    30    48    49    1
    31    48    50    1
    32    50    51    1
    33    35    36   ar
    34    36    37   ar
    35    37    38    1
    36     4     5   ar
    37     5    15    1
    38    15    17    1
    39    17    18    2
    40    17    19    2
    41    17    20    1
    42    20    21   ar
    43    21    22   ar
    44    22    23   ar
    45    23    27    1
    46    27    28    1
    47    28    29    1
    48    23    24   ar
    49    24    25   ar
    50    25    26    1
    51     5     6   ar
    52     6     1   ar
    53    37    31   ar
    54    25    20   ar
    55    50    43    1
    56    29    27    1
    57     7    10    1
    58    57    58    1
    59    47    52    1
    60    49    53    1
    61    51    54    1
    62    15    16    1
@<TRIPOS>MOLECULE
*****
 58 62 0 0 0
SMALL
GASTEIGER

@<TRIPOS>ATOM
      1 C         -25.8953   -6.6762  -14.2340 C.ar    1  UNL1        0.0548
      2 C         -26.4351   -7.5993  -13.3280 C.ar    1  UNL1        0.0077
      3 C         -25.6494   -8.6407  -12.8311 C.ar    1  UNL1        0.0390
      4 C         -24.2928   -8.7469  -13.1911 C.ar    1  UNL1        0.1598
      5 C         -23.7519   -7.8397  -14.1206 C.ar    1  UNL1        0.0993
      6 C         -24.5704   -6.8344  -14.6624 C.ar    1  UNL1        0.0235
      7 N         -26.4735   -4.9996  -16.0433 N.am    1  UNL1       -0.3040
      8 C         -26.6945   -5.5329  -14.7227 C.2     1  UNL1        0.2458
      9 O         -27.6013   -5.0609  -13.9853 O.2     1  UNL1       -0.2701
     10 H         -25.7710   -5.4914  -16.6416 H       1  UNL1        0.1496
     11 C         -27.0895   -3.9293  -18.1685 C.3     1  UNL1        0.0196
     12 C         -27.2109   -3.8639  -16.6318 C.3     1  UNL1        0.0572
     13 C         -28.7050   -3.9418  -16.2576 C.3     1  UNL1        0.0196
     14 C         -26.6061   -2.5315  -16.1493 C.3     1  UNL1        0.0196
     15 N         -22.3572   -7.9016  -14.4644 N.pl3   1  UNL1       -0.2120
     16 H         -21.6694   -7.3159  -13.9406 H       1  UNL1        0.1738
     17 S         -21.8319   -8.5921  -15.9683 S.O2    1  UNL1        0.0745
     18 O         -20.3652   -8.3218  -16.1565 O.2     1  UNL1       -0.1499
     19 O         -22.5872   -7.9685  -17.1081 O.2     1  UNL1       -0.1499
     20 C         -22.1542  -10.3306  -15.9271 C.ar    1  UNL1        0.1356
     21 C         -21.6826  -11.0932  -14.8476 C.ar    1  UNL1        0.0207
     22 C         -22.0913  -12.4178  -14.6839 C.ar    1  UNL1       -0.0028
     23 C         -22.9825  -12.9992  -15.5949 C.ar    1  UNL1       -0.0216
     24 C         -23.3990  -12.2651  -16.7148 C.ar    1  UNL1        0.0085
     25 C         -23.0009  -10.9335  -16.8797 C.ar    1  UNL1        0.0762
     26 CL        -23.6136  -10.0468  -18.2719 Cl      1  UNL1       -0.0809
     27 C         -23.4424  -14.4178  -15.3981 C.3     1  UNL1        0.0224
     28 C         -24.7231  -14.5599  -14.5842 C.3     1  UNL1        0.0047
     29 C         -24.7536  -14.7811  -16.0846 C.3     1  UNL1        0.0047
     30 O         -23.4644   -9.7413  -12.6459 O.3     1  UNL1       -0.4513
     31 C         -22.5657   -9.5493  -11.5879 C.ar    1  UNL1        0.1580
     32 C         -21.2572   -9.1590  -11.8907 C.ar    1  UNL1        0.0677
     33 C         -20.3194   -8.9626  -10.8738 C.ar    1  UNL1        0.1398
     34 F         -19.0490   -8.6158  -11.2025 F       1  UNL1       -0.2044
     35 C         -20.6910   -9.1306   -9.5288 C.ar    1  UNL1        0.0175
     36 C         -22.0076   -9.5080   -9.2218 C.ar    1  UNL1        0.0130
     37 C         -22.9483   -9.7062  -10.2389 C.ar    1  UNL1        0.0919
     38 CL        -24.6033  -10.0906   -9.7820 Cl      1  UNL1       -0.0791
     39 C         -19.6805   -8.9668   -8.4255 C.3     1  UNL1        0.1382
     40 C         -19.7200   -7.5663   -7.9057 C.2     1  UNL1        0.3234
     41 O         -20.5357   -6.7377   -8.3951 O.2     1  UNL1       -0.2497
     42 O         -18.8840   -7.2056   -6.8446 O.3     1  UNL1       -0.4215
     43 C         -18.7119   -8.0132   -5.6832 C.3     1  UNL1        0.3207
     44 O         -19.8788   -7.9428   -4.8878 O.3     1  UNL1       -0.3070
     45 C         -19.8681   -8.9630   -3.8989 C.3     1  UNL1        0.2456
     46 C         -18.5126   -9.0554   -3.1220 C.3     1  UNL1        0.1781
     47 O         -17.7986  -10.1916   -3.5385 O.3     1  UNL1       -0.3790
     48 C         -17.6450   -7.8006   -3.3619 C.3     1  UNL1        0.1733
     49 O         -18.2287   -6.6969   -2.7149 O.3     1  UNL1       -0.3793
     50 C         -17.5060   -7.4853   -4.8755 C.3     1  UNL1        0.2106
     51 O         -16.3004   -7.9889   -5.3966 O.3     1  UNL1       -0.3766
     52 H         -18.2476  -10.9781   -3.1314 H       1  UNL1        0.2106
     53 H         -18.0393   -6.7956   -1.7451 H       1  UNL1        0.2105
     54 H         -16.2984   -8.9720   -5.2626 H       1  UNL1        0.2107
     55 C         -20.9943   -8.7000   -2.9430 C.2     1  UNL1        0.3439
     56 O         -21.9572   -9.5092   -2.8636 O.2     1  UNL1       -0.2475
     57 O         -20.9540   -7.5866   -2.1088 O.3     1  UNL1       -0.4785
     58 H         -21.6987   -7.4067   -1.4461 H       1  UNL1        0.2951
@<TRIPOS>BOND
     1    11    12    1
     2    12    13    1
     3    12    14    1
     4    12     7    1
     5     7     8   am
     6     8     9    2
     7     8     1    1
     8     1     2   ar
     9     2     3   ar
    10     3     4   ar
    11     4    30    1
    12    30    31    1
    13    31    32   ar
    14    32    33   ar
    15    33    34    1
    16    33    35   ar
    17    35    39    1
    18    39    40    1
    19    40    41    2
    20    40    42    1
    21    42    43    1
    22    43    44    1
    23    44    45    1
    24    45    55    1
    25    55    56    2
    26    55    57    1
    27    45    46    1
    28    46    47    1
    29    46    48    1
    30    48    49    1
    31    48    50    1
    32    50    51    1
    33    35    36   ar
    34    36    37   ar
    35    37    38    1
    36     4     5   ar
    37     5    15    1
    38    15    17    1
    39    17    18    2
    40    17    19    2
    41    17    20    1
    42    20    21   ar
    43    21    22   ar
    44    22    23   ar
    45    23    27    1
    46    27    28    1
    47    28    29    1
    48    23    24   ar
    49    24    25   ar
    50    25    26    1
    51     5     6   ar
    52     6     1   ar
    53    37    31   ar
    54    25    20   ar
    55    50    43    1
    56    29    27    1
    57     7    10    1
    58    57    58    1
    59    47    52    1
    60    49    53    1
    61    51    54    1
    62    15    16    1
@<TRIPOS>MOLECULE
*****
 58 62 0 0 0
SMALL
GASTEIGER

@<TRIPOS>ATOM
      1 C         -18.6274   -9.5829   -7.8713 C.ar    1  UNL1        0.0548
      2 C         -18.2708  -10.6044   -8.7623 C.ar    1  UNL1        0.0077
      3 C         -18.7391  -10.5874  -10.0772 C.ar    1  UNL1        0.0390
      4 C         -19.5304   -9.5194  -10.5404 C.ar    1  UNL1        0.1598
      5 C         -19.9141   -8.5049   -9.6443 C.ar    1  UNL1        0.0993
      6 C         -19.4889   -8.5669   -8.3065 C.ar    1  UNL1        0.0235
      7 N         -18.3862   -8.4450   -5.6206 N.am    1  UNL1       -0.3040
      8 C         -18.0917   -9.5529   -6.4941 C.2     1  UNL1        0.2458
      9 O         -17.4117  -10.5305   -6.0810 O.2     1  UNL1       -0.2701
     10 H         -19.0305   -7.7088   -5.9896 H       1  UNL1        0.1496
     11 C         -18.4490   -6.9959   -3.6362 C.3     1  UNL1        0.0196
     12 C         -17.9054   -8.3117   -4.2310 C.3     1  UNL1        0.0572
     13 C         -18.4185   -9.4839   -3.3702 C.3     1  UNL1        0.0196
     14 C         -16.3657   -8.2613   -4.2050 C.3     1  UNL1        0.0196
     15 N         -20.6813   -7.3813  -10.1090 N.pl3   1  UNL1       -0.2120
     16 H         -20.2478   -6.6964  -10.7674 H       1  UNL1        0.1738
     17 S         -22.1440   -6.8985   -9.3078 S.O2    1  UNL1        0.0745
     18 O         -21.8848   -5.6568   -8.5012 O.2     1  UNL1       -0.1499
     19 O         -22.6023   -7.9888   -8.3805 O.2     1  UNL1       -0.1499
     20 C         -23.3833   -6.6077  -10.5356 C.ar    1  UNL1        0.1356
     21 C         -24.5404   -7.4015  -10.5479 C.ar    1  UNL1        0.0207
     22 C         -25.6197   -7.0679  -11.3679 C.ar    1  UNL1       -0.0028
     23 C         -25.5605   -5.9316  -12.1850 C.ar    1  UNL1       -0.0216
     24 C         -24.3794   -5.1770  -12.2306 C.ar    1  UNL1        0.0085
     25 C         -23.2973   -5.5001  -11.4039 C.ar    1  UNL1        0.0762
     26 CL        -21.8691   -4.4722  -11.4605 Cl      1  UNL1       -0.0809
     27 C         -26.7373   -5.5602  -13.0452 C.3     1  UNL1        0.0224
     28 C         -26.5390   -5.8196  -14.5338 C.3     1  UNL1        0.0047
     29 C         -27.4452   -6.7268  -13.7235 C.3     1  UNL1        0.0047
     30 O         -19.9503   -9.4434  -11.8784 O.3     1  UNL1       -0.4513
     31 C         -21.2698   -9.6136  -12.3186 C.ar    1  UNL1        0.1580
     32 C         -21.8671   -8.5768  -13.0430 C.ar    1  UNL1        0.0677
     33 C         -23.1832   -8.6920  -13.4974 C.ar    1  UNL1        0.1398
     34 F         -23.7449   -7.6550  -14.1693 F       1  UNL1       -0.2044
     35 C         -23.9143   -9.8672  -13.2528 C.ar    1  UNL1        0.0175
     36 C         -23.3119  -10.9147  -12.5387 C.ar    1  UNL1        0.0130
     37 C         -21.9940  -10.8011  -12.0817 C.ar    1  UNL1        0.0919
     38 CL        -21.2691  -12.1845  -11.2718 Cl      1  UNL1       -0.0791
     39 C         -25.3473   -9.9879  -13.6966 C.3     1  UNL1        0.1382
     40 C         -25.5528  -11.2917  -14.3972 C.2     1  UNL1        0.3234
     41 O         -25.9609  -12.2948  -13.7502 O.2     1  UNL1       -0.2497
     42 O         -25.3377  -11.3696  -15.7766 O.3     1  UNL1       -0.4215
     43 C         -24.1256  -11.8560  -16.3467 C.3     1  UNL1        0.3207
     44 O         -23.4423  -12.6428  -15.3909 O.3     1  UNL1       -0.3070
     45 C         -22.4053  -13.3895  -16.0121 C.3     1  UNL1        0.2456
     46 C         -21.5068  -12.5274  -16.9603 C.3     1  UNL1        0.1781
     47 O         -21.7989  -12.8285  -18.3012 O.3     1  UNL1       -0.3790
     48 C         -21.7323  -11.0182  -16.7232 C.3     1  UNL1        0.1733
     49 O         -21.1975  -10.6552  -15.4744 O.3     1  UNL1       -0.3793
     50 C         -23.2416  -10.6565  -16.7526 C.3     1  UNL1        0.2106
     51 O         -23.6264  -10.1593  -18.0109 O.3     1  UNL1       -0.3766
     52 H         -21.3938  -13.7149  -18.4913 H       1  UNL1        0.2106
     53 H         -20.2109  -10.6184  -15.5809 H       1  UNL1        0.2105
     54 H         -23.4425  -10.8634  -18.6853 H       1  UNL1        0.2107
     55 C         -21.5686  -14.0143  -14.9348 C.2     1  UNL1        0.3439
     56 O         -20.5756  -13.3949  -14.4672 O.2     1  UNL1       -0.2475
     57 O         -21.9157  -15.2588  -14.4171 O.3     1  UNL1       -0.4785
     58 H         -21.3704  -15.6842  -13.6771 H       1  UNL1        0.2951
@<TRIPOS>BOND
     1    11    12    1
     2    12    13    1
     3    12    14    1
     4    12     7    1
     5     7     8   am
     6     8     9    2
     7     8     1    1
     8     1     2   ar
     9     2     3   ar
    10     3     4   ar
    11     4    30    1
    12    30    31    1
    13    31    32   ar
    14    32    33   ar
    15    33    34    1
    16    33    35   ar
    17    35    39    1
    18    39    40    1
    19    40    41    2
    20    40    42    1
    21    42    43    1
    22    43    44    1
    23    44    45    1
    24    45    55    1
    25    55    56    2
    26    55    57    1
    27    45    46    1
    28    46    47    1
    29    46    48    1
    30    48    49    1
    31    48    50    1
    32    50    51    1
    33    35    36   ar
    34    36    37   ar
    35    37    38    1
    36     4     5   ar
    37     5    15    1
    38    15    17    1
    39    17    18    2
    40    17    19    2
    41    17    20    1
    42    20    21   ar
    43    21    22   ar
    44    22    23   ar
    45    23    27    1
    46    27    28    1
    47    28    29    1
    48    23    24   ar
    49    24    25   ar
    50    25    26    1
    51     5     6   ar
    52     6     1   ar
    53    37    31   ar
    54    25    20   ar
    55    50    43    1
    56    29    27    1
    57     7    10    1
    58    57    58    1
    59    47    52    1
    60    49    53    1
    61    51    54    1
    62    15    16    1
@<TRIPOS>MOLECULE
*****
 58 62 0 0 0
SMALL
GASTEIGER

@<TRIPOS>ATOM
      1 C         -19.0785   -9.1479   -6.7135 C.ar    1  UNL1        0.0548
      2 C         -18.2887  -10.0576   -7.4298 C.ar    1  UNL1        0.0077
      3 C         -18.2953  -10.0497   -8.8257 C.ar    1  UNL1        0.0390
      4 C         -19.0525   -9.0957   -9.5314 C.ar    1  UNL1        0.1598
      5 C         -19.8682   -8.1973   -8.8193 C.ar    1  UNL1        0.0993
      6 C         -19.9018   -8.2574   -7.4159 C.ar    1  UNL1        0.0235
      7 N         -19.3822   -7.8918   -4.5344 N.am    1  UNL1       -0.3040
      8 C         -19.0372   -9.1021   -5.2368 C.2     1  UNL1        0.2458
      9 O         -18.7395  -10.1487   -4.6006 O.2     1  UNL1       -0.2701
     10 H         -19.7090   -7.0847   -5.1132 H       1  UNL1        0.1496
     11 C         -19.2830   -6.2323   -2.7239 C.3     1  UNL1        0.0196
     12 C         -19.3753   -7.7339   -3.0665 C.3     1  UNL1        0.0572
     13 C         -20.6785   -8.2925   -2.4599 C.3     1  UNL1        0.0196
     14 C         -18.1524   -8.4498   -2.4616 C.3     1  UNL1        0.0196
     15 N         -20.6114   -7.1847   -9.5188 N.pl3   1  UNL1       -0.2120
     16 H         -20.1053   -6.4854  -10.1063 H       1  UNL1        0.1738
     17 S         -22.2592   -6.8303   -9.1023 S.O2    1  UNL1        0.0745
     18 O         -22.3311   -5.4730   -8.4603 O.2     1  UNL1       -0.1499
     19 O         -22.7707   -7.8526   -8.1266 O.2     1  UNL1       -0.1499
     20 C         -23.2321   -6.8839  -10.5783 C.ar    1  UNL1        0.1356
     21 C         -24.1739   -7.9107  -10.7457 C.ar    1  UNL1        0.0207
     22 C         -25.0919   -7.8655  -11.7962 C.ar    1  UNL1       -0.0028
     23 C         -25.0857   -6.7896  -12.6933 C.ar    1  UNL1       -0.0216
     24 C         -24.1003   -5.7990  -12.5737 C.ar    1  UNL1        0.0085
     25 C         -23.1832   -5.8330  -11.5170 C.ar    1  UNL1        0.0762
     26 CL        -22.0147   -4.5227  -11.3853 Cl      1  UNL1       -0.0809
     27 C         -26.0956   -6.7311  -13.8066 C.3     1  UNL1        0.0224
     28 C         -27.4591   -6.1889  -13.3952 C.3     1  UNL1        0.0047
     29 C         -26.5248   -5.3306  -14.2267 C.3     1  UNL1        0.0047
     30 O         -19.0162   -9.0209  -10.9333 O.3     1  UNL1       -0.4513
     31 C         -20.1152   -9.2236  -11.7788 C.ar    1  UNL1        0.1580
     32 C         -20.5046   -8.1792  -12.6238 C.ar    1  UNL1        0.0677
     33 C         -21.5988   -8.3263  -13.4799 C.ar    1  UNL1        0.1398
     34 F         -21.9712   -7.2826  -14.2638 F       1  UNL1       -0.2044
     35 C         -22.3060   -9.5402  -13.5196 C.ar    1  UNL1        0.0175
     36 C         -21.9080  -10.5947  -12.6830 C.ar    1  UNL1        0.0130
     37 C         -20.8128  -10.4492  -11.8239 C.ar    1  UNL1        0.0919
     38 CL        -20.3116  -11.8385  -10.8678 Cl      1  UNL1       -0.0791
     39 C         -23.5140   -9.6980  -14.4033 C.3     1  UNL1        0.1382
     40 C         -23.0827   -9.9854  -15.8048 C.2     1  UNL1        0.3234
     41 O         -22.0091   -9.4907  -16.2454 O.2     1  UNL1       -0.2497
     42 O         -23.8522  -10.8437  -16.5961 O.3     1  UNL1       -0.4215
     43 C         -24.0084  -12.2311  -16.3105 C.3     1  UNL1        0.3207
     44 O         -24.8884  -12.3865  -15.2147 O.3     1  UNL1       -0.3070
     45 C         -25.3084  -13.7392  -15.1029 C.3     1  UNL1        0.2456
     46 C         -24.1260  -14.7614  -15.1838 C.3     1  UNL1        0.1781
     47 O         -24.1438  -15.4166  -16.4266 O.3     1  UNL1       -0.3790
     48 C         -22.7642  -14.0548  -15.0075 C.3     1  UNL1        0.1733
     49 O         -22.6298  -13.6226  -13.6761 O.3     1  UNL1       -0.3793
     50 C         -22.6309  -12.8312  -15.9533 C.3     1  UNL1        0.2106
     51 O         -21.9144  -13.1584  -17.1187 O.3     1  UNL1       -0.3766
     52 H         -24.8916  -16.0691  -16.3966 H       1  UNL1        0.2106
     53 H         -22.4248  -14.4260  -13.1296 H       1  UNL1        0.2105
     54 H         -22.4060  -13.8835  -17.5844 H       1  UNL1        0.2107
     55 C         -26.0389  -13.8965  -13.8018 C.2     1  UNL1        0.3439
     56 O         -27.2990  -13.9066  -13.7822 O.2     1  UNL1       -0.2475
     57 O         -25.3259  -14.0789  -12.6205 O.3     1  UNL1       -0.4785
     58 H         -25.8064  -14.2044  -11.7376 H       1  UNL1        0.2951
@<TRIPOS>BOND
     1    11    12    1
     2    12    13    1
     3    12    14    1
     4    12     7    1
     5     7     8   am
     6     8     9    2
     7     8     1    1
     8     1     2   ar
     9     2     3   ar
    10     3     4   ar
    11     4    30    1
    12    30    31    1
    13    31    32   ar
    14    32    33   ar
    15    33    34    1
    16    33    35   ar
    17    35    39    1
    18    39    40    1
    19    40    41    2
    20    40    42    1
    21    42    43    1
    22    43    44    1
    23    44    45    1
    24    45    55    1
    25    55    56    2
    26    55    57    1
    27    45    46    1
    28    46    47    1
    29    46    48    1
    30    48    49    1
    31    48    50    1
    32    50    51    1
    33    35    36   ar
    34    36    37   ar
    35    37    38    1
    36     4     5   ar
    37     5    15    1
    38    15    17    1
    39    17    18    2
    40    17    19    2
    41    17    20    1
    42    20    21   ar
    43    21    22   ar
    44    22    23   ar
    45    23    27    1
    46    27    28    1
    47    28    29    1
    48    23    24   ar
    49    24    25   ar
    50    25    26    1
    51     5     6   ar
    52     6     1   ar
    53    37    31   ar
    54    25    20   ar
    55    50    43    1
    56    29    27    1
    57     7    10    1
    58    57    58    1
    59    47    52    1
    60    49    53    1
    61    51    54    1
    62    15    16    1
@<TRIPOS>MOLECULE
*****
 58 62 0 0 0
SMALL
GASTEIGER

@<TRIPOS>ATOM
      1 C         -19.9754   -7.7577   -8.3551 C.ar    1  UNL1        0.0548
      2 C         -20.4964   -6.5077   -8.7166 C.ar    1  UNL1        0.0077
      3 C         -20.9017   -6.2667  -10.0304 C.ar    1  UNL1        0.0390
      4 C         -20.8426   -7.2895  -10.9956 C.ar    1  UNL1        0.1598
      5 C         -20.2959   -8.5379  -10.6463 C.ar    1  UNL1        0.0993
      6 C         -19.8323   -8.7477   -9.3367 C.ar    1  UNL1        0.0235
      7 N         -18.2729   -7.7449   -6.4790 N.am    1  UNL1       -0.3040
      8 C         -19.5984   -8.0494   -6.9561 C.2     1  UNL1        0.2458
      9 O         -20.4657   -8.5264   -6.1757 O.2     1  UNL1       -0.2701
     10 H         -17.6269   -7.2664   -7.1474 H       1  UNL1        0.1496
     11 C         -16.4092   -7.3267   -4.9320 C.3     1  UNL1        0.0196
     12 C         -17.7897   -7.9934   -5.1061 C.3     1  UNL1        0.0572
     13 C         -18.7600   -7.3803   -4.0759 C.3     1  UNL1        0.0196
     14 C         -17.6364   -9.5071   -4.8635 C.3     1  UNL1        0.0196
     15 N         -20.2710   -9.6102  -11.6038 N.pl3   1  UNL1       -0.2120
     16 H         -20.0592   -9.4039  -12.6053 H       1  UNL1        0.1738
     17 S         -20.9751  -11.1553  -11.2414 S.O2    1  UNL1        0.0745
     18 O         -21.8017  -11.0462   -9.9906 O.2     1  UNL1       -0.1499
     19 O         -19.8904  -12.1706  -11.0154 O.2     1  UNL1       -0.1499
     20 C         -21.9712  -11.6511  -12.6162 C.ar    1  UNL1        0.1356
     21 C         -21.4258  -12.5004  -13.5912 C.ar    1  UNL1        0.0207
     22 C         -22.2408  -13.0692  -14.5713 C.ar    1  UNL1       -0.0028
     23 C         -23.6157  -12.8013  -14.5887 C.ar    1  UNL1       -0.0216
     24 C         -24.1527  -11.8963  -13.6617 C.ar    1  UNL1        0.0085
     25 C         -23.3431  -11.3303  -12.6703 C.ar    1  UNL1        0.0762
     26 CL        -24.0929  -10.2543  -11.4957 Cl      1  UNL1       -0.0809
     27 C         -24.4945  -13.4394  -15.6295 C.3     1  UNL1        0.0224
     28 C         -24.3437  -14.9517  -15.7432 C.3     1  UNL1        0.0047
     29 C         -25.5804  -14.3631  -15.0910 C.3     1  UNL1        0.0047
     30 O         -21.3142   -7.0925  -12.3037 O.3     1  UNL1       -0.4513
     31 C         -22.6650   -7.0543  -12.6750 C.ar    1  UNL1        0.1580
     32 C         -23.5297   -6.2274  -11.9507 C.ar    1  UNL1        0.0677
     33 C         -24.8872   -6.1593  -12.2741 C.ar    1  UNL1        0.1398
     34 F         -25.7062   -5.3722  -11.5311 F       1  UNL1       -0.2044
     35 C         -25.3943   -6.9045  -13.3524 C.ar    1  UNL1        0.0175
     36 C         -24.5254   -7.7238  -14.0900 C.ar    1  UNL1        0.0130
     37 C         -23.1655   -7.7943  -13.7671 C.ar    1  UNL1        0.0919
     38 CL        -22.1150   -8.7703  -14.7866 Cl      1  UNL1       -0.0791
     39 C         -26.8620   -6.8763  -13.6842 C.3     1  UNL1        0.1382
     40 C         -27.1561   -5.7199  -14.5838 C.2     1  UNL1        0.3234
     41 O         -26.2635   -4.8580  -14.8108 O.2     1  UNL1       -0.2497
     42 O         -28.4060   -5.6358  -15.2049 O.3     1  UNL1       -0.4215
     43 C         -29.2349   -4.4792  -15.1270 C.3     1  UNL1        0.3207
     44 O         -30.5767   -4.8784  -14.9282 O.3     1  UNL1       -0.3070
     45 C         -31.3726   -3.7681  -14.5376 C.3     1  UNL1        0.2456
     46 C         -31.1582   -2.5071  -15.4396 C.3     1  UNL1        0.1781
     47 O         -30.4151   -1.5401  -14.7417 O.3     1  UNL1       -0.3790
     48 C         -30.4114   -2.8722  -16.7410 C.3     1  UNL1        0.1733
     49 O         -31.2575   -3.6307  -17.5695 O.3     1  UNL1       -0.3793
     50 C         -29.1237   -3.6884  -16.4489 C.3     1  UNL1        0.2106
     51 O         -27.9839   -2.8642  -16.4402 O.3     1  UNL1       -0.3766
     52 H         -31.0280   -1.1332  -14.0748 H       1  UNL1        0.2106
     53 H         -31.9098   -3.0000  -17.9730 H       1  UNL1        0.2105
     54 H         -28.1087   -2.1800  -15.7326 H       1  UNL1        0.2107
     55 C         -32.8123   -4.1890  -14.5722 C.2     1  UNL1        0.3439
     56 O         -33.7106   -3.3459  -14.8380 O.2     1  UNL1       -0.2475
     57 O         -33.1538   -5.5211  -14.3575 O.3     1  UNL1       -0.4785
     58 H         -34.1201   -5.8225  -14.3958 H       1  UNL1        0.2951
@<TRIPOS>BOND
     1    11    12    1
     2    12    13    1
     3    12    14    1
     4    12     7    1
     5     7     8   am
     6     8     9    2
     7     8     1    1
     8     1     2   ar
     9     2     3   ar
    10     3     4   ar
    11     4    30    1
    12    30    31    1
    13    31    32   ar
    14    32    33   ar
    15    33    34    1
    16    33    35   ar
    17    35    39    1
    18    39    40    1
    19    40    41    2
    20    40    42    1
    21    42    43    1
    22    43    44    1
    23    44    45    1
    24    45    55    1
    25    55    56    2
    26    55    57    1
    27    45    46    1
    28    46    47    1
    29    46    48    1
    30    48    49    1
    31    48    50    1
    32    50    51    1
    33    35    36   ar
    34    36    37   ar
    35    37    38    1
    36     4     5   ar
    37     5    15    1
    38    15    17    1
    39    17    18    2
    40    17    19    2
    41    17    20    1
    42    20    21   ar
    43    21    22   ar
    44    22    23   ar
    45    23    27    1
    46    27    28    1
    47    28    29    1
    48    23    24   ar
    49    24    25   ar
    50    25    26    1
    51     5     6   ar
    52     6     1   ar
    53    37    31   ar
    54    25    20   ar
    55    50    43    1
    56    29    27    1
    57     7    10    1
    58    57    58    1
    59    47    52    1
    60    49    53    1
    61    51    54    1
    62    15    16    1
@<TRIPOS>MOLECULE
*****
 58 62 0 0 0
SMALL
GASTEIGER

@<TRIPOS>ATOM
      1 C         -18.7458   -9.3776   -7.2298 C.ar    1  UNL1        0.0548
      2 C         -18.1674  -10.3710   -8.0317 C.ar    1  UNL1        0.0077
      3 C         -18.3800  -10.3750   -9.4113 C.ar    1  UNL1        0.0390
      4 C         -19.1325   -9.3538  -10.0215 C.ar    1  UNL1        0.1598
      5 C         -19.7381   -8.3690   -9.2196 C.ar    1  UNL1        0.0993
      6 C         -19.5693   -8.4126   -7.8254 C.ar    1  UNL1        0.0235
      7 N         -18.8011   -8.1380   -5.0210 N.am    1  UNL1       -0.3040
      8 C         -18.4817   -9.3230   -5.7766 C.2     1  UNL1        0.2458
      9 O         -18.0151  -10.3428   -5.2011 O.2     1  UNL1       -0.2701
     10 H         -19.2702   -7.3590   -5.5369 H       1  UNL1        0.1496
     11 C         -18.8305   -6.5004   -3.1882 C.3     1  UNL1        0.0196
     12 C         -18.5803   -7.9741   -3.5703 C.3     1  UNL1        0.0572
     13 C         -19.5627   -8.8572   -2.7742 C.3     1  UNL1        0.0196
     14 C         -17.1255   -8.3326   -3.2113 C.3     1  UNL1        0.0196
     15 N         -20.4700   -7.2909   -9.8272 N.pl3   1  UNL1       -0.2120
     16 H         -19.9948   -6.6683  -10.5177 H       1  UNL1        0.1738
     17 S         -21.9737   -6.7368   -9.1591 S.O2    1  UNL1        0.0745
     18 O         -21.7404   -5.4663   -8.3903 O.2     1  UNL1       -0.1499
     19 O         -22.5289   -7.7723   -8.2221 O.2     1  UNL1       -0.1499
     20 C         -23.1108   -6.4719  -10.4876 C.ar    1  UNL1        0.1356
     21 C         -24.2545   -7.2791  -10.5867 C.ar    1  UNL1        0.0207
     22 C         -25.2661   -6.9657  -11.4959 C.ar    1  UNL1       -0.0028
     23 C         -25.1521   -5.8367  -12.3173 C.ar    1  UNL1       -0.0216
     24 C         -23.9793   -5.0690  -12.2736 C.ar    1  UNL1        0.0085
     25 C         -22.9656   -5.3718  -11.3575 C.ar    1  UNL1        0.0762
     26 CL        -21.5486   -4.3281  -11.3074 Cl      1  UNL1       -0.0809
     27 C         -26.2580   -5.4870  -13.2751 C.3     1  UNL1        0.0224
     28 C         -26.0911   -6.0700  -14.6733 C.3     1  UNL1        0.0047
     29 C         -27.1235   -6.6563  -13.7291 C.3     1  UNL1        0.0047
     30 O         -19.2969   -9.2958  -11.4150 O.3     1  UNL1       -0.4513
     31 C         -20.5268   -9.3600  -12.0836 C.ar    1  UNL1        0.1580
     32 C         -20.9366   -8.2492  -12.8283 C.ar    1  UNL1        0.0677
     33 C         -22.1579   -8.2580  -13.5066 C.ar    1  UNL1        0.1398
     34 F         -22.5418   -7.1521  -14.1937 F       1  UNL1       -0.2044
     35 C         -22.9784   -9.3985  -13.4687 C.ar    1  UNL1        0.0175
     36 C         -22.5624  -10.5198  -12.7340 C.ar    1  UNL1        0.0130
     37 C         -21.3398  -10.5128  -12.0529 C.ar    1  UNL1        0.0919
     38 CL        -20.8368  -11.9817  -11.2254 Cl      1  UNL1       -0.0791
     39 C         -24.3169   -9.4063  -14.1568 C.3     1  UNL1        0.1382
     40 C         -25.2619  -10.2968  -13.4172 C.2     1  UNL1        0.3234
     41 O         -25.7922   -9.8970  -12.3448 O.2     1  UNL1       -0.2497
     42 O         -25.5863  -11.5470  -13.9528 O.3     1  UNL1       -0.4215
     43 C         -24.6053  -12.4705  -14.4170 C.3     1  UNL1        0.3207
     44 O         -24.1227  -12.0461  -15.6765 O.3     1  UNL1       -0.3070
     45 C         -22.9405  -12.7553  -16.0201 C.3     1  UNL1        0.2456
     46 C         -23.0684  -14.3022  -15.8200 C.3     1  UNL1        0.1781
     47 O         -22.3393  -14.7003  -14.6868 O.3     1  UNL1       -0.3790
     48 C         -24.5438  -14.7219  -15.6415 C.3     1  UNL1        0.1733
     49 O         -25.2247  -14.5710  -16.8626 O.3     1  UNL1       -0.3793
     50 C         -25.2520  -13.8660  -14.5574 C.3     1  UNL1        0.2106
     51 O         -25.2789  -14.5280  -13.3166 O.3     1  UNL1       -0.3766
     52 H         -21.3791  -14.6701  -14.9380 H       1  UNL1        0.2106
     53 H         -24.9494  -15.3279  -17.4436 H       1  UNL1        0.2105
     54 H         -24.3407  -14.6978  -13.0421 H       1  UNL1        0.2107
     55 C         -22.6076  -12.4453  -17.4499 C.2     1  UNL1        0.3439
     56 O         -21.4621  -12.7104  -17.9035 O.2     1  UNL1       -0.2475
     57 O         -23.5784  -11.9080  -18.2902 O.3     1  UNL1       -0.4785
     58 H         -23.3728  -11.7107  -19.2622 H       1  UNL1        0.2951
@<TRIPOS>BOND
     1    11    12    1
     2    12    13    1
     3    12    14    1
     4    12     7    1
     5     7     8   am
     6     8     9    2
     7     8     1    1
     8     1     2   ar
     9     2     3   ar
    10     3     4   ar
    11     4    30    1
    12    30    31    1
    13    31    32   ar
    14    32    33   ar
    15    33    34    1
    16    33    35   ar
    17    35    39    1
    18    39    40    1
    19    40    41    2
    20    40    42    1
    21    42    43    1
    22    43    44    1
    23    44    45    1
    24    45    55    1
    25    55    56    2
    26    55    57    1
    27    45    46    1
    28    46    47    1
    29    46    48    1
    30    48    49    1
    31    48    50    1
    32    50    51    1
    33    35    36   ar
    34    36    37   ar
    35    37    38    1
    36     4     5   ar
    37     5    15    1
    38    15    17    1
    39    17    18    2
    40    17    19    2
    41    17    20    1
    42    20    21   ar
    43    21    22   ar
    44    22    23   ar
    45    23    27    1
    46    27    28    1
    47    28    29    1
    48    23    24   ar
    49    24    25   ar
    50    25    26    1
    51     5     6   ar
    52     6     1   ar
    53    37    31   ar
    54    25    20   ar
    55    50    43    1
    56    29    27    1
    57     7    10    1
    58    57    58    1
    59    47    52    1
    60    49    53    1
    61    51    54    1
    62    15    16    1
@<TRIPOS>MOLECULE
*****
 58 62 0 0 0
SMALL
GASTEIGER

@<TRIPOS>ATOM
      1 C         -19.5108   -8.4975   -8.2984 C.ar    1  UNL1        0.0548
      2 C         -19.3164   -9.7956   -8.7899 C.ar    1  UNL1        0.0077
      3 C         -19.6958  -10.1194  -10.0937 C.ar    1  UNL1        0.0390
      4 C         -20.2285   -9.1358  -10.9482 C.ar    1  UNL1        0.1598
      5 C         -20.4511   -7.8378  -10.4530 C.ar    1  UNL1        0.0993
      6 C         -20.1242   -7.5413   -9.1190 C.ar    1  UNL1        0.0235
      7 N         -17.9597   -8.8152   -6.3207 N.am    1  UNL1       -0.3040
      8 C         -19.0597   -8.1217   -6.9421 C.2     1  UNL1        0.2458
      9 O         -19.6215   -7.1575   -6.3560 O.2     1  UNL1       -0.2701
     10 H         -17.4752   -9.5442   -6.8926 H       1  UNL1        0.1496
     11 C         -16.4460   -9.6438   -4.5703 C.3     1  UNL1        0.0196
     12 C         -17.4278   -8.5243   -4.9745 C.3     1  UNL1        0.0572
     13 C         -16.6642   -7.1843   -4.9765 C.3     1  UNL1        0.0196
     14 C         -18.5756   -8.4857   -3.9474 C.3     1  UNL1        0.0196
     15 N         -20.9490   -6.8071  -11.3230 N.pl3   1  UNL1       -0.2120
     16 H         -20.4118   -6.5511  -12.1810 H       1  UNL1        0.1738
     17 S         -22.1785   -5.7011  -10.7943 S.O2    1  UNL1        0.0745
     18 O         -21.9015   -4.3376  -11.3632 O.2     1  UNL1       -0.1499
     19 O         -22.1713   -5.6081   -9.2943 O.2     1  UNL1       -0.1499
     20 C         -23.7474   -6.3075  -11.3410 C.ar    1  UNL1        0.1356
     21 C         -24.4022   -5.6649  -12.4029 C.ar    1  UNL1        0.0207
     22 C         -25.5338   -6.2364  -12.9870 C.ar    1  UNL1       -0.0028
     23 C         -26.0256   -7.4626  -12.5214 C.ar    1  UNL1       -0.0216
     24 C         -25.4186   -8.0721  -11.4139 C.ar    1  UNL1        0.0085
     25 C         -24.2779   -7.5096  -10.8298 C.ar    1  UNL1        0.0762
     26 CL        -23.5245   -8.3603   -9.4850 Cl      1  UNL1       -0.0809
     27 C         -27.2282   -8.0884  -13.1731 C.3     1  UNL1        0.0224
     28 C         -28.5547   -7.7622  -12.4975 C.3     1  UNL1        0.0047
     29 C         -28.2021   -7.1122  -13.8220 C.3     1  UNL1        0.0047
     30 O         -20.5473   -9.4202  -12.2860 O.3     1  UNL1       -0.4513
     31 C         -21.8196   -9.7790  -12.7513 C.ar    1  UNL1        0.1580
     32 C         -22.5437  -10.7364  -12.0333 C.ar    1  UNL1        0.0677
     33 C         -23.8129  -11.1360  -12.4591 C.ar    1  UNL1        0.1398
     34 F         -24.4761  -12.0909  -11.7587 F       1  UNL1       -0.2044
     35 C         -24.3881  -10.5577  -13.6037 C.ar    1  UNL1        0.0175
     36 C         -23.6693   -9.5860  -14.3175 C.ar    1  UNL1        0.0130
     37 C         -22.3974   -9.1850  -13.8933 C.ar    1  UNL1        0.0919
     38 CL        -21.5883   -7.8993  -14.7808 Cl      1  UNL1       -0.0791
     39 C         -25.7349  -11.0104  -14.1001 C.3     1  UNL1        0.1382
     40 C         -25.6302  -12.3912  -14.6617 C.2     1  UNL1        0.3234
     41 O         -25.9448  -13.3840  -13.9500 O.2     1  UNL1       -0.2497
     42 O         -25.2316  -12.5617  -15.9910 O.3     1  UNL1       -0.4215
     43 C         -23.9103  -12.9455  -16.3618 C.3     1  UNL1        0.3207
     44 O         -23.1147  -13.0652  -15.1990 O.3     1  UNL1       -0.3070
     45 C         -21.8996  -13.7392  -15.4957 C.3     1  UNL1        0.2456
     46 C         -21.1777  -13.1795  -16.7666 C.3     1  UNL1        0.1781
     47 O         -21.3181  -14.0828  -17.8337 O.3     1  UNL1       -0.3790
     48 C         -21.7627  -11.8128  -17.1845 C.3     1  UNL1        0.1733
     49 O         -21.3963  -10.8379  -16.2396 O.3     1  UNL1       -0.3793
     50 C         -23.3108  -11.8633  -17.2862 C.3     1  UNL1        0.2106
     51 O         -23.7325  -12.0554  -18.6143 O.3     1  UNL1       -0.3766
     52 H         -20.7070  -14.8432  -17.6485 H       1  UNL1        0.2106
     53 H         -20.4415  -10.6198  -16.4032 H       1  UNL1        0.2105
     54 H         -23.3526  -12.9150  -18.9326 H       1  UNL1        0.2107
     55 C         -20.9996  -13.6297  -14.3003 C.2     1  UNL1        0.3439
     56 O         -21.4779  -13.3210  -13.1758 O.2     1  UNL1       -0.2475
     57 O         -19.6428  -13.9150  -14.4216 O.3     1  UNL1       -0.4785
     58 H         -19.0270  -13.8626  -13.6190 H       1  UNL1        0.2951
@<TRIPOS>BOND
     1    11    12    1
     2    12    13    1
     3    12    14    1
     4    12     7    1
     5     7     8   am
     6     8     9    2
     7     8     1    1
     8     1     2   ar
     9     2     3   ar
    10     3     4   ar
    11     4    30    1
    12    30    31    1
    13    31    32   ar
    14    32    33   ar
    15    33    34    1
    16    33    35   ar
    17    35    39    1
    18    39    40    1
    19    40    41    2
    20    40    42    1
    21    42    43    1
    22    43    44    1
    23    44    45    1
    24    45    55    1
    25    55    56    2
    26    55    57    1
    27    45    46    1
    28    46    47    1
    29    46    48    1
    30    48    49    1
    31    48    50    1
    32    50    51    1
    33    35    36   ar
    34    36    37   ar
    35    37    38    1
    36     4     5   ar
    37     5    15    1
    38    15    17    1
    39    17    18    2
    40    17    19    2
    41    17    20    1
    42    20    21   ar
    43    21    22   ar
    44    22    23   ar
    45    23    27    1
    46    27    28    1
    47    28    29    1
    48    23    24   ar
    49    24    25   ar
    50    25    26    1
    51     5     6   ar
    52     6     1   ar
    53    37    31   ar
    54    25    20   ar
    55    50    43    1
    56    29    27    1
    57     7    10    1
    58    57    58    1
    59    47    52    1
    60    49    53    1
    61    51    54    1
    62    15    16    1
@<TRIPOS>MOLECULE
*****
 58 62 0 0 0
SMALL
GASTEIGER

@<TRIPOS>ATOM
      1 C         -19.9603   -7.8631   -8.3420 C.ar    1  UNL1        0.0548
      2 C         -20.5897   -6.6748   -8.7376 C.ar    1  UNL1        0.0077
      3 C         -21.0158   -6.5086  -10.0565 C.ar    1  UNL1        0.0390
      4 C         -20.8676   -7.5498  -10.9920 C.ar    1  UNL1        0.1598
      5 C         -20.2127   -8.7347  -10.6087 C.ar    1  UNL1        0.0993
      6 C         -19.7313   -8.8646   -9.2952 C.ar    1  UNL1        0.0235
      7 N         -18.2217   -7.7583   -6.5023 N.am    1  UNL1       -0.3040
      8 C         -19.5578   -8.0798   -6.9365 C.2     1  UNL1        0.2458
      9 O         -20.4126   -8.5072   -6.1146 O.2     1  UNL1       -0.2701
     10 H         -17.5860   -7.3217   -7.2083 H       1  UNL1        0.1496
     11 C         -16.3560   -7.2117   -4.9982 C.3     1  UNL1        0.0196
     12 C         -17.7133   -7.9339   -5.1273 C.3     1  UNL1        0.0572
     13 C         -18.6929   -7.3153   -4.1093 C.3     1  UNL1        0.0196
     14 C         -17.5021   -9.4302   -4.8268 C.3     1  UNL1        0.0196
     15 N         -20.0942   -9.8279  -11.5350 N.pl3   1  UNL1       -0.2120
     16 H         -19.7812   -9.6439  -12.5141 H       1  UNL1        0.1738
     17 S         -20.8363  -11.3639  -11.2121 S.O2    1  UNL1        0.0745
     18 O         -21.7298  -11.2437  -10.0092 O.2     1  UNL1       -0.1499
     19 O         -19.7785  -12.3923  -10.9260 O.2     1  UNL1       -0.1499
     20 C         -21.7604  -11.8486  -12.6401 C.ar    1  UNL1        0.1356
     21 C         -21.1482  -12.6468  -13.6185 C.ar    1  UNL1        0.0207
     22 C         -21.9042  -13.2110  -14.6474 C.ar    1  UNL1       -0.0028
     23 C         -23.2860  -12.9896  -14.7111 C.ar    1  UNL1       -0.0216
     24 C         -23.8899  -12.1339  -13.7785 C.ar    1  UNL1        0.0085
     25 C         -23.1397  -11.5731  -12.7387 C.ar    1  UNL1        0.0762
     26 CL        -23.9718  -10.5618  -11.5620 Cl      1  UNL1       -0.0809
     27 C         -24.1009  -13.6232  -15.8052 C.3     1  UNL1        0.0224
     28 C         -24.0762  -15.1470  -15.8101 C.3     1  UNL1        0.0047
     29 C         -25.3179  -14.4135  -15.3398 C.3     1  UNL1        0.0047
     30 O         -21.3558   -7.4331  -12.3036 O.3     1  UNL1       -0.4513
     31 C         -22.7101   -7.4555  -12.6632 C.ar    1  UNL1        0.1580
     32 C         -23.6566   -7.0632  -11.7111 C.ar    1  UNL1        0.0677
     33 C         -25.0201   -7.0756  -12.0155 C.ar    1  UNL1        0.1398
     34 F         -25.9153   -6.7204  -11.0590 F       1  UNL1       -0.2044
     35 C         -25.4541   -7.4589  -13.2961 C.ar    1  UNL1        0.0175
     36 C         -24.5050   -7.8388  -14.2579 C.ar    1  UNL1        0.0130
     37 C         -23.1388   -7.8282  -13.9548 C.ar    1  UNL1        0.0919
     38 CL        -21.9972   -8.2293  -15.2320 Cl      1  UNL1       -0.0791
     39 C         -26.9216   -7.5205  -13.6244 C.3     1  UNL1        0.1382
     40 C         -27.4331   -6.1477  -13.9191 C.2     1  UNL1        0.3234
     41 O         -26.6327   -5.1733  -13.9538 O.2     1  UNL1       -0.2497
     42 O         -28.7903   -5.9689  -14.2039 O.3     1  UNL1       -0.4215
     43 C         -29.2575   -5.3559  -15.4026 C.3     1  UNL1        0.3207
     44 O         -28.2923   -4.4295  -15.8606 O.3     1  UNL1       -0.3070
     45 C         -28.5757   -4.0365  -17.1963 C.3     1  UNL1        0.2456
     46 C         -30.0721   -3.6344  -17.4172 C.3     1  UNL1        0.1781
     47 O         -30.7369   -4.6411  -18.1375 O.3     1  UNL1       -0.3790
     48 C         -30.7965   -3.4177  -16.0707 C.3     1  UNL1        0.1733
     49 O         -30.3110   -2.2473  -15.4608 O.3     1  UNL1       -0.3793
     50 C         -30.5814   -4.6169  -15.1089 C.3     1  UNL1        0.2106
     51 O         -31.6679   -5.5093  -15.1494 O.3     1  UNL1       -0.3766
     52 H         -30.4317   -4.5694  -19.0796 H       1  UNL1        0.2106
     53 H         -30.7145   -1.4794  -15.9443 H       1  UNL1        0.2105
     54 H         -31.7524   -5.8435  -16.0798 H       1  UNL1        0.2107
     55 C         -27.6753   -2.8889  -17.5475 C.2     1  UNL1        0.3439
     56 O         -27.9612   -2.1355  -18.5165 O.2     1  UNL1       -0.2475
     57 O         -26.5481   -2.6262  -16.7745 O.3     1  UNL1       -0.4785
     58 H         -25.9414   -1.8440  -16.9893 H       1  UNL1        0.2951
@<TRIPOS>BOND
     1    11    12    1
     2    12    13    1
     3    12    14    1
     4    12     7    1
     5     7     8   am
     6     8     9    2
     7     8     1    1
     8     1     2   ar
     9     2     3   ar
    10     3     4   ar
    11     4    30    1
    12    30    31    1
    13    31    32   ar
    14    32    33   ar
    15    33    34    1
    16    33    35   ar
    17    35    39    1
    18    39    40    1
    19    40    41    2
    20    40    42    1
    21    42    43    1
    22    43    44    1
    23    44    45    1
    24    45    55    1
    25    55    56    2
    26    55    57    1
    27    45    46    1
    28    46    47    1
    29    46    48    1
    30    48    49    1
    31    48    50    1
    32    50    51    1
    33    35    36   ar
    34    36    37   ar
    35    37    38    1
    36     4     5   ar
    37     5    15    1
    38    15    17    1
    39    17    18    2
    40    17    19    2
    41    17    20    1
    42    20    21   ar
    43    21    22   ar
    44    22    23   ar
    45    23    27    1
    46    27    28    1
    47    28    29    1
    48    23    24   ar
    49    24    25   ar
    50    25    26    1
    51     5     6   ar
    52     6     1   ar
    53    37    31   ar
    54    25    20   ar
    55    50    43    1
    56    29    27    1
    57     7    10    1
    58    57    58    1
    59    47    52    1
    60    49    53    1
    61    51    54    1
    62    15    16    1
@<TRIPOS>MOLECULE
*****
 58 62 0 0 0
SMALL
GASTEIGER

@<TRIPOS>ATOM
      1 C         -27.2487   -6.3722  -14.0571 C.ar    1  UNL1        0.0548
      2 C         -27.8355   -7.2519  -13.1371 C.ar    1  UNL1        0.0077
      3 C         -27.0597   -8.2156  -12.4905 C.ar    1  UNL1        0.0390
      4 C         -25.6714   -8.2826  -12.7131 C.ar    1  UNL1        0.1598
      5 C         -25.0806   -7.4206  -13.6552 C.ar    1  UNL1        0.0993
      6 C         -25.8832   -6.4976  -14.3466 C.ar    1  UNL1        0.0235
      7 N         -29.4830   -5.3451  -14.6664 N.am    1  UNL1       -0.3040
      8 C         -28.0428   -5.3071  -14.7047 C.2     1  UNL1        0.2458
      9 O         -27.4422   -4.3431  -15.2514 O.2     1  UNL1       -0.2701
     10 H         -29.9223   -6.1206  -14.1199 H       1  UNL1        0.1496
     11 C         -31.8246   -4.8585  -15.2339 C.3     1  UNL1        0.0196
     12 C         -30.3728   -4.3379  -15.2777 C.3     1  UNL1        0.0572
     13 C         -30.3065   -3.0136  -14.4900 C.3     1  UNL1        0.0196
     14 C         -29.9801   -4.1064  -16.7494 C.3     1  UNL1        0.0196
     15 N         -23.6579   -7.4404  -13.8615 N.pl3   1  UNL1       -0.2120
     16 H         -23.0394   -6.8589  -13.2535 H       1  UNL1        0.1738
     17 S         -22.9711   -8.0664  -15.3281 S.O2    1  UNL1        0.0745
     18 O         -21.4953   -7.7813  -15.3497 O.2     1  UNL1       -0.1499
     19 O         -23.6081   -7.4005  -16.5154 O.2     1  UNL1       -0.1499
     20 C         -23.2798   -9.8067  -15.3908 C.ar    1  UNL1        0.1356
     21 C         -24.5314  -10.2992  -14.9904 C.ar    1  UNL1        0.0207
     22 C         -24.8739  -11.6330  -15.2186 C.ar    1  UNL1       -0.0028
     23 C         -23.9714  -12.4944  -15.8557 C.ar    1  UNL1       -0.0216
     24 C         -22.6929  -12.0263  -16.1916 C.ar    1  UNL1        0.0085
     25 C         -22.3466  -10.6877  -15.9747 C.ar    1  UNL1        0.0762
     26 CL        -20.7492  -10.1476  -16.4810 Cl      1  UNL1       -0.0809
     27 C         -24.3563  -13.9233  -16.1252 C.3     1  UNL1        0.0224
     28 C         -23.8263  -14.9238  -15.1051 C.3     1  UNL1        0.0047
     29 C         -25.2967  -14.5508  -15.1033 C.3     1  UNL1        0.0047
     30 O         -24.8598   -9.1940  -12.0183 O.3     1  UNL1       -0.4513
     31 C         -23.6415   -8.8789  -11.4014 C.ar    1  UNL1        0.1580
     32 C         -23.5597   -7.6969  -10.6582 C.ar    1  UNL1        0.0677
     33 C         -22.3661   -7.3317  -10.0305 C.ar    1  UNL1        0.1398
     34 F         -22.3099   -6.1622   -9.3438 F       1  UNL1       -0.2044
     35 C         -21.2383   -8.1658  -10.1183 C.ar    1  UNL1        0.0175
     36 C         -21.3225   -9.3598  -10.8514 C.ar    1  UNL1        0.0130
     37 C         -22.5168   -9.7270  -11.4818 C.ar    1  UNL1        0.0919
     38 CL        -22.5813  -11.2784  -12.3091 Cl      1  UNL1       -0.0791
     39 C         -19.9333   -7.7639   -9.4856 C.3     1  UNL1        0.1382
     40 C         -19.7031   -8.5651   -8.2454 C.2     1  UNL1        0.3234
     41 O         -19.0600   -9.6485   -8.3081 O.2     1  UNL1       -0.2497
     42 O         -20.1619   -8.0758   -7.0186 O.3     1  UNL1       -0.4215
     43 C         -19.6186   -8.4870   -5.7670 C.3     1  UNL1        0.3207
     44 O         -20.6214   -8.4074   -4.7734 O.3     1  UNL1       -0.3070
     45 C         -20.2131   -9.0956   -3.5994 C.3     1  UNL1        0.2456
     46 C         -18.7624   -8.7280   -3.1413 C.3     1  UNL1        0.1781
     47 O         -17.8871   -9.7899   -3.4252 O.3     1  UNL1       -0.3790
     48 C         -18.2572   -7.4554   -3.8555 C.3     1  UNL1        0.1733
     49 O         -18.9616   -6.3374   -3.3744 O.3     1  UNL1       -0.3793
     50 C         -18.4481   -7.5515   -5.3930 C.3     1  UNL1        0.2106
     51 O         -17.2634   -7.9577   -6.0334 O.3     1  UNL1       -0.3766
     52 H         -18.0702  -10.4998   -2.7555 H       1  UNL1        0.2106
     53 H         -18.5957   -6.1290   -2.4751 H       1  UNL1        0.2105
     54 H         -17.0144   -8.8489   -5.6754 H       1  UNL1        0.2107
     55 C         -21.1941   -8.7825   -2.5082 C.2     1  UNL1        0.3439
     56 O         -21.1870   -7.6482   -1.9590 O.2     1  UNL1       -0.2475
     57 O         -22.1443   -9.7279   -2.1335 O.3     1  UNL1       -0.4785
     58 H         -22.8241   -9.5234   -1.4110 H       1  UNL1        0.2951
@<TRIPOS>BOND
     1    11    12    1
     2    12    13    1
     3    12    14    1
     4    12     7    1
     5     7     8   am
     6     8     9    2
     7     8     1    1
     8     1     2   ar
     9     2     3   ar
    10     3     4   ar
    11     4    30    1
    12    30    31    1
    13    31    32   ar
    14    32    33   ar
    15    33    34    1
    16    33    35   ar
    17    35    39    1
    18    39    40    1
    19    40    41    2
    20    40    42    1
    21    42    43    1
    22    43    44    1
    23    44    45    1
    24    45    55    1
    25    55    56    2
    26    55    57    1
    27    45    46    1
    28    46    47    1
    29    46    48    1
    30    48    49    1
    31    48    50    1
    32    50    51    1
    33    35    36   ar
    34    36    37   ar
    35    37    38    1
    36     4     5   ar
    37     5    15    1
    38    15    17    1
    39    17    18    2
    40    17    19    2
    41    17    20    1
    42    20    21   ar
    43    21    22   ar
    44    22    23   ar
    45    23    27    1
    46    27    28    1
    47    28    29    1
    48    23    24   ar
    49    24    25   ar
    50    25    26    1
    51     5     6   ar
    52     6     1   ar
    53    37    31   ar
    54    25    20   ar
    55    50    43    1
    56    29    27    1
    57     7    10    1
    58    57    58    1
    59    47    52    1
    60    49    53    1
    61    51    54    1
    62    15    16    1
