@<TRIPOS>MOLECULE
*****
 51 56 0 0 0
SMALL
GASTEIGER

@<TRIPOS>ATOM
      1 O          61.9892   85.4392   11.3706 O.2     1  UNL1       -0.2701
      2 C          61.2943   86.4911   11.3203 C.2     1  UNL1        0.2483
      3 N          60.8469   87.1112   12.5371 N.am    1  UNL1       -0.2945
      4 H          60.5277   88.1039   12.4882 H       1  UNL1        0.1501
      5 C          60.9899   87.0948   10.0029 C.ar    1  UNL1        0.0808
      6 C          61.6609   88.2630    9.6039 C.ar    1  UNL1        0.0080
      7 C          61.3823   88.8565    8.3702 C.ar    1  UNL1        0.0148
      8 C          60.4353   88.2883    7.5061 C.ar    1  UNL1        0.0502
      9 C          59.7740   87.1125    7.8944 C.ar    1  UNL1        0.0443
     10 C          60.0500   86.5153    9.1284 C.ar    1  UNL1        0.1457
     11 F          59.4353   85.3465    9.4375 F       1  UNL1       -0.2040
     12 N          60.1492   88.9077    6.2377 N.pl3   1  UNL1       -0.3040
     13 C          58.7806   89.3095    5.8954 C.3     1  UNL1        0.1123
     14 C          58.7930   90.6340    5.1274 C.3     1  UNL1        0.1136
     15 N          59.8012   90.6007    4.0578 N.pl3   1  UNL1       -0.2897
     16 C          61.1650   90.1842    4.4096 C.3     1  UNL1        0.1136
     17 C          61.1335   88.8500    5.1520 C.3     1  UNL1        0.1123
     18 C          59.5560   91.2242    2.7807 C.ar    1  UNL1        0.1318
     19 C          60.5593   91.9491    2.1169 C.ar    1  UNL1        0.0343
     20 C          60.2829   92.5356    0.8810 C.ar    1  UNL1        0.0083
     21 C          59.0185   92.3831    0.2927 C.ar    1  UNL1        0.0906
     22 C          58.0384   91.6662    0.9964 C.ar    1  UNL1        0.1041
     23 N          58.3300   91.1062    2.2001 N.ar    1  UNL1       -0.2292
     24 C          58.6920   93.0530   -1.0176 C.3     1  UNL1        0.4200
     25 F          58.4490   92.1096   -2.0009 F       1  UNL1       -0.1658
     26 F          57.5658   93.8479   -0.8925 F       1  UNL1       -0.1658
     27 F          59.7596   93.8417   -1.4039 F       1  UNL1       -0.1658
     28 C          61.1322   86.5331   13.8563 C.3     1  UNL1        0.1535
     29 C          61.9954   87.4628   14.6739 C.2     1  UNL1        0.2443
     30 O          62.3377   87.1372   15.8438 O.2     1  UNL1       -0.2730
     31 N          62.4162   88.7174   14.1142 N.am    1  UNL1       -0.2825
     32 H          61.9213   89.0555   13.2579 H       1  UNL1        0.1549
     33 C          63.3945   89.5862   14.7121 C.ar    1  UNL1        0.0539
     34 C          63.1884   90.1762   15.9712 C.ar    1  UNL1        0.0354
     35 C          64.1810   90.9907   16.5213 C.ar    1  UNL1        0.1007
     36 N          65.3432   91.1996   15.8489 N.ar    1  UNL1       -0.2378
     37 C          65.5786   90.6284   14.6384 C.ar    1  UNL1        0.1043
     38 S          67.1295   90.9321   13.8028 S.3     1  UNL1       -0.1227
     39 C          64.6121   89.8048   14.0531 C.ar    1  UNL1        0.0399
     40 H          66.6117   92.0595   13.1382 H       1  UNL1        0.1086
     41 C          59.8301   86.1644   14.5972 C.3     1  UNL1        0.0569
     42 C          58.7426   85.6610   13.6861 C.ar    1  UNL1       -0.0017
     43 C          57.5319   86.2927   13.4153 C.ar    1  UNL1        0.0681
     44 N          56.8141   85.5771   12.5203 N.ar    1  UNL1       -0.3523
     45 C          57.5591   84.4980   12.2245 C.ar    1  UNL1        0.0563
     46 C          57.2389   83.4669   11.3423 C.ar    1  UNL1        0.0170
     47 C          58.1715   82.4261   11.1807 C.ar    1  UNL1        0.0015
     48 C          59.3877   82.4372   11.8990 C.ar    1  UNL1        0.0001
     49 C          59.6828   83.4896   12.7842 C.ar    1  UNL1        0.0012
     50 C          58.7422   84.5115   12.9185 C.ar    1  UNL1        0.0131
     51 H          55.8728   85.8184   12.1381 H       1  UNL1        0.1660
@<TRIPOS>BOND
     1     1     2    2
     2     2     3   am
     3     3    28    1
     4    28    41    1
     5    41    42    1
     6    42    43   ar
     7    43    44   ar
     8    44    45   ar
     9    45    46   ar
    10    46    47   ar
    11    47    48   ar
    12    48    49   ar
    13    49    50   ar
    14    28    29    1
    15    29    30    2
    16    29    31   am
    17    31    33    1
    18    33    34   ar
    19    34    35   ar
    20    35    36   ar
    21    36    37   ar
    22    37    38    1
    23    37    39   ar
    24     2     5    1
    25     5     6   ar
    26     6     7   ar
    27     7     8   ar
    28     8    12    1
    29    12    13    1
    30    13    14    1
    31    14    15    1
    32    15    18    1
    33    18    19   ar
    34    19    20   ar
    35    20    21   ar
    36    21    24    1
    37    24    25    1
    38    24    26    1
    39    24    27    1
    40    21    22   ar
    41    22    23   ar
    42    15    16    1
    43    16    17    1
    44     8     9   ar
    45     9    10   ar
    46    10    11    1
    47    50    42   ar
    48    39    33   ar
    49    10     5   ar
    50    50    45   ar
    51    17    12    1
    52    23    18   ar
    53     3     4    1
    54    44    51    1
    55    31    32    1
    56    38    40    1
