@<TRIPOS>MOLECULE
*****
 46 51 0 0 0
SMALL
GASTEIGER

@<TRIPOS>ATOM
      1 C          61.9684   87.9763    9.2929 C.ar    1  UNL1        0.0702
      2 C          61.5291   86.6480    9.3142 C.ar    1  UNL1        0.0191
      3 C          61.6873   85.8722   10.4633 C.ar    1  UNL1        0.0356
      4 C          62.3050   86.4284   11.5967 C.ar    1  UNL1        0.1318
      5 N          62.7566   87.7129   11.5388 N.ar    1  UNL1       -0.2279
      6 C          62.6095   88.4879   10.4319 C.ar    1  UNL1        0.1149
      7 N          62.4912   85.6589   12.8041 N.pl3   1  UNL1       -0.2932
      8 C          63.6206   85.9347   13.7087 C.3     1  UNL1        0.0923
      9 C          64.0186   84.6766   14.4897 C.3     1  UNL1        0.0252
     10 C          62.8316   84.0525   15.2699 C.3     1  UNL1        0.0472
     11 C          61.4600   84.3519   14.6180 C.3     1  UNL1        0.0252
     12 C          61.5729   84.5498   13.1046 C.3     1  UNL1        0.0923
     13 C          62.8270   84.5023   16.7458 C.3     1  UNL1        0.2054
     14 O          61.8702   85.5399   16.9697 O.3     1  UNL1       -0.4755
     15 C          61.8926   86.8158   16.3823 C.ar    1  UNL1        0.1388
     16 C          62.9289   87.6843   16.7401 C.ar    1  UNL1        0.0369
     17 C          63.0076   88.9615   16.1835 C.ar    1  UNL1        0.0033
     18 C          62.0463   89.3868   15.2650 C.ar    1  UNL1        0.0066
     19 C          60.9890   88.5374   14.8953 C.ar    1  UNL1        0.0785
     20 C          60.9264   87.2450   15.4494 C.ar    1  UNL1        0.0433
     21 C          59.9746   89.0020   13.9181 C.2     1  UNL1        0.3381
     22 O          58.8142   88.5120   13.9411 O.2     1  UNL1       -0.2451
     23 O          60.2721   89.9629   12.9522 O.3     1  UNL1       -0.4771
     24 H          61.2082   90.3186   12.8073 H       1  UNL1        0.2954
     25 C          60.6221   89.4651    7.7361 C.2     1  UNL1        0.2839
     26 O          59.6408   89.5000    8.5255 O.2     1  UNL1       -0.2665
     27 N          61.8199   88.7527    8.0925 N.am    1  UNL1       -0.2766
     28 H          62.6188   88.7459    7.4218 H       1  UNL1        0.1553
     29 C          59.8687   92.3680    2.5282 C.ar    1  UNL1        0.0002
     30 C          61.2846   92.4220    2.6418 C.ar    1  UNL1        0.0031
     31 C          61.9414   91.8526    3.7468 C.ar    1  UNL1        0.0375
     32 C          61.1644   91.2360    4.7212 C.ar    1  UNL1        0.1452
     33 O          61.5781   90.6505    5.8186 O.2     1  UNL1       -0.4492
     34 C          60.5173   90.1892    6.4575 C.ar    1  UNL1        0.1946
     35 C          59.3533   90.5145    5.7497 C.ar    1  UNL1        0.0202
     36 C          57.9260   90.2549    6.1256 C.3     1  UNL1        0.0345
     37 C          59.8010   91.1767    4.6245 C.ar    1  UNL1        0.0337
     38 C          59.1154   91.7321    3.5442 C.ar    1  UNL1        0.0028
     39 C          57.8836   94.1241   -0.8657 C.ar    1  UNL1       -0.0222
     40 C          58.7614   94.8896   -0.0839 C.ar    1  UNL1       -0.0043
     41 C          59.4028   94.3212    1.0203 C.ar    1  UNL1       -0.0003
     42 C          59.1858   92.9728    1.3566 C.ar    1  UNL1       -0.0000
     43 C          58.3155   92.2055    0.5612 C.ar    1  UNL1       -0.0003
     44 C          57.6740   92.7754   -0.5420 C.ar    1  UNL1       -0.0043
     45 C          55.7047   94.5679   -1.9934 C.3     1  UNL1        0.0050
     46 C          57.2192   94.7277   -2.0739 C.3     1  UNL1        0.0264
@<TRIPOS>BOND
     1    45    46    1
     2    46    39    1
     3    39    40   ar
     4    40    41   ar
     5    41    42   ar
     6    42    29    1
     7    29    30   ar
     8    30    31   ar
     9    31    32   ar
    10    32    33   ar
    11    33    34   ar
    12    34    25    1
    13    25    26    2
    14    25    27   am
    15    27     1    1
    16     1     2   ar
    17     2     3   ar
    18     3     4   ar
    19     4     7    1
    20     7     8    1
    21     8     9    1
    22     9    10    1
    23    10    13    1
    24    13    14    1
    25    14    15    1
    26    15    16   ar
    27    16    17   ar
    28    17    18   ar
    29    18    19   ar
    30    19    21    1
    31    21    22    2
    32    21    23    1
    33    19    20   ar
    34    10    11    1
    35    11    12    1
    36     4     5   ar
    37     5     6   ar
    38    34    35   ar
    39    35    36    1
    40    35    37   ar
    41    37    38   ar
    42    42    43   ar
    43    43    44   ar
    44    44    39   ar
    45    38    29   ar
    46    37    32   ar
    47     6     1   ar
    48    12     7    1
    49    20    15   ar
    50    27    28    1
    51    23    24    1
@<TRIPOS>MOLECULE
*****
 46 51 0 0 0
SMALL
GASTEIGER

@<TRIPOS>ATOM
      1 C          61.6613   87.4615    8.8050 C.ar    1  UNL1        0.0702
      2 C          60.8780   87.7409    9.9302 C.ar    1  UNL1        0.0191
      3 C          60.9787   86.9466   11.0732 C.ar    1  UNL1        0.0356
      4 C          61.8618   85.8533   11.0830 C.ar    1  UNL1        0.1318
      5 N          62.5872   85.5805    9.9621 N.ar    1  UNL1       -0.2279
      6 C          62.5082   86.3428    8.8395 C.ar    1  UNL1        0.1149
      7 N          61.9933   85.0046   12.2437 N.pl3   1  UNL1       -0.2932
      8 C          63.2935   84.4127   12.6031 C.3     1  UNL1        0.0923
      9 C          63.1053   83.1021   13.3764 C.3     1  UNL1        0.0252
     10 C          62.2130   83.2691   14.6347 C.3     1  UNL1        0.0472
     11 C          61.1962   84.4286   14.5010 C.3     1  UNL1        0.0252
     12 C          60.8018   84.6831   13.0442 C.3     1  UNL1        0.0923
     13 C          63.0627   83.4531   15.9094 C.3     1  UNL1        0.2054
     14 O          64.0020   84.5194   15.7582 O.3     1  UNL1       -0.4755
     15 C          63.7284   85.8848   15.9439 C.ar    1  UNL1        0.1388
     16 C          63.0791   86.2692   17.1215 C.ar    1  UNL1        0.0369
     17 C          62.7881   87.6120   17.3648 C.ar    1  UNL1        0.0033
     18 C          63.1394   88.5866   16.4292 C.ar    1  UNL1        0.0066
     19 C          63.7841   88.2264   15.2331 C.ar    1  UNL1        0.0785
     20 C          64.0884   86.8714   15.0031 C.ar    1  UNL1        0.0433
     21 C          64.1520   89.2721   14.2477 C.2     1  UNL1        0.3381
     22 O          64.9069   90.2193   14.5940 O.2     1  UNL1       -0.2451
     23 O          63.6697   89.2498   12.9393 O.3     1  UNL1       -0.4771
     24 H          62.9773   88.5824   12.6248 H       1  UNL1        0.2954
     25 C          60.6986   89.4490    7.5497 C.2     1  UNL1        0.2839
     26 O          60.0911   89.8714    8.5694 O.2     1  UNL1       -0.2665
     27 N          61.5263   88.2751    7.6279 N.am    1  UNL1       -0.2766
     28 H          62.0222   87.9519    6.7689 H       1  UNL1        0.1553
     29 C          59.7975   92.4481    2.4203 C.ar    1  UNL1        0.0002
     30 C          61.2109   92.5548    2.5271 C.ar    1  UNL1        0.0031
     31 C          61.8969   91.9844    3.6138 C.ar    1  UNL1        0.0375
     32 C          61.1512   91.3139    4.5769 C.ar    1  UNL1        0.1452
     33 O          61.5947   90.7181    5.6569 O.2     1  UNL1       -0.4492
     34 C          60.5570   90.1999    6.2902 C.ar    1  UNL1        0.1946
     35 C          59.3766   90.4967    5.5974 C.ar    1  UNL1        0.0202
     36 C          57.9630   90.1721    5.9749 C.3     1  UNL1        0.0345
     37 C          59.7904   91.2036    4.4865 C.ar    1  UNL1        0.0337
     38 C          59.0765   91.7582    3.4243 C.ar    1  UNL1        0.0028
     39 C          57.7312   94.2030   -0.9253 C.ar    1  UNL1       -0.0222
     40 C          57.3438   92.9484   -0.4322 C.ar    1  UNL1       -0.0043
     41 C          58.0168   92.3764    0.6512 C.ar    1  UNL1       -0.0003
     42 C          59.0837   93.0544    1.2680 C.ar    1  UNL1       -0.0000
     43 C          59.4593   94.3186    0.7787 C.ar    1  UNL1       -0.0003
     44 C          58.7861   94.8889   -0.3053 C.ar    1  UNL1       -0.0043
     45 C          55.4919   94.5368   -1.9698 C.3     1  UNL1        0.0050
     46 C          56.9846   94.8328   -2.0706 C.3     1  UNL1        0.0264
@<TRIPOS>BOND
     1    45    46    1
     2    46    39    1
     3    39    40   ar
     4    40    41   ar
     5    41    42   ar
     6    42    29    1
     7    29    30   ar
     8    30    31   ar
     9    31    32   ar
    10    32    33   ar
    11    33    34   ar
    12    34    25    1
    13    25    26    2
    14    25    27   am
    15    27     1    1
    16     1     2   ar
    17     2     3   ar
    18     3     4   ar
    19     4     7    1
    20     7     8    1
    21     8     9    1
    22     9    10    1
    23    10    13    1
    24    13    14    1
    25    14    15    1
    26    15    16   ar
    27    16    17   ar
    28    17    18   ar
    29    18    19   ar
    30    19    21    1
    31    21    22    2
    32    21    23    1
    33    19    20   ar
    34    10    11    1
    35    11    12    1
    36     4     5   ar
    37     5     6   ar
    38    34    35   ar
    39    35    36    1
    40    35    37   ar
    41    37    38   ar
    42    42    43   ar
    43    43    44   ar
    44    44    39   ar
    45    38    29   ar
    46    37    32   ar
    47     6     1   ar
    48    12     7    1
    49    20    15   ar
    50    27    28    1
    51    23    24    1
@<TRIPOS>MOLECULE
*****
 46 51 0 0 0
SMALL
GASTEIGER

@<TRIPOS>ATOM
      1 C          61.2573   89.0654   10.4225 C.ar    1  UNL1        0.0702
      2 C          60.4615   89.2174   11.5633 C.ar    1  UNL1        0.0191
      3 C          60.7906   88.5526   12.7453 C.ar    1  UNL1        0.0356
      4 C          61.9195   87.7160   12.7798 C.ar    1  UNL1        0.1318
      5 N          62.6577   87.5563   11.6455 N.ar    1  UNL1       -0.2279
      6 C          62.3581   88.1969   10.4848 C.ar    1  UNL1        0.1149
      7 N          62.2926   87.0075   13.9813 N.pl3   1  UNL1       -0.2932
      8 C          61.4760   85.8886   14.4826 C.3     1  UNL1        0.0923
      9 C          61.6221   85.7396   16.0017 C.3     1  UNL1        0.0252
     10 C          63.0989   85.5844   16.4515 C.3     1  UNL1        0.0472
     11 C          64.0974   86.2579   15.4790 C.3     1  UNL1        0.0252
     12 C          63.4722   87.4454   14.7433 C.3     1  UNL1        0.0923
     13 C          63.4746   84.1019   16.6549 C.3     1  UNL1        0.2054
     14 O          64.2462   83.6064   15.5589 O.3     1  UNL1       -0.4755
     15 C          63.7967   82.7007   14.5835 C.ar    1  UNL1        0.1388
     16 C          63.1953   81.5149   15.0172 C.ar    1  UNL1        0.0369
     17 C          62.7224   80.5811   14.0945 C.ar    1  UNL1        0.0033
     18 C          62.8504   80.8209   12.7253 C.ar    1  UNL1        0.0066
     19 C          63.4595   82.0002   12.2625 C.ar    1  UNL1        0.0785
     20 C          63.9191   82.9442   13.2001 C.ar    1  UNL1        0.0433
     21 C          63.5889   82.2425   10.8049 C.2     1  UNL1        0.3381
     22 O          64.2271   83.2474   10.3927 O.2     1  UNL1       -0.2451
     23 O          63.0055   81.3932    9.8652 O.3     1  UNL1       -0.4771
     24 H          62.3916   80.6321   10.1251 H       1  UNL1        0.2954
     25 C          59.7920   89.3402    8.3657 C.2     1  UNL1        0.2839
     26 O          59.0339   88.3944    8.7094 O.2     1  UNL1       -0.2665
     27 N          60.8890   89.7380    9.2069 N.am    1  UNL1       -0.2766
     28 H          61.4967   90.5284    8.8998 H       1  UNL1        0.1553
     29 C          58.9694   92.2024    3.1458 C.ar    1  UNL1        0.0002
     30 C          57.6214   92.0843    3.5811 C.ar    1  UNL1        0.0031
     31 C          57.3096   91.4547    4.7989 C.ar    1  UNL1        0.0375
     32 C          58.3586   90.9538    5.5619 C.ar    1  UNL1        0.1452
     33 O          58.2819   90.3380    6.7165 O.2     1  UNL1       -0.4492
     34 C          59.5106   90.0372    7.0988 C.ar    1  UNL1        0.1946
     35 C          60.4299   90.4579    6.1296 C.ar    1  UNL1        0.0202
     36 C          61.9167   90.2708    6.1061 C.3     1  UNL1        0.0345
     37 C          59.6605   91.0607    5.1550 C.ar    1  UNL1        0.0337
     38 C          60.0071   91.6768    3.9526 C.ar    1  UNL1        0.0028
     39 C          59.8859   94.1421   -0.5879 C.ar    1  UNL1       -0.0222
     40 C          60.5963   94.4727    0.5755 C.ar    1  UNL1       -0.0043
     41 C          60.2965   93.8464    1.7886 C.ar    1  UNL1       -0.0003
     42 C          59.2868   92.8696    1.8578 C.ar    1  UNL1       -0.0000
     43 C          58.5867   92.5315    0.6855 C.ar    1  UNL1       -0.0003
     44 C          58.8869   93.1594   -0.5266 C.ar    1  UNL1       -0.0043
     45 C          61.7440   94.8884   -2.0734 C.3     1  UNL1        0.0050
     46 C          60.2319   94.7930   -1.9002 C.3     1  UNL1        0.0264
@<TRIPOS>BOND
     1    45    46    1
     2    46    39    1
     3    39    40   ar
     4    40    41   ar
     5    41    42   ar
     6    42    29    1
     7    29    30   ar
     8    30    31   ar
     9    31    32   ar
    10    32    33   ar
    11    33    34   ar
    12    34    25    1
    13    25    26    2
    14    25    27   am
    15    27     1    1
    16     1     2   ar
    17     2     3   ar
    18     3     4   ar
    19     4     7    1
    20     7     8    1
    21     8     9    1
    22     9    10    1
    23    10    13    1
    24    13    14    1
    25    14    15    1
    26    15    16   ar
    27    16    17   ar
    28    17    18   ar
    29    18    19   ar
    30    19    21    1
    31    21    22    2
    32    21    23    1
    33    19    20   ar
    34    10    11    1
    35    11    12    1
    36     4     5   ar
    37     5     6   ar
    38    34    35   ar
    39    35    36    1
    40    35    37   ar
    41    37    38   ar
    42    42    43   ar
    43    43    44   ar
    44    44    39   ar
    45    38    29   ar
    46    37    32   ar
    47     6     1   ar
    48    12     7    1
    49    20    15   ar
    50    27    28    1
    51    23    24    1
