@<TRIPOS>MOLECULE
*****
 36 39 0 0 0
SMALL
GASTEIGER

@<TRIPOS>ATOM
      1 C          47.4725   13.4778  -22.6696 C.3     1  UNL1        0.1029
      2 C          46.7155   12.1383  -22.7086 C.3     1  UNL1        0.1484
      3 O          45.6068   12.2123  -21.8477 O.3     1  UNL1       -0.3786
      4 H          44.9691   11.5088  -22.1390 H       1  UNL1        0.2108
      5 C          47.6148   10.9597  -22.3729 C.ar    1  UNL1        0.0069
      6 C          47.6303   10.3815  -21.0880 C.ar    1  UNL1       -0.0018
      7 C          48.4833    9.3121  -20.8038 C.ar    1  UNL1        0.0011
      8 C          49.3523    8.8273  -21.7824 C.ar    1  UNL1        0.0158
      9 C          49.3806    9.4160  -23.0516 C.ar    1  UNL1        0.0642
     10 C          48.4899   10.4561  -23.3540 C.ar    1  UNL1        0.0139
     11 N          50.3366    8.9726  -24.0185 N.pl3   1  UNL1       -0.2188
     12 H          50.4914    7.9455  -24.1269 H       1  UNL1        0.1734
     13 S          51.6322   10.0101  -24.5203 S.O2    1  UNL1        0.0522
     14 O          52.9090    9.2184  -24.5304 O.2     1  UNL1       -0.1545
     15 O          51.7813   11.1562  -23.5589 O.2     1  UNL1       -0.1545
     16 C          51.3130   10.6373  -26.1680 C.3     1  UNL1        0.1488
     17 C          49.9242   10.2700  -26.6821 C.3     1  UNL1        0.0255
     18 C          50.5562    9.4298  -27.7826 C.3     1  UNL1        0.0036
     19 C          51.9438    9.7973  -27.2743 C.3     1  UNL1        0.0255
     20 N          46.7113   14.5604  -23.3240 N.3     1  UNL1       -0.2921
     21 H          46.1553   14.1306  -24.1010 H       1  UNL1        0.1234
     22 C          47.6109   15.5555  -23.9260 C.3     1  UNL1        0.1166
     23 C          47.1744   15.9109  -25.3506 C.3     1  UNL1        0.2224
     24 O          46.0790   15.0854  -25.7520 O.3     1  UNL1       -0.4731
     25 C          46.8399   10.0215  -30.0893 C.3     1  UNL1        0.0540
     26 C          46.4498   11.4492  -29.8946 C.ar    1  UNL1        0.0801
     27 N          46.1979   12.3167  -30.9037 N.ar    1  UNL1       -0.1770
     28 N          45.9509   13.5089  -30.3717 N.ar    1  UNL1       -0.2751
     29 C          46.0560   13.4120  -29.0347 C.ar    1  UNL1        0.0885
     30 C          45.9258   14.4166  -28.0744 C.ar    1  UNL1        0.1085
     31 CL         45.5714   16.0740  -28.5404 Cl      1  UNL1       -0.0775
     32 C          46.1469   14.0713  -26.7217 C.ar    1  UNL1        0.1505
     33 C          46.4512   12.7225  -26.3806 C.ar    1  UNL1        0.0379
     34 C          46.5780   11.7389  -27.3779 C.ar    1  UNL1        0.0059
     35 C          46.3744   12.1292  -28.6970 C.ar    1  UNL1        0.0333
     36 H          45.7330   14.3671  -30.9250 H       1  UNL1        0.1890
@<TRIPOS>BOND
     1    25    26    1
     2    26    27   ar
     3    27    28   ar
     4    28    29   ar
     5    29    30   ar
     6    30    31    1
     7    30    32   ar
     8    32    24    1
     9    24    23    1
    10    23    22    1
    11    22    20    1
    12    20     1    1
    13     1     2    1
    14     2     3    1
    15     2     5    1
    16     5     6   ar
    17     6     7   ar
    18     7     8   ar
    19     8     9   ar
    20     9    11    1
    21    11    13    1
    22    13    14    2
    23    13    15    2
    24    13    16    1
    25    16    17    1
    26    17    18    1
    27    18    19    1
    28     9    10   ar
    29    32    33   ar
    30    33    34   ar
    31    34    35   ar
    32    35    26   ar
    33    35    29   ar
    34    10     5   ar
    35    19    16    1
    36    28    36    1
    37    20    21    1
    38     3     4    1
    39    11    12    1
@<TRIPOS>MOLECULE
*****
 36 39 0 0 0
SMALL
GASTEIGER

@<TRIPOS>ATOM
      1 C          47.9677   16.3427  -26.8521 C.3     1  UNL1        0.1029
      2 C          47.2900   16.0241  -25.5075 C.3     1  UNL1        0.1484
      3 O          46.7172   17.1997  -24.9921 O.3     1  UNL1       -0.3786
      4 H          46.0219   16.9192  -24.3407 H       1  UNL1        0.2108
      5 C          48.2488   15.3812  -24.5186 C.ar    1  UNL1        0.0069
      6 C          48.0046   15.3991  -23.1309 C.ar    1  UNL1       -0.0018
      7 C          48.9152   14.8179  -22.2449 C.ar    1  UNL1        0.0011
      8 C          50.0925   14.2421  -22.7247 C.ar    1  UNL1        0.0158
      9 C          50.3719   14.2518  -24.0959 C.ar    1  UNL1        0.0642
     10 C          49.4358   14.7897  -24.9909 C.ar    1  UNL1        0.0139
     11 N          51.6210   13.7410  -24.5693 N.pl3   1  UNL1       -0.2188
     12 H          51.9113   13.9695  -25.5462 H       1  UNL1        0.1734
     13 S          52.3171   12.3171  -23.8659 S.O2    1  UNL1        0.0522
     14 O          51.3341   11.7280  -22.8944 O.2     1  UNL1       -0.1545
     15 O          53.5780   12.6671  -23.1259 O.2     1  UNL1       -0.1545
     16 C          52.6772   11.1144  -25.1442 C.3     1  UNL1        0.1488
     17 C          51.8444   11.3241  -26.4054 C.3     1  UNL1        0.0255
     18 C          51.1678    9.9795  -26.1794 C.3     1  UNL1        0.0036
     19 C          52.0000    9.7655  -24.9222 C.3     1  UNL1        0.0255
     20 N          47.2069   15.7999  -27.9951 N.3     1  UNL1       -0.2921
     21 H          46.7494   16.6069  -28.4819 H       1  UNL1        0.1234
     22 C          46.1384   14.8967  -27.5432 C.3     1  UNL1        0.1166
     23 C          46.4403   13.4436  -27.9221 C.3     1  UNL1        0.2224
     24 O          45.8719   12.5537  -26.9590 O.3     1  UNL1       -0.4731
     25 C          48.8288   10.6229  -21.2526 C.3     1  UNL1        0.0540
     26 C          47.6506   11.2873  -21.8844 C.ar    1  UNL1        0.0801
     27 N          46.5286   11.6485  -21.2171 N.ar    1  UNL1       -0.1770
     28 N          45.6661   12.1449  -22.0976 N.ar    1  UNL1       -0.2751
     29 C          46.2228   12.0911  -23.3204 C.ar    1  UNL1        0.0885
     30 C          45.6691   12.4588  -24.5478 C.ar    1  UNL1        0.1085
     31 CL         44.0350   13.0986  -24.6485 Cl      1  UNL1       -0.0775
     32 C          46.4409   12.2448  -25.7124 C.ar    1  UNL1        0.1505
     33 C          47.7545   11.7066  -25.5969 C.ar    1  UNL1        0.0379
     34 C          48.2760   11.3443  -24.3419 C.ar    1  UNL1        0.0059
     35 C          47.4722   11.5515  -23.2262 C.ar    1  UNL1        0.0333
     36 H          44.7125   12.4940  -21.8553 H       1  UNL1        0.1890
@<TRIPOS>BOND
     1    25    26    1
     2    26    27   ar
     3    27    28   ar
     4    28    29   ar
     5    29    30   ar
     6    30    31    1
     7    30    32   ar
     8    32    24    1
     9    24    23    1
    10    23    22    1
    11    22    20    1
    12    20     1    1
    13     1     2    1
    14     2     3    1
    15     2     5    1
    16     5     6   ar
    17     6     7   ar
    18     7     8   ar
    19     8     9   ar
    20     9    11    1
    21    11    13    1
    22    13    14    2
    23    13    15    2
    24    13    16    1
    25    16    17    1
    26    17    18    1
    27    18    19    1
    28     9    10   ar
    29    32    33   ar
    30    33    34   ar
    31    34    35   ar
    32    35    26   ar
    33    35    29   ar
    34    10     5   ar
    35    19    16    1
    36    28    36    1
    37    20    21    1
    38     3     4    1
    39    11    12    1
@<TRIPOS>MOLECULE
*****
 36 39 0 0 0
SMALL
GASTEIGER

@<TRIPOS>ATOM
      1 C          50.4227   17.6835  -25.6838 C.3     1  UNL1        0.1029
      2 C          50.6079   16.1896  -26.0039 C.3     1  UNL1        0.1484
      3 O          49.9802   15.9010  -27.2280 O.3     1  UNL1       -0.3786
      4 H          50.3900   15.0638  -27.5710 H       1  UNL1        0.2108
      5 C          50.1023   15.2947  -24.8841 C.ar    1  UNL1        0.0069
      6 C          50.0399   15.7414  -23.5491 C.ar    1  UNL1       -0.0018
      7 C          49.5902   14.8885  -22.5380 C.ar    1  UNL1        0.0011
      8 C          49.2289   13.5739  -22.8368 C.ar    1  UNL1        0.0158
      9 C          49.3239   13.0999  -24.1501 C.ar    1  UNL1        0.0642
     10 C          49.7269   13.9692  -25.1741 C.ar    1  UNL1        0.0139
     11 N          49.0382   11.7271  -24.4315 N.pl3   1  UNL1       -0.2188
     12 H          48.0576   11.4657  -24.6779 H       1  UNL1        0.1734
     13 S          50.0389   10.4661  -23.7869 S.O2    1  UNL1        0.0522
     14 O          51.2378   11.0890  -23.1297 O.2     1  UNL1       -0.1545
     15 O          50.5085    9.5607  -24.8913 O.2     1  UNL1       -0.1545
     16 C          49.1250    9.5182  -22.5718 C.3     1  UNL1        0.1488
     17 C          47.8071   10.1776  -22.1762 C.3     1  UNL1        0.0255
     18 C          48.3248   10.3549  -20.7559 C.3     1  UNL1        0.0036
     19 C          49.6399    9.6939  -21.1466 C.3     1  UNL1        0.0255
     20 N          50.3020   18.4989  -26.9087 N.3     1  UNL1       -0.2921
     21 H          51.0361   19.2450  -26.8651 H       1  UNL1        0.1234
     22 C          48.9960   19.1711  -26.9746 C.3     1  UNL1        0.1166
     23 C          48.2848   19.1402  -25.6183 C.3     1  UNL1        0.2224
     24 O          47.0025   18.5225  -25.7470 O.3     1  UNL1       -0.4731
     25 C          45.5800   11.9841  -26.2570 C.3     1  UNL1        0.0540
     26 C          45.8815   13.1279  -25.3461 C.ar    1  UNL1        0.0801
     27 N          45.7847   13.0754  -23.9962 N.ar    1  UNL1       -0.1770
     28 N          46.0572   14.2836  -23.5151 N.ar    1  UNL1       -0.2751
     29 C          46.3136   15.1079  -24.5462 C.ar    1  UNL1        0.0885
     30 C          46.6019   16.4733  -24.5205 C.ar    1  UNL1        0.1085
     31 CL         46.6766   17.3544  -23.0013 Cl      1  UNL1       -0.0775
     32 C          46.7725   17.1368  -25.7568 C.ar    1  UNL1        0.1505
     33 C          46.6865   16.3964  -26.9704 C.ar    1  UNL1        0.0379
     34 C          46.3899   15.0216  -26.9552 C.ar    1  UNL1        0.0059
     35 C          46.2074   14.4157  -25.7169 C.ar    1  UNL1        0.0333
     36 H          46.0474   14.5295  -22.5006 H       1  UNL1        0.1890
@<TRIPOS>BOND
     1    25    26    1
     2    26    27   ar
     3    27    28   ar
     4    28    29   ar
     5    29    30   ar
     6    30    31    1
     7    30    32   ar
     8    32    24    1
     9    24    23    1
    10    23    22    1
    11    22    20    1
    12    20     1    1
    13     1     2    1
    14     2     3    1
    15     2     5    1
    16     5     6   ar
    17     6     7   ar
    18     7     8   ar
    19     8     9   ar
    20     9    11    1
    21    11    13    1
    22    13    14    2
    23    13    15    2
    24    13    16    1
    25    16    17    1
    26    17    18    1
    27    18    19    1
    28     9    10   ar
    29    32    33   ar
    30    33    34   ar
    31    34    35   ar
    32    35    26   ar
    33    35    29   ar
    34    10     5   ar
    35    19    16    1
    36    28    36    1
    37    20    21    1
    38     3     4    1
    39    11    12    1
@<TRIPOS>MOLECULE
*****
 36 39 0 0 0
SMALL
GASTEIGER

@<TRIPOS>ATOM
      1 C          46.1098   12.8248  -24.8901 C.3     1  UNL1        0.1029
      2 C          46.5970   12.5292  -23.4605 C.3     1  UNL1        0.1484
      3 O          46.7244   13.7407  -22.7592 O.3     1  UNL1       -0.3786
      4 H          46.6985   13.5171  -21.7918 H       1  UNL1        0.2108
      5 C          47.8895   11.7293  -23.4475 C.ar    1  UNL1        0.0069
      6 C          48.3654   11.0709  -24.5988 C.ar    1  UNL1       -0.0018
      7 C          49.5462   10.3258  -24.5504 C.ar    1  UNL1        0.0011
      8 C          50.2489   10.2000  -23.3511 C.ar    1  UNL1        0.0158
      9 C          49.7694   10.8124  -22.1878 C.ar    1  UNL1        0.0642
     10 C          48.6119   11.6019  -22.2459 C.ar    1  UNL1        0.0139
     11 N          50.4462   10.6037  -20.9453 N.pl3   1  UNL1       -0.2188
     12 H          51.4793   10.4517  -20.9634 H       1  UNL1        0.1734
     13 S          49.5943    9.9826  -19.5685 S.O2    1  UNL1        0.0522
     14 O          50.3758    8.8353  -18.9939 O.2     1  UNL1       -0.1545
     15 O          48.2365    9.4854  -19.9795 O.2     1  UNL1       -0.1545
     16 C          49.4221   11.2613  -18.3254 C.3     1  UNL1        0.1488
     17 C          47.9888   11.7670  -18.1913 C.3     1  UNL1        0.0255
     18 C          48.4313   13.1418  -18.6718 C.3     1  UNL1        0.0036
     19 C          49.8635   12.6413  -18.8031 C.3     1  UNL1        0.0255
     20 N          46.3965   14.2157  -25.2938 N.3     1  UNL1       -0.2921
     21 H          45.4879   14.6581  -25.5700 H       1  UNL1        0.1234
     22 C          47.2806   14.2582  -26.4678 C.3     1  UNL1        0.1166
     23 C          48.5655   15.0368  -26.1694 C.3     1  UNL1        0.2224
     24 O          49.6315   14.1339  -25.8681 O.3     1  UNL1       -0.4731
     25 C          52.7961   14.4319  -19.9579 C.3     1  UNL1        0.0540
     26 C          52.7549   13.8262  -21.3218 C.ar    1  UNL1        0.0801
     27 N          53.7336   13.0475  -21.8417 N.ar    1  UNL1       -0.1770
     28 N          53.3996   12.7434  -23.0913 N.ar    1  UNL1       -0.2751
     29 C          52.2244   13.3315  -23.3763 C.ar    1  UNL1        0.0885
     30 C          51.5154   13.3265  -24.5786 C.ar    1  UNL1        0.1085
     31 CL         52.1263   12.4691  -25.9862 Cl      1  UNL1       -0.0775
     32 C          50.3222   14.0811  -24.6461 C.ar    1  UNL1        0.1505
     33 C          49.8655   14.7799  -23.4922 C.ar    1  UNL1        0.0379
     34 C          50.6106   14.7642  -22.2995 C.ar    1  UNL1        0.0059
     35 C          51.7897   14.0271  -22.2862 C.ar    1  UNL1        0.0333
     36 H          53.9817   12.1584  -23.7307 H       1  UNL1        0.1890
@<TRIPOS>BOND
     1    25    26    1
     2    26    27   ar
     3    27    28   ar
     4    28    29   ar
     5    29    30   ar
     6    30    31    1
     7    30    32   ar
     8    32    24    1
     9    24    23    1
    10    23    22    1
    11    22    20    1
    12    20     1    1
    13     1     2    1
    14     2     3    1
    15     2     5    1
    16     5     6   ar
    17     6     7   ar
    18     7     8   ar
    19     8     9   ar
    20     9    11    1
    21    11    13    1
    22    13    14    2
    23    13    15    2
    24    13    16    1
    25    16    17    1
    26    17    18    1
    27    18    19    1
    28     9    10   ar
    29    32    33   ar
    30    33    34   ar
    31    34    35   ar
    32    35    26   ar
    33    35    29   ar
    34    10     5   ar
    35    19    16    1
    36    28    36    1
    37    20    21    1
    38     3     4    1
    39    11    12    1
@<TRIPOS>MOLECULE
*****
 36 39 0 0 0
SMALL
GASTEIGER

@<TRIPOS>ATOM
      1 C          51.7621   10.2523  -24.7374 C.3     1  UNL1        0.1029
      2 C          52.6147   11.5333  -24.7651 C.3     1  UNL1        0.1484
      3 O          53.6216   11.4358  -23.7891 O.3     1  UNL1       -0.3786
      4 H          54.3353   12.0766  -24.0472 H       1  UNL1        0.2108
      5 C          51.7743   12.7873  -24.5875 C.ar    1  UNL1        0.0069
      6 C          51.4845   13.3110  -23.3118 C.ar    1  UNL1       -0.0018
      7 C          50.6915   14.4536  -23.1796 C.ar    1  UNL1        0.0011
      8 C          50.1515   15.0687  -24.3101 C.ar    1  UNL1        0.0158
      9 C          50.3942   14.5387  -25.5823 C.ar    1  UNL1        0.0642
     10 C          51.2309   13.4218  -25.7207 C.ar    1  UNL1        0.0139
     11 N          49.7637   15.1216  -26.7261 N.pl3   1  UNL1       -0.2188
     12 H          50.1819   14.9439  -27.6664 H       1  UNL1        0.1734
     13 S          48.7881   16.5464  -26.5672 S.O2    1  UNL1        0.0522
     14 O          48.0763   16.4997  -25.2450 O.2     1  UNL1       -0.1545
     15 O          47.7640   16.5993  -27.6664 O.2     1  UNL1       -0.1545
     16 C          49.8223   18.0082  -26.6299 C.3     1  UNL1        0.1488
     17 C          51.3110   17.6780  -26.6814 C.3     1  UNL1        0.0255
     18 C          51.5030   18.3423  -25.3255 C.3     1  UNL1        0.0036
     19 C          50.0183   18.6766  -25.2726 C.3     1  UNL1        0.0255
     20 N          51.3093    9.9209  -23.3717 N.3     1  UNL1       -0.2921
     21 H          52.0640    9.3536  -22.9177 H       1  UNL1        0.1234
     22 C          50.0943    9.0933  -23.3995 C.3     1  UNL1        0.1166
     23 C          48.9014    9.8349  -22.7886 C.3     1  UNL1        0.2224
     24 O          48.9298   11.2127  -23.1671 O.3     1  UNL1       -0.4731
     25 C          46.0148   13.7757  -28.6414 C.3     1  UNL1        0.0540
     26 C          46.1222   13.8110  -27.1528 C.ar    1  UNL1        0.0801
     27 N          45.5463   14.7523  -26.3675 N.ar    1  UNL1       -0.1770
     28 N          45.9052   14.5173  -25.1100 N.ar    1  UNL1       -0.2751
     29 C          46.7145   13.4436  -25.0885 C.ar    1  UNL1        0.0885
     30 C          47.3652   12.8634  -23.9985 C.ar    1  UNL1        0.1085
     31 CL         47.1825   13.5227  -22.3793 Cl      1  UNL1       -0.0775
     32 C          48.2219   11.7670  -24.2465 C.ar    1  UNL1        0.1505
     33 C          48.3621   11.2697  -25.5737 C.ar    1  UNL1        0.0379
     34 C          47.6927   11.8845  -26.6470 C.ar    1  UNL1        0.0059
     35 C          46.8784   12.9743  -26.3590 C.ar    1  UNL1        0.0333
     36 H          45.6090   15.0981  -24.2946 H       1  UNL1        0.1890
@<TRIPOS>BOND
     1    25    26    1
     2    26    27   ar
     3    27    28   ar
     4    28    29   ar
     5    29    30   ar
     6    30    31    1
     7    30    32   ar
     8    32    24    1
     9    24    23    1
    10    23    22    1
    11    22    20    1
    12    20     1    1
    13     1     2    1
    14     2     3    1
    15     2     5    1
    16     5     6   ar
    17     6     7   ar
    18     7     8   ar
    19     8     9   ar
    20     9    11    1
    21    11    13    1
    22    13    14    2
    23    13    15    2
    24    13    16    1
    25    16    17    1
    26    17    18    1
    27    18    19    1
    28     9    10   ar
    29    32    33   ar
    30    33    34   ar
    31    34    35   ar
    32    35    26   ar
    33    35    29   ar
    34    10     5   ar
    35    19    16    1
    36    28    36    1
    37    20    21    1
    38     3     4    1
    39    11    12    1
@<TRIPOS>MOLECULE
*****
 36 39 0 0 0
SMALL
GASTEIGER

@<TRIPOS>ATOM
      1 C          52.7561   12.1805  -24.6016 C.3     1  UNL1        0.1029
      2 C          52.8682   13.2276  -23.4793 C.3     1  UNL1        0.1484
      3 O          53.7624   12.7586  -22.5014 O.3     1  UNL1       -0.3786
      4 H          54.0757   13.5527  -21.9937 H       1  UNL1        0.2108
      5 C          51.5144   13.5809  -22.8853 C.ar    1  UNL1        0.0069
      6 C          51.1058   13.0914  -21.6287 C.ar    1  UNL1       -0.0018
      7 C          49.8466   13.4167  -21.1181 C.ar    1  UNL1        0.0011
      8 C          48.9681   14.2040  -21.8639 C.ar    1  UNL1        0.0158
      9 C          49.3404   14.6647  -23.1317 C.ar    1  UNL1        0.0642
     10 C          50.6225   14.3813  -23.6241 C.ar    1  UNL1        0.0139
     11 N          48.4009   15.3942  -23.9259 N.pl3   1  UNL1       -0.2188
     12 H          47.3827   15.2619  -23.7348 H       1  UNL1        0.1734
     13 S          48.8273   15.9482  -25.5128 S.O2    1  UNL1        0.0522
     14 O          47.5729   16.0961  -26.3262 O.2     1  UNL1       -0.1545
     15 O          49.7260   14.9493  -26.1870 O.2     1  UNL1       -0.1545
     16 C          49.6536   17.5345  -25.4075 C.3     1  UNL1        0.1488
     17 C          48.7754   18.6913  -25.8752 C.3     1  UNL1        0.0255
     18 C          49.7354   18.9514  -27.0273 C.3     1  UNL1        0.0036
     19 C          50.6160   17.7997  -26.5611 C.3     1  UNL1        0.0255
     20 N          52.8722   10.8027  -24.0836 N.3     1  UNL1       -0.2921
     21 H          53.8926   10.5904  -23.9767 H       1  UNL1        0.1234
     22 C          52.3181    9.8277  -25.0344 C.3     1  UNL1        0.1166
     23 C          51.1385    9.0640  -24.4247 C.3     1  UNL1        0.2224
     24 O          50.4289    9.9006  -23.5087 O.3     1  UNL1       -0.4731
     25 C          45.1970   13.7379  -25.2221 C.3     1  UNL1        0.0540
     26 C          45.7762   12.7922  -24.2227 C.ar    1  UNL1        0.0801
     27 N          45.2233   12.5231  -23.0159 N.ar    1  UNL1       -0.1770
     28 N          46.0356   11.6983  -22.3639 N.ar    1  UNL1       -0.2751
     29 C          47.1065   11.4499  -23.1384 C.ar    1  UNL1        0.0885
     30 C          48.2330   10.6787  -22.8480 C.ar    1  UNL1        0.1085
     31 CL         48.3971    9.8630  -21.2996 Cl      1  UNL1       -0.0775
     32 C          49.2636   10.6233  -23.8137 C.ar    1  UNL1        0.1505
     33 C          49.1067   11.3118  -25.0505 C.ar    1  UNL1        0.0379
     34 C          47.9579   12.0825  -25.3044 C.ar    1  UNL1        0.0059
     35 C          46.9804   12.1266  -24.3163 C.ar    1  UNL1        0.0333
     36 H          45.8570   11.3339  -21.4020 H       1  UNL1        0.1890
@<TRIPOS>BOND
     1    25    26    1
     2    26    27   ar
     3    27    28   ar
     4    28    29   ar
     5    29    30   ar
     6    30    31    1
     7    30    32   ar
     8    32    24    1
     9    24    23    1
    10    23    22    1
    11    22    20    1
    12    20     1    1
    13     1     2    1
    14     2     3    1
    15     2     5    1
    16     5     6   ar
    17     6     7   ar
    18     7     8   ar
    19     8     9   ar
    20     9    11    1
    21    11    13    1
    22    13    14    2
    23    13    15    2
    24    13    16    1
    25    16    17    1
    26    17    18    1
    27    18    19    1
    28     9    10   ar
    29    32    33   ar
    30    33    34   ar
    31    34    35   ar
    32    35    26   ar
    33    35    29   ar
    34    10     5   ar
    35    19    16    1
    36    28    36    1
    37    20    21    1
    38     3     4    1
    39    11    12    1
@<TRIPOS>MOLECULE
*****
 36 39 0 0 0
SMALL
GASTEIGER

@<TRIPOS>ATOM
      1 C          50.0745   17.8281  -26.5607 C.3     1  UNL1        0.1029
      2 C          50.0307   16.3308  -26.9141 C.3     1  UNL1        0.1484
      3 O          48.8819   16.0738  -27.6823 O.3     1  UNL1       -0.3786
      4 H          49.0467   15.2249  -28.1709 H       1  UNL1        0.2108
      5 C          50.0952   15.4466  -25.6795 C.ar    1  UNL1        0.0069
      6 C          50.5386   15.9403  -24.4364 C.ar    1  UNL1       -0.0018
      7 C          50.6069   15.0977  -23.3241 C.ar    1  UNL1        0.0011
      8 C          50.2667   13.7493  -23.4423 C.ar    1  UNL1        0.0158
      9 C          49.8639   13.2316  -24.6784 C.ar    1  UNL1        0.0642
     10 C          49.7466   14.0866  -25.7838 C.ar    1  UNL1        0.0139
     11 N          49.6045   11.8314  -24.8110 N.pl3   1  UNL1       -0.2188
     12 H          48.6390   11.5289  -25.0701 H       1  UNL1        0.1734
     13 S          50.5850   10.6683  -23.9786 S.O2    1  UNL1        0.0522
     14 O          49.8426    9.3636  -23.9203 O.2     1  UNL1       -0.1545
     15 O          50.8605   11.1314  -22.5752 O.2     1  UNL1       -0.1545
     16 C          52.1303   10.4301  -24.8537 C.3     1  UNL1        0.1488
     17 C          53.0951   11.5992  -24.6798 C.3     1  UNL1        0.0255
     18 C          52.9993   11.8969  -26.1694 C.3     1  UNL1        0.0036
     19 C          52.0390   10.7285  -26.3471 C.3     1  UNL1        0.0255
     20 N          48.8530   18.5335  -26.9970 N.3     1  UNL1       -0.2921
     21 H          49.0896   19.0656  -27.8680 H       1  UNL1        0.1234
     22 C          48.4142   19.5113  -25.9905 C.3     1  UNL1        0.1166
     23 C          47.2873   18.9468  -25.1201 C.3     1  UNL1        0.2224
     24 O          46.7110   17.7967  -25.7428 O.3     1  UNL1       -0.4731
     25 C          46.6607   11.8492  -22.6349 C.3     1  UNL1        0.0540
     26 C          46.2810   12.6231  -23.8537 C.ar    1  UNL1        0.0801
     27 N          45.7915   12.0691  -24.9886 N.ar    1  UNL1       -0.1770
     28 N          45.6311   13.0368  -25.8849 N.ar    1  UNL1       -0.2751
     29 C          46.0261   14.1992  -25.3363 C.ar    1  UNL1        0.0885
     30 C          46.0779   15.4660  -25.9199 C.ar    1  UNL1        0.1085
     31 CL         45.5832   15.7152  -27.5881 Cl      1  UNL1       -0.0775
     32 C          46.5966   16.5297  -25.1470 C.ar    1  UNL1        0.1505
     33 C          47.0064   16.2892  -23.8044 C.ar    1  UNL1        0.0379
     34 C          46.9427   14.9969  -23.2530 C.ar    1  UNL1        0.0059
     35 C          46.4470   13.9769  -24.0578 C.ar    1  UNL1        0.0333
     36 H          45.2739   12.8881  -26.8546 H       1  UNL1        0.1890
@<TRIPOS>BOND
     1    25    26    1
     2    26    27   ar
     3    27    28   ar
     4    28    29   ar
     5    29    30   ar
     6    30    31    1
     7    30    32   ar
     8    32    24    1
     9    24    23    1
    10    23    22    1
    11    22    20    1
    12    20     1    1
    13     1     2    1
    14     2     3    1
    15     2     5    1
    16     5     6   ar
    17     6     7   ar
    18     7     8   ar
    19     8     9   ar
    20     9    11    1
    21    11    13    1
    22    13    14    2
    23    13    15    2
    24    13    16    1
    25    16    17    1
    26    17    18    1
    27    18    19    1
    28     9    10   ar
    29    32    33   ar
    30    33    34   ar
    31    34    35   ar
    32    35    26   ar
    33    35    29   ar
    34    10     5   ar
    35    19    16    1
    36    28    36    1
    37    20    21    1
    38     3     4    1
    39    11    12    1
@<TRIPOS>MOLECULE
*****
 36 39 0 0 0
SMALL
GASTEIGER

@<TRIPOS>ATOM
      1 C          49.4503   13.5540  -23.7330 C.3     1  UNL1        0.1029
      2 C          50.1735   12.7711  -24.8433 C.3     1  UNL1        0.1484
      3 O          49.5093   12.9855  -26.0635 O.3     1  UNL1       -0.3786
      4 H          50.1579   12.7733  -26.7851 H       1  UNL1        0.2108
      5 C          50.2951   11.2914  -24.5178 C.ar    1  UNL1        0.0069
      6 C          50.6434   10.3425  -25.4996 C.ar    1  UNL1       -0.0018
      7 C          50.7268    8.9863  -25.1746 C.ar    1  UNL1        0.0011
      8 C          50.4338    8.5547  -23.8801 C.ar    1  UNL1        0.0158
      9 C          50.0457    9.4776  -22.9023 C.ar    1  UNL1        0.0642
     10 C          50.0103   10.8445  -23.2134 C.ar    1  UNL1        0.0139
     11 N          49.6603    9.0166  -21.6044 N.pl3   1  UNL1       -0.2188
     12 H          49.0402    8.1787  -21.5404 H       1  UNL1        0.1734
     13 S          49.6426   10.1005  -20.2510 S.O2    1  UNL1        0.0522
     14 O          50.5893   11.2339  -20.5271 O.2     1  UNL1       -0.1545
     15 O          50.0935    9.3856  -19.0078 O.2     1  UNL1       -0.1545
     16 C          47.9921   10.7548  -20.0104 C.3     1  UNL1        0.1488
     17 C          47.0185   10.3203  -21.1020 C.3     1  UNL1        0.0255
     18 C          46.8713   11.7693  -21.5442 C.3     1  UNL1        0.0036
     19 C          47.8398   12.2066  -20.4534 C.3     1  UNL1        0.0255
     20 N          49.5594   15.0135  -23.9268 N.3     1  UNL1       -0.2921
     21 H          49.7637   15.4418  -22.9928 H       1  UNL1        0.1234
     22 C          48.2909   15.5840  -24.4035 C.3     1  UNL1        0.1166
     23 C          47.0907   14.9186  -23.7232 C.3     1  UNL1        0.2224
     24 O          46.0349   14.7218  -24.6661 O.3     1  UNL1       -0.4731
     25 C          46.7093   10.3044  -29.6727 C.3     1  UNL1        0.0540
     26 C          46.4224   11.7175  -29.2860 C.ar    1  UNL1        0.0801
     27 N          46.3185   12.7436  -30.1639 N.ar    1  UNL1       -0.1770
     28 N          46.1292   13.8619  -29.4718 N.ar    1  UNL1       -0.2751
     29 C          46.1247   13.5598  -28.1615 C.ar    1  UNL1        0.0885
     30 C          46.0040   14.4194  -27.0685 C.ar    1  UNL1        0.1085
     31 CL         45.8211   16.1528  -27.2960 Cl      1  UNL1       -0.0775
     32 C          46.0936   13.8598  -25.7737 C.ar    1  UNL1        0.1505
     33 C          46.2611   12.4533  -25.6252 C.ar    1  UNL1        0.0379
     34 C          46.3830   11.6201  -26.7517 C.ar    1  UNL1        0.0059
     35 C          46.3119   12.2175  -28.0054 C.ar    1  UNL1        0.0333
     36 H          46.0240   14.8085  -29.8994 H       1  UNL1        0.1890
@<TRIPOS>BOND
     1    25    26    1
     2    26    27   ar
     3    27    28   ar
     4    28    29   ar
     5    29    30   ar
     6    30    31    1
     7    30    32   ar
     8    32    24    1
     9    24    23    1
    10    23    22    1
    11    22    20    1
    12    20     1    1
    13     1     2    1
    14     2     3    1
    15     2     5    1
    16     5     6   ar
    17     6     7   ar
    18     7     8   ar
    19     8     9   ar
    20     9    11    1
    21    11    13    1
    22    13    14    2
    23    13    15    2
    24    13    16    1
    25    16    17    1
    26    17    18    1
    27    18    19    1
    28     9    10   ar
    29    32    33   ar
    30    33    34   ar
    31    34    35   ar
    32    35    26   ar
    33    35    29   ar
    34    10     5   ar
    35    19    16    1
    36    28    36    1
    37    20    21    1
    38     3     4    1
    39    11    12    1
@<TRIPOS>MOLECULE
*****
 36 39 0 0 0
SMALL
GASTEIGER

@<TRIPOS>ATOM
      1 C          50.6808   12.8282  -20.3039 C.3     1  UNL1        0.1029
      2 C          51.1125   13.0457  -21.7651 C.3     1  UNL1        0.1484
      3 O          52.5046   13.2357  -21.8091 O.3     1  UNL1       -0.3786
      4 H          52.7935   13.0316  -22.7373 H       1  UNL1        0.2108
      5 C          50.3637   14.1944  -22.4209 C.ar    1  UNL1        0.0069
      6 C          49.2179   14.7648  -21.8315 C.ar    1  UNL1       -0.0018
      7 C          48.5385   15.8061  -22.4688 C.ar    1  UNL1        0.0011
      8 C          48.9705   16.2696  -23.7123 C.ar    1  UNL1        0.0158
      9 C          50.0818   15.6874  -24.3322 C.ar    1  UNL1        0.0642
     10 C          50.7947   14.6766  -23.6714 C.ar    1  UNL1        0.0139
     11 N          50.4627   16.1068  -25.6454 N.pl3   1  UNL1       -0.2188
     12 H          50.8792   15.3987  -26.2902 H       1  UNL1        0.1734
     13 S          50.8430   17.7678  -25.9670 S.O2    1  UNL1        0.0522
     14 O          52.0068   17.8223  -26.9155 O.2     1  UNL1       -0.1545
     15 O          51.2240   18.4689  -24.6930 O.2     1  UNL1       -0.1545
     16 C          49.4345   18.5865  -26.7127 C.3     1  UNL1        0.1488
     17 C          48.5662   19.3169  -25.6925 C.3     1  UNL1        0.0255
     18 C          47.4124   18.3740  -26.0027 C.3     1  UNL1        0.0036
     19 C          48.2751   17.6451  -27.0243 C.3     1  UNL1        0.0255
     20 N          50.8496   11.4233  -19.8825 N.3     1  UNL1       -0.2921
     21 H          51.2686   10.9001  -20.6877 H       1  UNL1        0.1234
     22 C          49.5536   10.7985  -19.5797 C.3     1  UNL1        0.1166
     23 C          49.3836    9.4756  -20.3329 C.3     1  UNL1        0.2224
     24 O          48.2079    9.5167  -21.1443 O.3     1  UNL1       -0.4731
     25 C          46.0420   14.4041  -25.2009 C.3     1  UNL1        0.0540
     26 C          47.0767   13.3574  -24.9507 C.ar    1  UNL1        0.0801
     27 N          48.0299   12.9969  -25.8428 N.ar    1  UNL1       -0.1770
     28 N          48.7291   11.9961  -25.3185 N.ar    1  UNL1       -0.2751
     29 C          48.2222   11.7072  -24.1070 C.ar    1  UNL1        0.0885
     30 C          48.6077   10.7037  -23.2168 C.ar    1  UNL1        0.1085
     31 CL         49.9230    9.6045  -23.6062 Cl      1  UNL1       -0.0775
     32 C          47.8690   10.5613  -22.0202 C.ar    1  UNL1        0.1505
     33 C          46.7967   11.4571  -21.7446 C.ar    1  UNL1        0.0379
     34 C          46.4355   12.4535  -22.6691 C.ar    1  UNL1        0.0059
     35 C          47.1757   12.5417  -23.8431 C.ar    1  UNL1        0.0333
     36 H          49.5238   11.5181  -25.7981 H       1  UNL1        0.1890
@<TRIPOS>BOND
     1    25    26    1
     2    26    27   ar
     3    27    28   ar
     4    28    29   ar
     5    29    30   ar
     6    30    31    1
     7    30    32   ar
     8    32    24    1
     9    24    23    1
    10    23    22    1
    11    22    20    1
    12    20     1    1
    13     1     2    1
    14     2     3    1
    15     2     5    1
    16     5     6   ar
    17     6     7   ar
    18     7     8   ar
    19     8     9   ar
    20     9    11    1
    21    11    13    1
    22    13    14    2
    23    13    15    2
    24    13    16    1
    25    16    17    1
    26    17    18    1
    27    18    19    1
    28     9    10   ar
    29    32    33   ar
    30    33    34   ar
    31    34    35   ar
    32    35    26   ar
    33    35    29   ar
    34    10     5   ar
    35    19    16    1
    36    28    36    1
    37    20    21    1
    38     3     4    1
    39    11    12    1
