@<TRIPOS>MOLECULE
*****
 34 37 0 0 0
SMALL
GASTEIGER

@<TRIPOS>ATOM
      1 N          -9.0753  -10.6215   31.9200 N.am    1  UNL1       -0.2685
      2 C          -8.8751  -11.4376   33.0843 C.2     1  UNL1        0.2672
      3 O          -7.8078  -11.3238   33.7453 O.2     1  UNL1       -0.2682
      4 C          -9.9145  -12.3999   33.4981 C.ar    1  UNL1        0.1347
      5 C         -10.9391  -12.7869   32.6200 C.ar    1  UNL1        0.0238
      6 C         -11.8831  -13.7348   33.0362 C.ar    1  UNL1        0.0031
      7 C         -12.9149  -14.1479   32.1788 C.ar    1  UNL1        0.0001
      8 C         -13.8457  -15.0984   32.6095 C.ar    1  UNL1        0.0000
      9 C         -13.7536  -15.6419   33.8943 C.ar    1  UNL1        0.0000
     10 C         -12.7303  -15.2384   34.7572 C.ar    1  UNL1        0.0015
     11 C         -11.7917  -14.2852   34.3346 C.ar    1  UNL1        0.0192
     12 C         -10.7571  -13.8654   35.1786 C.ar    1  UNL1        0.0989
     13 N          -9.8564  -12.9460   34.7443 N.ar    1  UNL1       -0.2393
     14 C         -11.0150   -9.1956   31.3175 C.3     1  UNL1        0.0265
     15 C          -9.6589   -9.2729   32.0352 C.3     1  UNL1        0.1007
     16 C          -8.6626   -8.2219   31.5678 C.ar    1  UNL1        0.0234
     17 C          -8.7970   -7.5829   30.3169 C.ar    1  UNL1        0.0019
     18 C          -7.8227   -6.6877   29.8674 C.ar    1  UNL1        0.0295
     19 C          -6.6978   -6.4247   30.6498 C.ar    1  UNL1        0.1424
     20 F          -5.7508   -5.5612   30.2075 F       1  UNL1       -0.2041
     21 C          -6.5416   -7.0612   31.8823 C.ar    1  UNL1        0.0590
     22 C          -7.5106   -7.9603   32.3391 C.ar    1  UNL1        0.1399
     23 F          -7.3117   -8.5899   33.5250 F       1  UNL1       -0.2044
     24 C          -8.6471  -11.1361   30.6161 C.3     1  UNL1        0.1207
     25 C          -7.1965  -10.8128   30.3859 C.ar    1  UNL1       -0.0021
     26 C          -6.2451  -11.0772   31.3819 C.ar    1  UNL1       -0.0026
     27 C          -4.8932  -10.8200   31.1480 C.ar    1  UNL1       -0.0001
     28 C          -4.4780  -10.3051   29.9176 C.ar    1  UNL1        0.0064
     29 C          -5.4149  -10.0435   28.9031 C.ar    1  UNL1        0.0752
     30 C          -6.7761  -10.3042   29.1464 C.ar    1  UNL1        0.0038
     31 C          -4.9709   -9.5064   27.5977 C.2     1  UNL1        0.3380
     32 O          -3.8409   -8.9589   27.4831 O.2     1  UNL1       -0.2451
     33 O          -5.7986   -9.6006   26.4818 O.3     1  UNL1       -0.4771
     34 H          -5.5045   -9.2360   25.5836 H       1  UNL1        0.2954
@<TRIPOS>BOND
     1    14    15    1
     2    15    16    1
     3    16    17   ar
     4    17    18   ar
     5    18    19   ar
     6    19    20    1
     7    19    21   ar
     8    21    22   ar
     9    22    23    1
    10    15     1    1
    11     1    24    1
    12    24    25    1
    13    25    26   ar
    14    26    27   ar
    15    27    28   ar
    16    28    29   ar
    17    29    31    1
    18    31    32    2
    19    31    33    1
    20    29    30   ar
    21     1     2   am
    22     2     3    2
    23     2     4    1
    24     4     5   ar
    25     5     6   ar
    26     6     7   ar
    27     7     8   ar
    28     8     9   ar
    29     9    10   ar
    30    10    11   ar
    31    11    12   ar
    32    12    13   ar
    33    22    16   ar
    34    30    25   ar
    35    13     4   ar
    36    11     6   ar
    37    33    34    1
@<TRIPOS>MOLECULE
*****
 34 37 0 0 0
SMALL
GASTEIGER

@<TRIPOS>ATOM
      1 N         -10.4150  -11.7468   32.9897 N.am    1  UNL1       -0.2685
      2 C          -9.1895  -11.3507   33.6245 C.2     1  UNL1        0.2672
      3 O          -8.9247  -11.7756   34.7814 O.2     1  UNL1       -0.2682
      4 C          -8.2519  -10.4530   32.9227 C.ar    1  UNL1        0.1347
      5 C          -7.3995  -10.9338   31.9162 C.ar    1  UNL1        0.0238
      6 C          -6.5534  -10.0418   31.2443 C.ar    1  UNL1        0.0031
      7 C          -5.6952  -10.4904   30.2281 C.ar    1  UNL1        0.0001
      8 C          -4.8607   -9.5851   29.5651 C.ar    1  UNL1        0.0000
      9 C          -4.8770   -8.2304   29.9099 C.ar    1  UNL1        0.0000
     10 C          -5.7275   -7.7717   30.9202 C.ar    1  UNL1        0.0015
     11 C          -6.5683   -8.6720   31.5915 C.ar    1  UNL1        0.0192
     12 C          -7.4299   -8.2381   32.6056 C.ar    1  UNL1        0.0989
     13 N          -8.2394   -9.1279   33.2366 N.ar    1  UNL1       -0.2393
     14 C         -10.5186  -12.7009   30.7012 C.3     1  UNL1        0.0265
     15 C         -10.4912  -12.9945   32.2089 C.3     1  UNL1        0.1007
     16 C         -11.6586  -13.8473   32.6838 C.ar    1  UNL1        0.0234
     17 C         -12.7983  -14.0523   31.8773 C.ar    1  UNL1        0.0019
     18 C         -13.8973  -14.7629   32.3670 C.ar    1  UNL1        0.0295
     19 C         -13.8823  -15.2691   33.6672 C.ar    1  UNL1        0.1424
     20 F         -14.9532  -15.9518   34.1416 F       1  UNL1       -0.2041
     21 C         -12.7694  -15.0606   34.4835 C.ar    1  UNL1        0.0590
     22 C         -11.6658  -14.3486   34.0025 C.ar    1  UNL1        0.1399
     23 F         -10.6143  -14.1322   34.8330 F       1  UNL1       -0.2044
     24 C         -11.6045  -10.9094   33.1689 C.3     1  UNL1        0.1207
     25 C         -11.6138   -9.8029   32.1506 C.ar    1  UNL1       -0.0021
     26 C         -12.3991   -8.6589   32.3547 C.ar    1  UNL1       -0.0026
     27 C         -12.3698   -7.6127   31.4312 C.ar    1  UNL1       -0.0001
     28 C         -11.5520   -7.6946   30.3015 C.ar    1  UNL1        0.0064
     29 C         -10.7496   -8.8281   30.0847 C.ar    1  UNL1        0.0752
     30 C         -10.7852   -9.8792   31.0195 C.ar    1  UNL1        0.0038
     31 C          -9.8778   -8.9080   28.8918 C.2     1  UNL1        0.3380
     32 O          -8.6298   -9.0345   29.0199 O.2     1  UNL1       -0.2451
     33 O         -10.4285   -8.8439   27.6144 O.3     1  UNL1       -0.4771
     34 H          -9.8406   -8.8974   26.7911 H       1  UNL1        0.2954
@<TRIPOS>BOND
     1    14    15    1
     2    15    16    1
     3    16    17   ar
     4    17    18   ar
     5    18    19   ar
     6    19    20    1
     7    19    21   ar
     8    21    22   ar
     9    22    23    1
    10    15     1    1
    11     1    24    1
    12    24    25    1
    13    25    26   ar
    14    26    27   ar
    15    27    28   ar
    16    28    29   ar
    17    29    31    1
    18    31    32    2
    19    31    33    1
    20    29    30   ar
    21     1     2   am
    22     2     3    2
    23     2     4    1
    24     4     5   ar
    25     5     6   ar
    26     6     7   ar
    27     7     8   ar
    28     8     9   ar
    29     9    10   ar
    30    10    11   ar
    31    11    12   ar
    32    12    13   ar
    33    22    16   ar
    34    30    25   ar
    35    13     4   ar
    36    11     6   ar
    37    33    34    1
@<TRIPOS>MOLECULE
*****
 34 37 0 0 0
SMALL
GASTEIGER

@<TRIPOS>ATOM
      1 N          -9.2220  -10.4635   31.8273 N.am    1  UNL1       -0.2685
      2 C          -8.9730  -11.2889   32.9755 C.2     1  UNL1        0.2672
      3 O          -7.9007  -11.1444   33.6224 O.2     1  UNL1       -0.2682
      4 C          -9.9685  -12.2965   33.3894 C.ar    1  UNL1        0.1347
      5 C         -10.9808  -12.7215   32.5147 C.ar    1  UNL1        0.0238
      6 C         -11.8816  -13.7107   32.9306 C.ar    1  UNL1        0.0031
      7 C         -12.8999  -14.1624   32.0764 C.ar    1  UNL1        0.0001
      8 C         -13.7873  -15.1537   32.5067 C.ar    1  UNL1        0.0000
      9 C         -13.6652  -15.6997   33.7878 C.ar    1  UNL1        0.0000
     10 C         -12.6549  -15.2581   34.6475 C.ar    1  UNL1        0.0015
     11 C         -11.7598  -14.2639   34.2253 C.ar    1  UNL1        0.0192
     12 C         -10.7391  -13.8054   35.0661 C.ar    1  UNL1        0.0989
     13 N          -9.8805  -12.8464   34.6322 N.ar    1  UNL1       -0.2393
     14 C         -11.2319   -9.1097   31.2927 C.3     1  UNL1        0.0265
     15 C          -9.8546   -9.1401   31.9724 C.3     1  UNL1        0.1007
     16 C          -8.9136   -8.0462   31.4891 C.ar    1  UNL1        0.0234
     17 C          -9.1490   -7.3499   30.2846 C.ar    1  UNL1        0.0019
     18 C          -8.2258   -6.4130   29.8128 C.ar    1  UNL1        0.0295
     19 C          -7.0525   -6.1643   30.5258 C.ar    1  UNL1        0.1424
     20 F          -6.1555   -5.2600   30.0615 F       1  UNL1       -0.2041
     21 C          -6.7967   -6.8568   31.7105 C.ar    1  UNL1        0.0590
     22 C          -7.7141   -7.7978   32.1890 C.ar    1  UNL1        0.1399
     23 F          -7.4192   -8.4802   33.3247 F       1  UNL1       -0.2044
     24 C          -8.7947  -10.9414   30.5093 C.3     1  UNL1        0.1207
     25 C          -7.3261  -10.6799   30.3178 C.ar    1  UNL1       -0.0021
     26 C          -6.8749   -9.9550   29.2051 C.ar    1  UNL1       -0.0026
     27 C          -5.5162   -9.6732   29.0542 C.ar    1  UNL1       -0.0001
     28 C          -4.5977  -10.1042   30.0144 C.ar    1  UNL1        0.0064
     29 C          -5.0315  -10.8228   31.1419 C.ar    1  UNL1        0.0752
     30 C          -6.4026  -11.1041   31.2867 C.ar    1  UNL1        0.0038
     31 C          -4.0573  -11.2704   32.1617 C.2     1  UNL1        0.3380
     32 O          -3.6667  -12.4689   32.1895 O.2     1  UNL1       -0.2451
     33 O          -3.5623  -10.3705   33.1021 O.3     1  UNL1       -0.4771
     34 H          -2.8953  -10.6666   33.8048 H       1  UNL1        0.2954
@<TRIPOS>BOND
     1    14    15    1
     2    15    16    1
     3    16    17   ar
     4    17    18   ar
     5    18    19   ar
     6    19    20    1
     7    19    21   ar
     8    21    22   ar
     9    22    23    1
    10    15     1    1
    11     1    24    1
    12    24    25    1
    13    25    26   ar
    14    26    27   ar
    15    27    28   ar
    16    28    29   ar
    17    29    31    1
    18    31    32    2
    19    31    33    1
    20    29    30   ar
    21     1     2   am
    22     2     3    2
    23     2     4    1
    24     4     5   ar
    25     5     6   ar
    26     6     7   ar
    27     7     8   ar
    28     8     9   ar
    29     9    10   ar
    30    10    11   ar
    31    11    12   ar
    32    12    13   ar
    33    22    16   ar
    34    30    25   ar
    35    13     4   ar
    36    11     6   ar
    37    33    34    1
@<TRIPOS>MOLECULE
*****
 34 37 0 0 0
SMALL
GASTEIGER

@<TRIPOS>ATOM
      1 N          -9.1548  -10.4355   31.6770 N.am    1  UNL1       -0.2685
      2 C          -9.3700  -10.7116   33.0695 C.2     1  UNL1        0.2672
      3 O          -8.8600   -9.9536   33.9380 O.2     1  UNL1       -0.2682
      4 C         -10.1825  -11.8751   33.4738 C.ar    1  UNL1        0.1347
      5 C         -11.2740  -12.3040   32.7021 C.ar    1  UNL1        0.0238
      6 C         -11.9951  -13.4384   33.0974 C.ar    1  UNL1        0.0031
      7 C         -13.0864  -13.8968   32.3430 C.ar    1  UNL1        0.0001
      8 C         -13.7919  -15.0334   32.7502 C.ar    1  UNL1        0.0000
      9 C         -13.4143  -15.7186   33.9087 C.ar    1  UNL1        0.0000
     10 C         -12.3289  -15.2718   34.6683 C.ar    1  UNL1        0.0015
     11 C         -11.6149  -14.1323   34.2683 C.ar    1  UNL1        0.0192
     12 C         -10.5239  -13.6652   35.0103 C.ar    1  UNL1        0.0989
     13 N          -9.8442  -12.5634   34.5992 N.ar    1  UNL1       -0.2393
     14 C         -10.5012  -10.1349   29.6142 C.3     1  UNL1        0.0265
     15 C         -10.0437   -9.5163   30.9439 C.3     1  UNL1        0.1007
     16 C          -9.3846   -8.1538   30.7861 C.ar    1  UNL1        0.0234
     17 C          -8.7747   -7.4988   31.8769 C.ar    1  UNL1        0.0019
     18 C          -8.2555   -6.2095   31.7322 C.ar    1  UNL1        0.0295
     19 C          -8.3456   -5.5510   30.5054 C.ar    1  UNL1        0.1424
     20 F          -7.8473   -4.2974   30.3703 F       1  UNL1       -0.2041
     21 C          -8.9607   -6.1787   29.4209 C.ar    1  UNL1        0.0590
     22 C          -9.4851   -7.4680   29.5573 C.ar    1  UNL1        0.1399
     23 F         -10.1089   -8.0365   28.4942 F       1  UNL1       -0.2044
     24 C          -8.0061  -11.0504   31.0055 C.3     1  UNL1        0.1207
     25 C          -6.9366  -10.0203   30.7675 C.ar    1  UNL1       -0.0021
     26 C          -6.5442   -9.6956   29.4606 C.ar    1  UNL1       -0.0026
     27 C          -5.5851   -8.7056   29.2406 C.ar    1  UNL1       -0.0001
     28 C          -5.0154   -8.0261   30.3202 C.ar    1  UNL1        0.0064
     29 C          -5.4032   -8.3297   31.6366 C.ar    1  UNL1        0.0752
     30 C          -6.3699   -9.3296   31.8507 C.ar    1  UNL1        0.0038
     31 C          -4.8045   -7.6021   32.7775 C.2     1  UNL1        0.3380
     32 O          -3.9935   -6.6574   32.5780 O.2     1  UNL1       -0.2451
     33 O          -5.1316   -7.9547   34.0843 O.3     1  UNL1       -0.4771
     34 H          -4.7272   -7.4632   34.8726 H       1  UNL1        0.2954
@<TRIPOS>BOND
     1    14    15    1
     2    15    16    1
     3    16    17   ar
     4    17    18   ar
     5    18    19   ar
     6    19    20    1
     7    19    21   ar
     8    21    22   ar
     9    22    23    1
    10    15     1    1
    11     1    24    1
    12    24    25    1
    13    25    26   ar
    14    26    27   ar
    15    27    28   ar
    16    28    29   ar
    17    29    31    1
    18    31    32    2
    19    31    33    1
    20    29    30   ar
    21     1     2   am
    22     2     3    2
    23     2     4    1
    24     4     5   ar
    25     5     6   ar
    26     6     7   ar
    27     7     8   ar
    28     8     9   ar
    29     9    10   ar
    30    10    11   ar
    31    11    12   ar
    32    12    13   ar
    33    22    16   ar
    34    30    25   ar
    35    13     4   ar
    36    11     6   ar
    37    33    34    1
@<TRIPOS>MOLECULE
*****
 34 37 0 0 0
SMALL
GASTEIGER

@<TRIPOS>ATOM
      1 N         -10.3741  -11.1811   32.3622 N.am    1  UNL1       -0.2685
      2 C          -9.3896  -10.5393   33.1871 C.2     1  UNL1        0.2672
      3 O          -9.4933  -10.6052   34.4417 O.2     1  UNL1       -0.2682
      4 C          -8.2680   -9.8097   32.5648 C.ar    1  UNL1        0.1347
      5 C          -7.5420  -10.3635   31.4986 C.ar    1  UNL1        0.0238
      6 C          -6.5109   -9.6218   30.9071 C.ar    1  UNL1        0.0031
      7 C          -5.7718  -10.1446   29.8344 C.ar    1  UNL1        0.0001
      8 C          -4.7491   -9.3884   29.2533 C.ar    1  UNL1        0.0000
      9 C          -4.4580   -8.1093   29.7366 C.ar    1  UNL1        0.0000
     10 C          -5.1874   -7.5778   30.8044 C.ar    1  UNL1        0.0015
     11 C          -6.2152   -8.3286   31.3943 C.ar    1  UNL1        0.0192
     12 C          -6.9609   -7.8190   32.4634 C.ar    1  UNL1        0.0989
     13 N          -7.9556   -8.5625   33.0137 N.ar    1  UNL1       -0.2393
     14 C         -10.2649  -12.7703   30.4594 C.3     1  UNL1        0.0265
     15 C         -10.2344  -12.5993   31.9858 C.3     1  UNL1        0.1007
     16 C         -11.2685  -13.4459   32.7134 C.ar    1  UNL1        0.0234
     17 C         -12.4708  -13.8400   32.0887 C.ar    1  UNL1        0.0019
     18 C         -13.4470  -14.5397   32.8028 C.ar    1  UNL1        0.0295
     19 C         -13.2457  -14.8471   34.1489 C.ar    1  UNL1        0.1424
     20 F         -14.1980  -15.5198   34.8407 F       1  UNL1       -0.2041
     21 C         -12.0690  -14.4499   34.7861 C.ar    1  UNL1        0.0590
     22 C         -11.0875  -13.7472   34.0797 C.ar    1  UNL1        0.1399
     23 F          -9.9706  -13.3440   34.7373 F       1  UNL1       -0.2044
     24 C         -11.5469  -10.4122   31.9363 C.3     1  UNL1        0.1207
     25 C         -11.1271   -9.3001   31.0150 C.ar    1  UNL1       -0.0021
     26 C         -10.5943   -9.5909   29.7506 C.ar    1  UNL1       -0.0026
     27 C         -10.2493   -8.5567   28.8789 C.ar    1  UNL1       -0.0001
     28 C         -10.4398   -7.2254   29.2570 C.ar    1  UNL1        0.0064
     29 C         -10.9822   -6.9139   30.5156 C.ar    1  UNL1        0.0752
     30 C         -11.3267   -7.9616   31.3894 C.ar    1  UNL1        0.0038
     31 C         -11.1911   -5.5029   30.9097 C.2     1  UNL1        0.3380
     32 O         -11.6616   -5.2195   32.0446 O.2     1  UNL1       -0.2451
     33 O         -10.8695   -4.4733   30.0290 O.3     1  UNL1       -0.4771
     34 H         -11.0088   -3.5040   30.2887 H       1  UNL1        0.2954
@<TRIPOS>BOND
     1    14    15    1
     2    15    16    1
     3    16    17   ar
     4    17    18   ar
     5    18    19   ar
     6    19    20    1
     7    19    21   ar
     8    21    22   ar
     9    22    23    1
    10    15     1    1
    11     1    24    1
    12    24    25    1
    13    25    26   ar
    14    26    27   ar
    15    27    28   ar
    16    28    29   ar
    17    29    31    1
    18    31    32    2
    19    31    33    1
    20    29    30   ar
    21     1     2   am
    22     2     3    2
    23     2     4    1
    24     4     5   ar
    25     5     6   ar
    26     6     7   ar
    27     7     8   ar
    28     8     9   ar
    29     9    10   ar
    30    10    11   ar
    31    11    12   ar
    32    12    13   ar
    33    22    16   ar
    34    30    25   ar
    35    13     4   ar
    36    11     6   ar
    37    33    34    1
@<TRIPOS>MOLECULE
*****
 34 37 0 0 0
SMALL
GASTEIGER

@<TRIPOS>ATOM
      1 N         -10.4020  -11.5883   31.6960 N.am    1  UNL1       -0.2685
      2 C         -10.9003  -10.9943   30.4875 C.2     1  UNL1        0.2672
      3 O         -11.6042  -11.6844   29.7017 O.2     1  UNL1       -0.2682
      4 C         -10.5871   -9.5868   30.1738 C.ar    1  UNL1        0.1347
      5 C         -11.2958   -8.5329   30.7718 C.ar    1  UNL1        0.0238
      6 C         -10.9405   -7.2094   30.4799 C.ar    1  UNL1        0.0031
      7 C         -11.6248   -6.1338   31.0675 C.ar    1  UNL1        0.0001
      8 C         -11.2536   -4.8193   30.7680 C.ar    1  UNL1        0.0000
      9 C         -10.2004   -4.5696   29.8833 C.ar    1  UNL1        0.0000
     10 C          -9.5113   -5.6326   29.2918 C.ar    1  UNL1        0.0015
     11 C          -9.8762   -6.9550   29.5857 C.ar    1  UNL1        0.0192
     12 C          -9.2016   -8.0367   29.0080 C.ar    1  UNL1        0.0989
     13 N          -9.5691   -9.3082   29.3133 N.ar    1  UNL1       -0.2393
     14 C         -10.3667  -11.2022   34.1471 C.3     1  UNL1        0.0265
     15 C         -11.2141  -11.5907   32.9260 C.3     1  UNL1        0.1007
     16 C         -11.9340  -12.9221   33.0841 C.ar    1  UNL1        0.0234
     17 C         -11.4032  -13.9573   33.8826 C.ar    1  UNL1        0.0019
     18 C         -12.0329  -15.2034   33.9422 C.ar    1  UNL1        0.0295
     19 C         -13.1912  -15.4398   33.2010 C.ar    1  UNL1        0.1424
     20 F         -13.7956  -16.6522   33.2554 F       1  UNL1       -0.2041
     21 C         -13.7198  -14.4315   32.3932 C.ar    1  UNL1        0.0590
     22 C         -13.0949  -13.1821   32.3258 C.ar    1  UNL1        0.1399
     23 F         -13.6134  -12.2348   31.5034 F       1  UNL1       -0.2044
     24 C          -9.0863  -12.2338   31.6740 C.3     1  UNL1        0.1207
     25 C          -8.0128  -11.2073   31.4378 C.ar    1  UNL1       -0.0021
     26 C          -7.2157  -11.2684   30.2854 C.ar    1  UNL1       -0.0026
     27 C          -6.2519  -10.2877   30.0451 C.ar    1  UNL1       -0.0001
     28 C          -6.0802   -9.2346   30.9468 C.ar    1  UNL1        0.0064
     29 C          -6.8765   -9.1501   32.1020 C.ar    1  UNL1        0.0752
     30 C          -7.8453  -10.1429   32.3380 C.ar    1  UNL1        0.0038
     31 C          -6.6984   -8.0286   33.0507 C.2     1  UNL1        0.3380
     32 O          -7.5623   -7.1134   33.1275 O.2     1  UNL1       -0.2451
     33 O          -5.5728   -7.9733   33.8687 O.3     1  UNL1       -0.4771
     34 H          -5.4410   -7.2099   34.5215 H       1  UNL1        0.2954
@<TRIPOS>BOND
     1    14    15    1
     2    15    16    1
     3    16    17   ar
     4    17    18   ar
     5    18    19   ar
     6    19    20    1
     7    19    21   ar
     8    21    22   ar
     9    22    23    1
    10    15     1    1
    11     1    24    1
    12    24    25    1
    13    25    26   ar
    14    26    27   ar
    15    27    28   ar
    16    28    29   ar
    17    29    31    1
    18    31    32    2
    19    31    33    1
    20    29    30   ar
    21     1     2   am
    22     2     3    2
    23     2     4    1
    24     4     5   ar
    25     5     6   ar
    26     6     7   ar
    27     7     8   ar
    28     8     9   ar
    29     9    10   ar
    30    10    11   ar
    31    11    12   ar
    32    12    13   ar
    33    22    16   ar
    34    30    25   ar
    35    13     4   ar
    36    11     6   ar
    37    33    34    1
@<TRIPOS>MOLECULE
*****
 34 37 0 0 0
SMALL
GASTEIGER

@<TRIPOS>ATOM
      1 N          -9.5609   -9.5635   31.2915 N.am    1  UNL1       -0.2685
      2 C         -10.8769   -9.8827   31.7688 C.2     1  UNL1        0.2672
      3 O         -11.8337   -9.1009   31.5191 O.2     1  UNL1       -0.2682
      4 C         -11.1006  -11.1176   32.5451 C.ar    1  UNL1        0.1347
      5 C         -12.1875  -11.9626   32.2710 C.ar    1  UNL1        0.0238
      6 C         -12.3419  -13.1475   33.0026 C.ar    1  UNL1        0.0031
      7 C         -13.4137  -14.0170   32.7471 C.ar    1  UNL1        0.0001
      8 C         -13.5496  -15.1976   33.4841 C.ar    1  UNL1        0.0000
      9 C         -12.6198  -15.5179   34.4777 C.ar    1  UNL1        0.0000
     10 C         -11.5480  -14.6598   34.7413 C.ar    1  UNL1        0.0015
     11 C         -11.4030  -13.4730   34.0075 C.ar    1  UNL1        0.0192
     12 C         -10.3383  -12.5977   34.2509 C.ar    1  UNL1        0.0989
     13 N         -10.2156  -11.4576   33.5227 N.ar    1  UNL1       -0.2393
     14 C          -9.8317  -11.2628   29.5034 C.3     1  UNL1        0.0265
     15 C          -9.1290   -9.9690   29.9418 C.3     1  UNL1        0.1007
     16 C          -7.6109  -10.0475   29.8716 C.ar    1  UNL1        0.0234
     17 C          -6.8742   -9.2743   28.9493 C.ar    1  UNL1        0.0019
     18 C          -5.4897   -9.4278   28.8386 C.ar    1  UNL1        0.0295
     19 C          -4.8216  -10.3588   29.6348 C.ar    1  UNL1        0.1424
     20 F          -3.4792  -10.5103   29.5198 F       1  UNL1       -0.2041
     21 C          -5.5379  -11.1431   30.5404 C.ar    1  UNL1        0.0590
     22 C          -6.9241  -10.9978   30.6562 C.ar    1  UNL1        0.1399
     23 F          -7.5962  -11.8006   31.5201 F       1  UNL1       -0.2044
     24 C          -8.6669   -8.7864   32.1547 C.3     1  UNL1        0.1207
     25 C          -8.4486   -7.4177   31.5711 C.ar    1  UNL1       -0.0021
     26 C          -7.1681   -6.8454   31.5670 C.ar    1  UNL1       -0.0026
     27 C          -6.9593   -5.5951   30.9826 C.ar    1  UNL1       -0.0001
     28 C          -8.0227   -4.9091   30.3908 C.ar    1  UNL1        0.0064
     29 C          -9.3111   -5.4706   30.3755 C.ar    1  UNL1        0.0752
     30 C          -9.5142   -6.7308   30.9675 C.ar    1  UNL1        0.0038
     31 C         -10.4336   -4.7454   29.7401 C.2     1  UNL1        0.3380
     32 O         -10.2501   -3.6095   29.2245 O.2     1  UNL1       -0.2451
     33 O         -11.7053   -5.3117   29.7059 O.3     1  UNL1       -0.4771
     34 H         -12.4807   -4.8237   29.2737 H       1  UNL1        0.2954
@<TRIPOS>BOND
     1    14    15    1
     2    15    16    1
     3    16    17   ar
     4    17    18   ar
     5    18    19   ar
     6    19    20    1
     7    19    21   ar
     8    21    22   ar
     9    22    23    1
    10    15     1    1
    11     1    24    1
    12    24    25    1
    13    25    26   ar
    14    26    27   ar
    15    27    28   ar
    16    28    29   ar
    17    29    31    1
    18    31    32    2
    19    31    33    1
    20    29    30   ar
    21     1     2   am
    22     2     3    2
    23     2     4    1
    24     4     5   ar
    25     5     6   ar
    26     6     7   ar
    27     7     8   ar
    28     8     9   ar
    29     9    10   ar
    30    10    11   ar
    31    11    12   ar
    32    12    13   ar
    33    22    16   ar
    34    30    25   ar
    35    13     4   ar
    36    11     6   ar
    37    33    34    1
@<TRIPOS>MOLECULE
*****
 34 37 0 0 0
SMALL
GASTEIGER

@<TRIPOS>ATOM
      1 N          -7.1366   -8.8662   32.4072 N.am    1  UNL1       -0.2685
      2 C          -8.1484   -9.7357   31.8764 C.2     1  UNL1        0.2672
      3 O          -8.5025   -9.6129   30.6728 O.2     1  UNL1       -0.2682
      4 C          -8.7648  -10.7626   32.7383 C.ar    1  UNL1        0.1347
      5 C          -9.8886  -11.4894   32.3146 C.ar    1  UNL1        0.0238
      6 C         -10.4194  -12.4854   33.1449 C.ar    1  UNL1        0.0031
      7 C         -11.5376  -13.2345   32.7464 C.ar    1  UNL1        0.0001
      8 C         -12.0512  -14.2278   33.5861 C.ar    1  UNL1        0.0000
      9 C         -11.4544  -14.4799   34.8249 C.ar    1  UNL1        0.0000
     10 C         -10.3402  -13.7404   35.2327 C.ar    1  UNL1        0.0015
     11 C          -9.8175  -12.7416   34.3976 C.ar    1  UNL1        0.0192
     12 C          -8.7023  -11.9882   34.7818 C.ar    1  UNL1        0.0989
     13 N          -8.2106  -11.0309   33.9530 N.ar    1  UNL1       -0.2393
     14 C          -4.8269   -8.1458   32.9594 C.3     1  UNL1        0.0265
     15 C          -5.7078   -9.2046   32.2790 C.3     1  UNL1        0.1007
     16 C          -5.3489   -9.4483   30.8204 C.ar    1  UNL1        0.0234
     17 C          -5.4588   -8.4266   29.8532 C.ar    1  UNL1        0.0019
     18 C          -5.2115   -8.6949   28.5043 C.ar    1  UNL1        0.0295
     19 C          -4.8628   -9.9835   28.0981 C.ar    1  UNL1        0.1424
     20 F          -4.6307  -10.2420   26.7877 F       1  UNL1       -0.2041
     21 C          -4.7661  -11.0090   29.0401 C.ar    1  UNL1        0.0590
     22 C          -5.0140  -10.7501   30.3920 C.ar    1  UNL1        0.1399
     23 F          -4.9468  -11.7764   31.2778 F       1  UNL1       -0.2044
     24 C          -7.5479   -7.6104   33.0414 C.3     1  UNL1        0.1207
     25 C          -7.8933   -6.5916   31.9905 C.ar    1  UNL1       -0.0021
     26 C          -6.8889   -5.8011   31.4130 C.ar    1  UNL1       -0.0026
     27 C          -7.2053   -4.8895   30.4044 C.ar    1  UNL1       -0.0001
     28 C          -8.5231   -4.7640   29.9579 C.ar    1  UNL1        0.0064
     29 C          -9.5419   -5.5548   30.5168 C.ar    1  UNL1        0.0752
     30 C          -9.2156   -6.4708   31.5338 C.ar    1  UNL1        0.0038
     31 C         -10.9353   -5.4260   30.0356 C.2     1  UNL1        0.3380
     32 O         -11.6498   -6.4509   29.8654 O.2     1  UNL1       -0.2451
     33 O         -11.4712   -4.1694   29.7656 O.3     1  UNL1       -0.4771
     34 H         -12.4238   -4.0700   29.4355 H       1  UNL1        0.2954
@<TRIPOS>BOND
     1    14    15    1
     2    15    16    1
     3    16    17   ar
     4    17    18   ar
     5    18    19   ar
     6    19    20    1
     7    19    21   ar
     8    21    22   ar
     9    22    23    1
    10    15     1    1
    11     1    24    1
    12    24    25    1
    13    25    26   ar
    14    26    27   ar
    15    27    28   ar
    16    28    29   ar
    17    29    31    1
    18    31    32    2
    19    31    33    1
    20    29    30   ar
    21     1     2   am
    22     2     3    2
    23     2     4    1
    24     4     5   ar
    25     5     6   ar
    26     6     7   ar
    27     7     8   ar
    28     8     9   ar
    29     9    10   ar
    30    10    11   ar
    31    11    12   ar
    32    12    13   ar
    33    22    16   ar
    34    30    25   ar
    35    13     4   ar
    36    11     6   ar
    37    33    34    1
@<TRIPOS>MOLECULE
*****
 34 37 0 0 0
SMALL
GASTEIGER

@<TRIPOS>ATOM
      1 N          -9.4748  -10.6794   31.8280 N.am    1  UNL1       -0.2685
      2 C         -10.3610  -11.3131   30.8927 C.2     1  UNL1        0.2672
      3 O         -10.2125  -11.1041   29.6584 O.2     1  UNL1       -0.2682
      4 C         -11.4349  -12.2005   31.3791 C.ar    1  UNL1        0.1347
      5 C         -11.2228  -13.5788   31.5405 C.ar    1  UNL1        0.0238
      6 C         -12.2548  -14.3813   32.0446 C.ar    1  UNL1        0.0031
      7 C         -12.0712  -15.7612   32.2246 C.ar    1  UNL1        0.0001
      8 C         -13.1109  -16.5461   32.7332 C.ar    1  UNL1        0.0000
      9 C         -14.3367  -15.9615   33.0648 C.ar    1  UNL1        0.0000
     10 C         -14.5313  -14.5881   32.8900 C.ar    1  UNL1        0.0015
     11 C         -13.4946  -13.7921   32.3803 C.ar    1  UNL1        0.0192
     12 C         -13.6635  -12.4149   32.1970 C.ar    1  UNL1        0.0989
     13 N         -12.6426  -11.6641   31.7081 N.ar    1  UNL1       -0.2393
     14 C          -7.9262  -11.1758   33.7025 C.3     1  UNL1        0.0265
     15 C          -8.1920  -11.3055   32.1949 C.3     1  UNL1        0.1007
     16 C          -7.0669  -10.7568   31.3296 C.ar    1  UNL1        0.0234
     17 C          -6.2418   -9.7020   31.7743 C.ar    1  UNL1        0.0019
     18 C          -5.2738   -9.1520   30.9298 C.ar    1  UNL1        0.0295
     19 C          -5.1209   -9.6355   29.6299 C.ar    1  UNL1        0.1424
     20 F          -4.1856   -9.0948   28.8108 F       1  UNL1       -0.2041
     21 C          -5.9403  -10.6674   29.1691 C.ar    1  UNL1        0.0590
     22 C          -6.9133  -11.2222   30.0067 C.ar    1  UNL1        0.1399
     23 F          -7.7180  -12.1995   29.5170 F       1  UNL1       -0.2044
     24 C          -9.8482   -9.3738   32.3796 C.3     1  UNL1        0.1207
     25 C          -9.6848   -8.3065   31.3328 C.ar    1  UNL1       -0.0021
     26 C         -10.7074   -8.0625   30.4044 C.ar    1  UNL1       -0.0026
     27 C         -10.5729   -7.0399   29.4638 C.ar    1  UNL1       -0.0001
     28 C          -9.4224   -6.2476   29.4460 C.ar    1  UNL1        0.0064
     29 C          -8.3912   -6.4696   30.3750 C.ar    1  UNL1        0.0752
     30 C          -8.5334   -7.5029   31.3195 C.ar    1  UNL1        0.0038
     31 C          -7.1778   -5.6230   30.3594 C.2     1  UNL1        0.3380
     32 O          -6.0318   -6.1490   30.3567 O.2     1  UNL1       -0.2451
     33 O          -7.2904   -4.2351   30.3478 O.3     1  UNL1       -0.4771
     34 H          -6.4661   -3.6463   30.3373 H       1  UNL1        0.2954
@<TRIPOS>BOND
     1    14    15    1
     2    15    16    1
     3    16    17   ar
     4    17    18   ar
     5    18    19   ar
     6    19    20    1
     7    19    21   ar
     8    21    22   ar
     9    22    23    1
    10    15     1    1
    11     1    24    1
    12    24    25    1
    13    25    26   ar
    14    26    27   ar
    15    27    28   ar
    16    28    29   ar
    17    29    31    1
    18    31    32    2
    19    31    33    1
    20    29    30   ar
    21     1     2   am
    22     2     3    2
    23     2     4    1
    24     4     5   ar
    25     5     6   ar
    26     6     7   ar
    27     7     8   ar
    28     8     9   ar
    29     9    10   ar
    30    10    11   ar
    31    11    12   ar
    32    12    13   ar
    33    22    16   ar
    34    30    25   ar
    35    13     4   ar
    36    11     6   ar
    37    33    34    1
