@<TRIPOS>MOLECULE
*****
 48 53 0 0 0
SMALL
GASTEIGER

@<TRIPOS>ATOM
      1 O          59.2020   87.9368   11.9505 O.2     1  UNL1       -0.2701
      2 C          59.7539   87.3967   10.9529 C.2     1  UNL1        0.2483
      3 N          60.3499   86.0957   11.0886 N.am    1  UNL1       -0.2945
      4 H          60.6516   85.5847   10.2284 H       1  UNL1        0.1501
      5 C          59.7710   88.1093    9.6526 C.ar    1  UNL1        0.0808
      6 C          60.3557   89.3839    9.5471 C.ar    1  UNL1        0.0080
      7 C          60.3672   90.0620    8.3256 C.ar    1  UNL1        0.0148
      8 C          59.7933   89.4813    7.1844 C.ar    1  UNL1        0.0502
      9 C          59.2002   88.2148    7.2874 C.ar    1  UNL1        0.0443
     10 C          59.1845   87.5332    8.5082 C.ar    1  UNL1        0.1457
     11 F          58.6139   86.3027    8.5620 F       1  UNL1       -0.2040
     12 N          59.8005   90.1761    5.9229 N.pl3   1  UNL1       -0.3040
     13 C          58.5332   90.5715    5.2966 C.3     1  UNL1        0.1122
     14 C          58.6795   91.9406    4.6317 C.3     1  UNL1        0.1122
     15 N          59.8913   91.9696    3.8041 N.pl3   1  UNL1       -0.3040
     16 C          61.1588   91.5739    4.4304 C.3     1  UNL1        0.1122
     17 C          61.0126   90.2049    5.0954 C.3     1  UNL1        0.1122
     18 C          59.8984   92.6648    2.5430 C.ar    1  UNL1        0.0488
     19 C          60.9529   93.5342    2.2238 C.ar    1  UNL1        0.0154
     20 C          60.9672   94.2085    1.0004 C.ar    1  UNL1        0.0135
     21 C          59.9302   94.0230    0.0800 C.ar    1  UNL1        0.0683
     22 CL         59.9833   94.8891   -1.4494 Cl      1  UNL1       -0.0814
     23 C          58.8709   93.1534    0.3891 C.ar    1  UNL1        0.0694
     24 CL         57.5466   92.8935   -0.7383 Cl      1  UNL1       -0.0813
     25 C          58.8592   92.4783    1.6155 C.ar    1  UNL1        0.0268
     26 C          60.4211   85.4055   12.3795 C.3     1  UNL1        0.1535
     27 C          60.9019   86.3616   13.4404 C.2     1  UNL1        0.2444
     28 O          60.1590   86.6093   14.4288 O.2     1  UNL1       -0.2730
     29 N          62.2030   86.9620   13.3403 N.am    1  UNL1       -0.2807
     30 H          62.9040   86.5086   12.7119 H       1  UNL1        0.1550
     31 C          62.6121   88.1162   14.0941 C.ar    1  UNL1        0.0813
     32 C          62.5348   88.1369   15.4974 C.ar    1  UNL1        0.0376
     33 C          62.9128   89.2882   16.1921 C.ar    1  UNL1        0.1003
     34 N          63.3408   90.3852   15.5137 N.ar    1  UNL1       -0.2399
     35 C          63.4106   90.4006   14.1566 C.ar    1  UNL1        0.1297
     36 C          63.0403   89.2713   13.4217 C.ar    1  UNL1        0.1725
     37 F          63.1136   89.2974   12.0671 F       1  UNL1       -0.2012
     38 C          59.0453   84.8172   12.7463 C.3     1  UNL1        0.0569
     39 C          58.6243   83.7458   11.7812 C.ar    1  UNL1       -0.0017
     40 C          57.9595   83.9345   10.5730 C.ar    1  UNL1        0.0681
     41 N          57.6608   82.7427   10.0075 N.ar    1  UNL1       -0.3523
     42 C          58.1218   81.8045   10.8532 C.ar    1  UNL1        0.0563
     43 C          58.0289   80.4206   10.7120 C.ar    1  UNL1        0.0170
     44 C          58.5637   79.6178   11.7364 C.ar    1  UNL1        0.0015
     45 C          59.1689   80.2096   12.8676 C.ar    1  UNL1        0.0001
     46 C          59.2462   81.6095   12.9843 C.ar    1  UNL1        0.0012
     47 C          58.7121   82.3783   11.9501 C.ar    1  UNL1        0.0131
     48 H          57.1582   82.5875    9.1056 H       1  UNL1        0.1660
@<TRIPOS>BOND
     1     1     2    2
     2     2     3   am
     3     3    26    1
     4    26    38    1
     5    38    39    1
     6    39    40   ar
     7    40    41   ar
     8    41    42   ar
     9    42    43   ar
    10    43    44   ar
    11    44    45   ar
    12    45    46   ar
    13    46    47   ar
    14    26    27    1
    15    27    28    2
    16    27    29   am
    17    29    31    1
    18    31    32   ar
    19    32    33   ar
    20    33    34   ar
    21    34    35   ar
    22    35    36   ar
    23    36    37    1
    24     2     5    1
    25     5     6   ar
    26     6     7   ar
    27     7     8   ar
    28     8    12    1
    29    12    13    1
    30    13    14    1
    31    14    15    1
    32    15    18    1
    33    18    19   ar
    34    19    20   ar
    35    20    21   ar
    36    21    22    1
    37    21    23   ar
    38    23    24    1
    39    23    25   ar
    40    15    16    1
    41    16    17    1
    42     8     9   ar
    43     9    10   ar
    44    10    11    1
    45    47    39   ar
    46    36    31   ar
    47    10     5   ar
    48    47    42   ar
    49    17    12    1
    50    25    18   ar
    51     3     4    1
    52    41    48    1
    53    29    30    1
@<TRIPOS>MOLECULE
*****
 48 53 0 0 0
SMALL
GASTEIGER

@<TRIPOS>ATOM
      1 O          57.9402   84.6585   12.3061 O.2     1  UNL1       -0.2701
      2 C          59.0828   84.2632   12.6664 C.2     1  UNL1        0.2483
      3 N          59.3533   82.8540   12.7496 N.am    1  UNL1       -0.2945
      4 H          60.3397   82.5346   12.8816 H       1  UNL1        0.1501
      5 C          60.1322   85.2597   12.9899 C.ar    1  UNL1        0.0808
      6 C          59.8793   86.2832   13.9206 C.ar    1  UNL1        0.0080
      7 C          60.8627   87.2286   14.2226 C.ar    1  UNL1        0.0148
      8 C          62.1188   87.1719   13.5997 C.ar    1  UNL1        0.0502
      9 C          62.3719   86.1590   12.6636 C.ar    1  UNL1        0.0443
     10 C          61.3900   85.2119   12.3567 C.ar    1  UNL1        0.1457
     11 F          61.6803   84.2385   11.4562 F       1  UNL1       -0.2040
     12 N          63.1359   88.1445   13.9057 N.pl3   1  UNL1       -0.3040
     13 C          63.6394   89.0345   12.8525 C.3     1  UNL1        0.1122
     14 C          63.8940   90.4310   13.4210 C.3     1  UNL1        0.1122
     15 N          64.6685   90.3332   14.6639 N.pl3   1  UNL1       -0.3040
     16 C          64.1651   89.4429   15.7171 C.3     1  UNL1        0.1122
     17 C          63.9104   88.0465   15.1487 C.3     1  UNL1        0.1122
     18 C          65.6852   91.3062   14.9698 C.ar    1  UNL1        0.0488
     19 C          65.4494   92.2890   15.9434 C.ar    1  UNL1        0.0154
     20 C          66.4332   93.2332   16.2471 C.ar    1  UNL1        0.0135
     21 C          67.6646   93.2080   15.5839 C.ar    1  UNL1        0.0683
     22 CL         68.8780   94.4129   15.9936 Cl      1  UNL1       -0.0814
     23 C          67.9113   92.2269   14.6089 C.ar    1  UNL1        0.0694
     24 CL         69.4443   92.1609   13.7500 Cl      1  UNL1       -0.0813
     25 C          66.9240   91.2815   14.3067 C.ar    1  UNL1        0.0268
     26 C          58.3126   81.8488   12.5168 C.3     1  UNL1        0.1535
     27 C          58.0817   81.6906   11.0361 C.2     1  UNL1        0.2444
     28 O          57.4738   80.6700   10.6131 O.2     1  UNL1       -0.2730
     29 N          58.5250   82.7046   10.1202 N.am    1  UNL1       -0.2807
     30 H          58.7239   83.6563   10.5029 H       1  UNL1        0.1550
     31 C          58.6583   82.5002    8.7031 C.ar    1  UNL1        0.0813
     32 C          57.7052   81.7636    7.9786 C.ar    1  UNL1        0.0376
     33 C          57.8859   81.5610    6.6085 C.ar    1  UNL1        0.1003
     34 N          58.9831   82.0629    5.9831 N.ar    1  UNL1       -0.2399
     35 C          59.9296   82.7648    6.6601 C.ar    1  UNL1        0.1297
     36 C          59.7898   82.9893    8.0322 C.ar    1  UNL1        0.1725
     37 F          60.7408   83.6913    8.6985 F       1  UNL1       -0.2012
     38 C          58.7125   80.5080   13.1616 C.3     1  UNL1        0.0569
     39 C          60.1758   80.2201   12.9822 C.ar    1  UNL1       -0.0017
     40 C          61.1476   80.2188   13.9787 C.ar    1  UNL1        0.0681
     41 N          62.3715   80.0057   13.4440 N.ar    1  UNL1       -0.3523
     42 C          62.1816   79.8832   12.1186 C.ar    1  UNL1        0.0563
     43 C          63.1537   79.6742   11.1414 C.ar    1  UNL1        0.0170
     44 C          62.7328   79.5985    9.8008 C.ar    1  UNL1        0.0015
     45 C          61.3660   79.7357    9.4708 C.ar    1  UNL1        0.0001
     46 C          60.4071   79.9484   10.4781 C.ar    1  UNL1        0.0012
     47 C          60.8545   80.0132   11.7978 C.ar    1  UNL1        0.0131
     48 H          63.2793   79.9635   13.9582 H       1  UNL1        0.1660
@<TRIPOS>BOND
     1     1     2    2
     2     2     3   am
     3     3    26    1
     4    26    38    1
     5    38    39    1
     6    39    40   ar
     7    40    41   ar
     8    41    42   ar
     9    42    43   ar
    10    43    44   ar
    11    44    45   ar
    12    45    46   ar
    13    46    47   ar
    14    26    27    1
    15    27    28    2
    16    27    29   am
    17    29    31    1
    18    31    32   ar
    19    32    33   ar
    20    33    34   ar
    21    34    35   ar
    22    35    36   ar
    23    36    37    1
    24     2     5    1
    25     5     6   ar
    26     6     7   ar
    27     7     8   ar
    28     8    12    1
    29    12    13    1
    30    13    14    1
    31    14    15    1
    32    15    18    1
    33    18    19   ar
    34    19    20   ar
    35    20    21   ar
    36    21    22    1
    37    21    23   ar
    38    23    24    1
    39    23    25   ar
    40    15    16    1
    41    16    17    1
    42     8     9   ar
    43     9    10   ar
    44    10    11    1
    45    47    39   ar
    46    36    31   ar
    47    10     5   ar
    48    47    42   ar
    49    17    12    1
    50    25    18   ar
    51     3     4    1
    52    41    48    1
    53    29    30    1
@<TRIPOS>MOLECULE
*****
 48 53 0 0 0
SMALL
GASTEIGER

@<TRIPOS>ATOM
      1 O          58.6342   86.2315    9.7521 O.2     1  UNL1       -0.2701
      2 C          59.8209   85.8819    9.9991 C.2     1  UNL1        0.2483
      3 N          60.2799   84.5842    9.5849 N.am    1  UNL1       -0.2945
      4 H          61.3007   84.3671    9.6390 H       1  UNL1        0.1501
      5 C          60.7270   86.8196   10.7052 C.ar    1  UNL1        0.0808
      6 C          60.8983   88.1338   10.2348 C.ar    1  UNL1        0.0080
      7 C          61.7570   89.0181   10.8927 C.ar    1  UNL1        0.0148
      8 C          62.4635   88.6072   12.0333 C.ar    1  UNL1        0.0502
      9 C          62.3034   87.2945   12.4998 C.ar    1  UNL1        0.0443
     10 C          61.4467   86.4054   11.8435 C.ar    1  UNL1        0.1457
     11 F          61.3082   85.1481   12.3361 F       1  UNL1       -0.2040
     12 N          63.3512   89.5137   12.7147 N.pl3   1  UNL1       -0.3040
     13 C          63.6597   89.3084   14.1351 C.3     1  UNL1        0.1122
     14 C          65.1266   89.6420   14.4086 C.3     1  UNL1        0.1122
     15 N          65.4649   90.9409   13.8146 N.pl3   1  UNL1       -0.3040
     16 C          65.1563   91.1463   12.3941 C.3     1  UNL1        0.1122
     17 C          63.6894   90.8126   12.1205 C.3     1  UNL1        0.1122
     18 C          66.3530   91.8469   14.4960 C.ar    1  UNL1        0.0488
     19 C          65.8589   92.6992   15.4954 C.ar    1  UNL1        0.0154
     20 C          66.7163   93.5775   16.1625 C.ar    1  UNL1        0.0135
     21 C          68.0773   93.6157   15.8414 C.ar    1  UNL1        0.0683
     22 CL         69.1251   94.7345   16.7031 Cl      1  UNL1       -0.0814
     23 C          68.5822   92.7651   14.8436 C.ar    1  UNL1        0.0694
     24 CL         70.2857   92.7827   14.4075 Cl      1  UNL1       -0.0813
     25 C          67.7211   91.8854   14.1770 C.ar    1  UNL1        0.0268
     26 C          59.3838   83.6068    8.9607 C.3     1  UNL1        0.1535
     27 C          60.0447   82.2527    8.9406 C.2     1  UNL1        0.2444
     28 O          59.5506   81.3366    8.2287 O.2     1  UNL1       -0.2730
     29 N          61.2397   82.0171    9.7022 N.am    1  UNL1       -0.2807
     30 H          61.7946   82.8469   10.0109 H       1  UNL1        0.1550
     31 C          61.7432   80.7074   10.0167 C.ar    1  UNL1        0.0813
     32 C          62.0772   79.7909    9.0046 C.ar    1  UNL1        0.0376
     33 C          62.5342   78.5173    9.3508 C.ar    1  UNL1        0.1003
     34 N          62.6432   78.1631   10.6583 N.ar    1  UNL1       -0.2399
     35 C          62.3123   79.0218   11.6583 C.ar    1  UNL1        0.1297
     36 C          61.8488   80.3052   11.3571 C.ar    1  UNL1        0.1725
     37 F          61.5210   81.1545   12.3632 F       1  UNL1       -0.2012
     38 C          58.0411   83.5568    9.7145 C.3     1  UNL1        0.0569
     39 C          58.1955   82.9616   11.0850 C.ar    1  UNL1       -0.0017
     40 C          58.3955   83.6591   12.2728 C.ar    1  UNL1        0.0681
     41 N          58.5800   82.7986   13.2999 N.ar    1  UNL1       -0.3523
     42 C          58.5086   81.5655   12.7688 C.ar    1  UNL1        0.0563
     43 C          58.6588   80.3492   13.4335 C.ar    1  UNL1        0.0170
     44 C          58.5677   79.1688   12.6730 C.ar    1  UNL1        0.0015
     45 C          58.3350   79.2302   11.2809 C.ar    1  UNL1        0.0001
     46 C          58.1899   80.4723   10.6363 C.ar    1  UNL1        0.0012
     47 C          58.2798   81.6243   11.4178 C.ar    1  UNL1        0.0131
     48 H          58.7590   83.0466   14.2983 H       1  UNL1        0.1660
@<TRIPOS>BOND
     1     1     2    2
     2     2     3   am
     3     3    26    1
     4    26    38    1
     5    38    39    1
     6    39    40   ar
     7    40    41   ar
     8    41    42   ar
     9    42    43   ar
    10    43    44   ar
    11    44    45   ar
    12    45    46   ar
    13    46    47   ar
    14    26    27    1
    15    27    28    2
    16    27    29   am
    17    29    31    1
    18    31    32   ar
    19    32    33   ar
    20    33    34   ar
    21    34    35   ar
    22    35    36   ar
    23    36    37    1
    24     2     5    1
    25     5     6   ar
    26     6     7   ar
    27     7     8   ar
    28     8    12    1
    29    12    13    1
    30    13    14    1
    31    14    15    1
    32    15    18    1
    33    18    19   ar
    34    19    20   ar
    35    20    21   ar
    36    21    22    1
    37    21    23   ar
    38    23    24    1
    39    23    25   ar
    40    15    16    1
    41    16    17    1
    42     8     9   ar
    43     9    10   ar
    44    10    11    1
    45    47    39   ar
    46    36    31   ar
    47    10     5   ar
    48    47    42   ar
    49    17    12    1
    50    25    18   ar
    51     3     4    1
    52    41    48    1
    53    29    30    1
@<TRIPOS>MOLECULE
*****
 48 53 0 0 0
SMALL
GASTEIGER

@<TRIPOS>ATOM
      1 O          57.2014   87.1835   12.5803 O.2     1  UNL1       -0.2701
      2 C          58.3564   86.8414   12.2053 C.2     1  UNL1        0.2483
      3 N          58.5182   85.6805   11.3732 N.am    1  UNL1       -0.2945
      4 H          59.4472   85.5012   10.9293 H       1  UNL1        0.1501
      5 C          59.5288   87.6481   12.6218 C.ar    1  UNL1        0.0808
      6 C          59.8695   87.7592   13.9817 C.ar    1  UNL1        0.0080
      7 C          60.9688   88.5245   14.3790 C.ar    1  UNL1        0.0148
      8 C          61.7496   89.1961   13.4259 C.ar    1  UNL1        0.0502
      9 C          61.4073   89.0964   12.0697 C.ar    1  UNL1        0.0443
     10 C          60.3068   88.3332   11.6676 C.ar    1  UNL1        0.1457
     11 F          60.0184   88.2501   10.3437 F       1  UNL1       -0.2040
     12 N          62.8829   89.9878   13.8295 N.pl3   1  UNL1       -0.3040
     13 C          63.3261   89.9733   15.2288 C.3     1  UNL1        0.1122
     14 C          64.8531   90.0147   15.2976 C.3     1  UNL1        0.1122
     15 N          65.3658   91.0797   14.4273 N.pl3   1  UNL1       -0.3040
     16 C          64.9223   91.0944   13.0279 C.3     1  UNL1        0.1122
     17 C          63.3954   91.0528   12.9590 C.3     1  UNL1        0.1122
     18 C          66.4993   91.8709   14.8309 C.ar    1  UNL1        0.0488
     19 C          66.3679   92.8165   15.8595 C.ar    1  UNL1        0.0154
     20 C          67.4649   93.5843   16.2580 C.ar    1  UNL1        0.0135
     21 C          68.7067   93.4174   15.6359 C.ar    1  UNL1        0.0683
     22 CL         70.0641   94.4020   16.1650 Cl      1  UNL1       -0.0814
     23 C          68.8492   92.4719   14.6064 C.ar    1  UNL1        0.0694
     24 CL         70.3915   92.2321   13.7965 Cl      1  UNL1       -0.0813
     25 C          67.7485   91.7034   14.2093 C.ar    1  UNL1        0.0268
     26 C          57.3884   84.8182   11.0158 C.3     1  UNL1        0.1535
     27 C          57.6354   84.1904    9.6683 C.2     1  UNL1        0.2444
     28 O          56.9515   84.5676    8.6783 O.2     1  UNL1       -0.2730
     29 N          58.6573   83.1935    9.5086 N.am    1  UNL1       -0.2807
     30 H          59.4028   83.1360   10.2385 H       1  UNL1        0.1550
     31 C          58.7432   82.3092    8.3780 C.ar    1  UNL1        0.0813
     32 C          57.6689   82.1608    7.4838 C.ar    1  UNL1        0.0376
     33 C          57.7796   81.2688    6.4146 C.ar    1  UNL1        0.1003
     34 N          58.9147   80.5404    6.2481 N.ar    1  UNL1       -0.2399
     35 C          59.9633   80.6504    7.1055 C.ar    1  UNL1        0.1297
     36 C          59.8945   81.5291    8.1897 C.ar    1  UNL1        0.1725
     37 F          60.9471   81.6311    9.0399 F       1  UNL1       -0.2012
     38 C          57.1756   83.7422   12.0977 C.3     1  UNL1        0.0569
     39 C          58.4293   82.9549   12.3519 C.ar    1  UNL1       -0.0017
     40 C          59.6037   83.4312   12.9275 C.ar    1  UNL1        0.0681
     41 N          60.5561   82.4708   12.9201 N.ar    1  UNL1       -0.3523
     42 C          59.9963   81.3971   12.3357 C.ar    1  UNL1        0.0563
     43 C          60.5962   80.1644   12.0818 C.ar    1  UNL1        0.0170
     44 C          59.8272   79.1801   11.4338 C.ar    1  UNL1        0.0015
     45 C          58.4928   79.4483   11.0552 C.ar    1  UNL1        0.0001
     46 C          57.9143   80.7027   11.3222 C.ar    1  UNL1        0.0012
     47 C          58.6998   81.6558   11.9706 C.ar    1  UNL1        0.0131
     48 H          61.5324   82.5563   13.2803 H       1  UNL1        0.1660
@<TRIPOS>BOND
     1     1     2    2
     2     2     3   am
     3     3    26    1
     4    26    38    1
     5    38    39    1
     6    39    40   ar
     7    40    41   ar
     8    41    42   ar
     9    42    43   ar
    10    43    44   ar
    11    44    45   ar
    12    45    46   ar
    13    46    47   ar
    14    26    27    1
    15    27    28    2
    16    27    29   am
    17    29    31    1
    18    31    32   ar
    19    32    33   ar
    20    33    34   ar
    21    34    35   ar
    22    35    36   ar
    23    36    37    1
    24     2     5    1
    25     5     6   ar
    26     6     7   ar
    27     7     8   ar
    28     8    12    1
    29    12    13    1
    30    13    14    1
    31    14    15    1
    32    15    18    1
    33    18    19   ar
    34    19    20   ar
    35    20    21   ar
    36    21    22    1
    37    21    23   ar
    38    23    24    1
    39    23    25   ar
    40    15    16    1
    41    16    17    1
    42     8     9   ar
    43     9    10   ar
    44    10    11    1
    45    47    39   ar
    46    36    31   ar
    47    10     5   ar
    48    47    42   ar
    49    17    12    1
    50    25    18   ar
    51     3     4    1
    52    41    48    1
    53    29    30    1
@<TRIPOS>MOLECULE
*****
 48 53 0 0 0
SMALL
GASTEIGER

@<TRIPOS>ATOM
      1 O          57.4212   86.7268   12.1138 O.2     1  UNL1       -0.2701
      2 C          58.5719   86.2368   12.2792 C.2     1  UNL1        0.2483
      3 N          58.7834   84.8316   12.0624 N.am    1  UNL1       -0.2945
      4 H          59.7617   84.4652   12.0347 H       1  UNL1        0.1501
      5 C          59.6909   87.1205   12.6862 C.ar    1  UNL1        0.0808
      6 C          60.9498   87.0043   12.0704 C.ar    1  UNL1        0.0080
      7 C          62.0090   87.8298   12.4561 C.ar    1  UNL1        0.0148
      8 C          61.8327   88.7876   13.4664 C.ar    1  UNL1        0.0502
      9 C          60.5818   88.9000   14.0901 C.ar    1  UNL1        0.0443
     10 C          59.5195   88.0746   13.7088 C.ar    1  UNL1        0.1457
     11 F          58.3204   88.2257   14.3270 F       1  UNL1       -0.2040
     12 N          62.9211   89.6402   13.8694 N.pl3   1  UNL1       -0.3040
     13 C          63.4663   89.5396   15.2286 C.3     1  UNL1        0.1122
     14 C          64.9851   89.7148   15.2006 C.3     1  UNL1        0.1122
     15 N          65.3392   90.8968   14.4058 N.pl3   1  UNL1       -0.3040
     16 C          64.7937   90.9976   13.0466 C.3     1  UNL1        0.1122
     17 C          63.2751   90.8223   13.0745 C.3     1  UNL1        0.1122
     18 C          66.4279   91.7489   14.8089 C.ar    1  UNL1        0.0488
     19 C          66.2315   92.7204   15.8024 C.ar    1  UNL1        0.0154
     20 C          67.2848   93.5474   16.2002 C.ar    1  UNL1        0.0135
     21 C          68.5473   93.4147   15.6125 C.ar    1  UNL1        0.0683
     22 CL         69.8482   94.4737   16.1397 Cl      1  UNL1       -0.0814
     23 C          68.7548   92.4439   14.6183 C.ar    1  UNL1        0.0694
     24 CL         70.3251   92.2453   13.8522 Cl      1  UNL1       -0.0813
     25 C          67.6978   91.6160   14.2217 C.ar    1  UNL1        0.0268
     26 C          57.6807   83.9212   11.7416 C.3     1  UNL1        0.1535
     27 C          57.7597   83.5194   10.2913 C.2     1  UNL1        0.2444
     28 O          56.8635   83.9092    9.4944 O.2     1  UNL1       -0.2730
     29 N          58.8585   82.7247    9.8174 N.am    1  UNL1       -0.2807
     30 H          59.7251   82.6912   10.4002 H       1  UNL1        0.1550
     31 C          58.8539   82.0185    8.5648 C.ar    1  UNL1        0.0813
     32 C          57.7093   81.9850    7.7496 C.ar    1  UNL1        0.0376
     33 C          57.7346   81.2626    6.5544 C.ar    1  UNL1        0.1003
     34 N          58.8554   80.5865    6.1891 N.ar    1  UNL1       -0.2399
     35 C          59.9715   80.5868    6.9644 C.ar    1  UNL1        0.1297
     36 C          59.9893   81.2947    8.1691 C.ar    1  UNL1        0.1725
     37 F          61.1088   81.2883    8.9358 F       1  UNL1       -0.2012
     38 C          57.7238   82.6863   12.6617 C.3     1  UNL1        0.0569
     39 C          58.7577   81.6940   12.2112 C.ar    1  UNL1       -0.0017
     40 C          58.5173   80.4752   11.5836 C.ar    1  UNL1        0.0681
     41 N          59.6759   79.8015   11.4016 N.ar    1  UNL1       -0.3523
     42 C          60.6430   80.5796   11.9182 C.ar    1  UNL1        0.0563
     43 C          62.0074   80.3003   11.9840 C.ar    1  UNL1        0.0170
     44 C          62.8450   81.2535   12.5923 C.ar    1  UNL1        0.0015
     45 C          62.3057   82.4486   13.1184 C.ar    1  UNL1        0.0001
     46 C          60.9242   82.7026   13.0399 C.ar    1  UNL1        0.0012
     47 C          60.1206   81.7415   12.4264 C.ar    1  UNL1        0.0131
     48 H          59.7893   78.8602   10.9642 H       1  UNL1        0.1660
@<TRIPOS>BOND
     1     1     2    2
     2     2     3   am
     3     3    26    1
     4    26    38    1
     5    38    39    1
     6    39    40   ar
     7    40    41   ar
     8    41    42   ar
     9    42    43   ar
    10    43    44   ar
    11    44    45   ar
    12    45    46   ar
    13    46    47   ar
    14    26    27    1
    15    27    28    2
    16    27    29   am
    17    29    31    1
    18    31    32   ar
    19    32    33   ar
    20    33    34   ar
    21    34    35   ar
    22    35    36   ar
    23    36    37    1
    24     2     5    1
    25     5     6   ar
    26     6     7   ar
    27     7     8   ar
    28     8    12    1
    29    12    13    1
    30    13    14    1
    31    14    15    1
    32    15    18    1
    33    18    19   ar
    34    19    20   ar
    35    20    21   ar
    36    21    22    1
    37    21    23   ar
    38    23    24    1
    39    23    25   ar
    40    15    16    1
    41    16    17    1
    42     8     9   ar
    43     9    10   ar
    44    10    11    1
    45    47    39   ar
    46    36    31   ar
    47    10     5   ar
    48    47    42   ar
    49    17    12    1
    50    25    18   ar
    51     3     4    1
    52    41    48    1
    53    29    30    1
@<TRIPOS>MOLECULE
*****
 48 53 0 0 0
SMALL
GASTEIGER

@<TRIPOS>ATOM
      1 O          58.1562   86.4441   11.5477 O.2     1  UNL1       -0.2701
      2 C          59.2967   86.6732   11.0595 C.2     1  UNL1        0.2483
      3 N          60.4664   86.1515   11.7119 N.am    1  UNL1       -0.2945
      4 H          61.3857   86.1982   11.2168 H       1  UNL1        0.1501
      5 C          59.4119   87.4701    9.8143 C.ar    1  UNL1        0.0808
      6 C          58.9662   86.9439    8.5887 C.ar    1  UNL1        0.0080
      7 C          59.0799   87.6883    7.4119 C.ar    1  UNL1        0.0148
      8 C          59.6428   88.9735    7.4349 C.ar    1  UNL1        0.0502
      9 C          60.0979   89.4980    8.6532 C.ar    1  UNL1        0.0443
     10 C          59.9880   88.7559    9.8331 C.ar    1  UNL1        0.1457
     11 F          60.4266   89.3060   10.9940 F       1  UNL1       -0.2040
     12 N          59.7643   89.7450    6.2249 N.pl3   1  UNL1       -0.3040
     13 C          58.5680   90.3243    5.6019 C.3     1  UNL1        0.1122
     14 C          58.8872   91.7086    5.0363 C.3     1  UNL1        0.1122
     15 N          60.1172   91.6528    4.2374 N.pl3   1  UNL1       -0.3040
     16 C          61.3135   91.0733    4.8604 C.3     1  UNL1        0.1122
     17 C          60.9944   89.6890    5.4261 C.3     1  UNL1        0.1122
     18 C          60.2385   92.4248    3.0278 C.ar    1  UNL1        0.0488
     19 C          59.0887   92.8818    2.3657 C.ar    1  UNL1        0.0154
     20 C          59.2001   93.6344    1.1939 C.ar    1  UNL1        0.0135
     21 C          60.4600   93.9409    0.6689 C.ar    1  UNL1        0.0683
     22 CL         60.5597   94.8903   -0.8078 Cl      1  UNL1       -0.0814
     23 C          61.6173   93.4896    1.3253 C.ar    1  UNL1        0.0694
     24 CL         63.2200   93.8504    0.6981 Cl      1  UNL1       -0.0813
     25 C          61.5031   92.7361    2.4997 C.ar    1  UNL1        0.0268
     26 C          60.3886   85.4328   12.9868 C.3     1  UNL1        0.1535
     27 C          60.2305   83.9566   12.7284 C.2     1  UNL1        0.2444
     28 O          61.2597   83.2335   12.6374 O.2     1  UNL1       -0.2730
     29 N          58.9216   83.3758   12.6148 N.am    1  UNL1       -0.2807
     30 H          58.1135   83.9111   13.0050 H       1  UNL1        0.1550
     31 C          58.6674   82.0803   12.0451 C.ar    1  UNL1        0.0813
     32 C          58.1227   81.9432   10.7566 C.ar    1  UNL1        0.0376
     33 C          57.8617   80.6679   10.2502 C.ar    1  UNL1        0.1003
     34 N          58.1217   79.5676   11.0042 N.ar    1  UNL1       -0.2399
     35 C          58.6329   79.6693   12.2593 C.ar    1  UNL1        0.1297
     36 C          58.9072   80.9257   12.8060 C.ar    1  UNL1        0.1725
     37 F          59.4173   81.0159   14.0601 F       1  UNL1       -0.2012
     38 C          61.6427   85.7155   13.8357 C.3     1  UNL1        0.0569
     39 C          62.3009   87.0068   13.4411 C.ar    1  UNL1       -0.0017
     40 C          62.7453   87.3545   12.1687 C.ar    1  UNL1        0.0681
     41 N          63.3674   88.5551   12.1979 N.ar    1  UNL1       -0.3523
     42 C          63.3286   88.9624   13.4787 C.ar    1  UNL1        0.0563
     43 C          63.8625   90.1363   14.0086 C.ar    1  UNL1        0.0170
     44 C          63.7265   90.3545   15.3920 C.ar    1  UNL1        0.0015
     45 C          63.0710   89.4036   16.2057 C.ar    1  UNL1        0.0001
     46 C          62.5441   88.2265   15.6436 C.ar    1  UNL1        0.0012
     47 C          62.6897   88.0412   14.2687 C.ar    1  UNL1        0.0131
     48 H          63.8036   89.0526   11.3901 H       1  UNL1        0.1660
@<TRIPOS>BOND
     1     1     2    2
     2     2     3   am
     3     3    26    1
     4    26    38    1
     5    38    39    1
     6    39    40   ar
     7    40    41   ar
     8    41    42   ar
     9    42    43   ar
    10    43    44   ar
    11    44    45   ar
    12    45    46   ar
    13    46    47   ar
    14    26    27    1
    15    27    28    2
    16    27    29   am
    17    29    31    1
    18    31    32   ar
    19    32    33   ar
    20    33    34   ar
    21    34    35   ar
    22    35    36   ar
    23    36    37    1
    24     2     5    1
    25     5     6   ar
    26     6     7   ar
    27     7     8   ar
    28     8    12    1
    29    12    13    1
    30    13    14    1
    31    14    15    1
    32    15    18    1
    33    18    19   ar
    34    19    20   ar
    35    20    21   ar
    36    21    22    1
    37    21    23   ar
    38    23    24    1
    39    23    25   ar
    40    15    16    1
    41    16    17    1
    42     8     9   ar
    43     9    10   ar
    44    10    11    1
    45    47    39   ar
    46    36    31   ar
    47    10     5   ar
    48    47    42   ar
    49    17    12    1
    50    25    18   ar
    51     3     4    1
    52    41    48    1
    53    29    30    1
@<TRIPOS>MOLECULE
*****
 48 53 0 0 0
SMALL
GASTEIGER

@<TRIPOS>ATOM
      1 O          58.7763   87.0097   11.5409 O.2     1  UNL1       -0.2701
      2 C          59.8163   87.5836   11.1158 C.2     1  UNL1        0.2483
      3 N          61.0200   87.5451   11.9005 N.am    1  UNL1       -0.2945
      4 H          61.9151   87.8714   11.4711 H       1  UNL1        0.1501
      5 C          59.7829   88.2817    9.8080 C.ar    1  UNL1        0.0808
      6 C          59.4087   87.5908    8.6417 C.ar    1  UNL1        0.0080
      7 C          59.3833   88.2428    7.4063 C.ar    1  UNL1        0.0148
      8 C          59.7328   89.5984    7.3102 C.ar    1  UNL1        0.0502
      9 C          60.1163   90.2886    8.4691 C.ar    1  UNL1        0.0443
     10 C          60.1451   89.6397    9.7074 C.ar    1  UNL1        0.1457
     11 F          60.5074   90.3476   10.8075 F       1  UNL1       -0.2040
     12 N          59.7101   90.2754    6.0394 N.pl3   1  UNL1       -0.3040
     13 C          58.4322   90.7131    5.4648 C.3     1  UNL1        0.1122
     14 C          58.6021   92.0663    4.7733 C.3     1  UNL1        0.1122
     15 N          59.7752   92.0355    3.8917 N.pl3   1  UNL1       -0.3040
     16 C          61.0532   91.5976    4.4663 C.3     1  UNL1        0.1122
     17 C          60.8833   90.2445    5.1578 C.3     1  UNL1        0.1122
     18 C          59.7524   92.7130    2.6212 C.ar    1  UNL1        0.0488
     19 C          60.6635   93.7474    2.3581 C.ar    1  UNL1        0.0154
     20 C          60.6487   94.4058    1.1260 C.ar    1  UNL1        0.0135
     21 C          59.7253   94.0397    0.1410 C.ar    1  UNL1        0.0683
     22 CL         59.7374   94.8916   -1.3972 Cl      1  UNL1       -0.0814
     23 C          58.8101   93.0041    0.3938 C.ar    1  UNL1        0.0694
     24 CL         57.6314   92.5141   -0.8156 Cl      1  UNL1       -0.0813
     25 C          58.8274   92.3454    1.6291 C.ar    1  UNL1        0.0268
     26 C          61.0589   86.9351   13.2326 C.3     1  UNL1        0.1535
     27 C          61.3964   85.4715   13.1110 C.2     1  UNL1        0.2444
     28 O          60.4622   84.6299   13.0146 O.2     1  UNL1       -0.2730
     29 N          62.7671   85.0432   13.0774 N.am    1  UNL1       -0.2807
     30 H          63.4955   85.7527   12.8363 H       1  UNL1        0.1550
     31 C          63.1877   83.6867   13.3028 C.ar    1  UNL1        0.0813
     32 C          63.7742   82.9242   12.2780 C.ar    1  UNL1        0.0376
     33 C          64.1415   81.5999   12.5275 C.ar    1  UNL1        0.1003
     34 N          63.9213   81.0493   13.7503 N.ar    1  UNL1       -0.2399
     35 C          63.3413   81.7565   14.7555 C.ar    1  UNL1        0.1297
     36 C          62.9564   83.0838   14.5488 C.ar    1  UNL1        0.1725
     37 F          62.3780   83.7807   15.5591 F       1  UNL1       -0.2012
     38 C          62.0799   87.6669   14.1245 C.3     1  UNL1        0.0569
     39 C          62.7677   88.7785   13.3844 C.ar    1  UNL1       -0.0017
     40 C          62.8613   88.9195   12.0029 C.ar    1  UNL1        0.0681
     41 N          63.6272   89.9890   11.6885 N.ar    1  UNL1       -0.3523
     42 C          64.0259   90.5172   12.8590 C.ar    1  UNL1        0.0563
     43 C          64.8523   91.6239   13.0488 C.ar    1  UNL1        0.0170
     44 C          65.1628   91.9936   14.3705 C.ar    1  UNL1        0.0015
     45 C          64.6493   91.2550   15.4599 C.ar    1  UNL1        0.0001
     46 C          63.8194   90.1408   15.2380 C.ar    1  UNL1        0.0012
     47 C          63.5252   89.8025   13.9171 C.ar    1  UNL1        0.0131
     48 H          63.8713   90.3226   10.7296 H       1  UNL1        0.1660
@<TRIPOS>BOND
     1     1     2    2
     2     2     3   am
     3     3    26    1
     4    26    38    1
     5    38    39    1
     6    39    40   ar
     7    40    41   ar
     8    41    42   ar
     9    42    43   ar
    10    43    44   ar
    11    44    45   ar
    12    45    46   ar
    13    46    47   ar
    14    26    27    1
    15    27    28    2
    16    27    29   am
    17    29    31    1
    18    31    32   ar
    19    32    33   ar
    20    33    34   ar
    21    34    35   ar
    22    35    36   ar
    23    36    37    1
    24     2     5    1
    25     5     6   ar
    26     6     7   ar
    27     7     8   ar
    28     8    12    1
    29    12    13    1
    30    13    14    1
    31    14    15    1
    32    15    18    1
    33    18    19   ar
    34    19    20   ar
    35    20    21   ar
    36    21    22    1
    37    21    23   ar
    38    23    24    1
    39    23    25   ar
    40    15    16    1
    41    16    17    1
    42     8     9   ar
    43     9    10   ar
    44    10    11    1
    45    47    39   ar
    46    36    31   ar
    47    10     5   ar
    48    47    42   ar
    49    17    12    1
    50    25    18   ar
    51     3     4    1
    52    41    48    1
    53    29    30    1
