@<TRIPOS>MOLECULE
*****
 52 58 0 0 0
SMALL
GASTEIGER

@<TRIPOS>ATOM
      1 C          59.9736   83.3745   12.8859 C.ar    1  UNL1        0.0487
      2 C          58.6673   83.5151   12.3957 C.ar    1  UNL1        0.0176
      3 C          57.9585   82.3991   11.9460 C.ar    1  UNL1        0.0382
      4 C          58.5376   81.1265   11.9687 C.ar    1  UNL1        0.1388
      5 C          59.8420   80.9798   12.4815 C.ar    1  UNL1        0.0382
      6 C          60.5522   82.0961   12.9327 C.ar    1  UNL1        0.0176
      7 N          61.8090   86.8040   14.4970 N.pl3   1  UNL1       -0.3034
      8 C          61.9646   85.5278   15.2035 C.3     1  UNL1        0.1123
      9 C          61.8704   84.3638   14.2160 C.3     1  UNL1        0.1129
     10 N          60.7065   84.5301   13.3344 N.pl3   1  UNL1       -0.2968
     11 C          60.5180   85.8170   12.6482 C.3     1  UNL1        0.1503
     12 BR         61.8385   86.0116   11.2339 Br      1  UNL1       -0.0577
     13 C          60.6245   86.9719   13.6474 C.3     1  UNL1        0.1225
     14 C          64.1197   90.2005   15.6372 C.ar    1  UNL1        0.0699
     15 C          64.2846   89.6143   14.3708 C.ar    1  UNL1        0.0190
     16 C          63.5269   88.5003   13.9999 C.ar    1  UNL1        0.0160
     17 C          62.5851   87.9539   14.8847 C.ar    1  UNL1        0.0481
     18 C          62.4137   88.5417   16.1484 C.ar    1  UNL1        0.0160
     19 C          63.1716   89.6557   16.5202 C.ar    1  UNL1        0.0190
     20 N          66.4680   92.9248   16.1133 N.ar    1  UNL1       -0.2024
     21 N          65.5673   93.2242   17.0383 N.ar    1  UNL1       -0.1442
     22 C          64.6210   92.2623   16.9728 C.ar    1  UNL1        0.2073
     23 N          64.9006   91.3519   16.0121 N.ar    1  UNL1       -0.2398
     24 C          66.0565   91.8068   15.4888 C.ar    1  UNL1        0.3522
     25 O          66.6547   91.2811   14.5114 O.2     1  UNL1       -0.2444
     26 C          67.6368   93.7494   15.7906 C.3     1  UNL1        0.1099
     27 C          67.5376   94.2433   14.3413 C.3     1  UNL1        0.0265
     28 C          69.6361   92.5386   14.7508 C.3     1  UNL1        0.0021
     29 C          68.9213   92.9355   16.0426 C.3     1  UNL1        0.0245
     30 O          57.7821   80.0516   11.4692 O.3     1  UNL1       -0.4727
     31 C          57.5423   79.7644   10.0900 C.3     1  UNL1        0.2374
     32 C          57.9470   80.9259    9.1714 C.3     1  UNL1        0.1909
     33 C          57.9365   80.6118    7.7057 C.3     1  UNL1        0.1783
     34 O          58.8804   81.4663    7.1408 O.3     1  UNL1       -0.3266
     35 C          59.6609   81.9594    8.2141 C.3     1  UNL1        0.2314
     36 O          59.2473   81.3506    9.4254 O.3     1  UNL1       -0.3254
     37 C          59.5069   83.4823    8.3049 C.ar    1  UNL1        0.0410
     38 C          58.6623   84.0400    9.2904 C.ar    1  UNL1        0.0022
     39 C          58.5162   85.4227    9.4135 C.ar    1  UNL1        0.0113
     40 C          59.2225   86.2799    8.5717 C.ar    1  UNL1        0.0585
     41 CL         59.0380   88.0170    8.7318 Cl      1  UNL1       -0.0822
     42 C          60.0883   85.7545    7.6121 C.ar    1  UNL1        0.0226
     43 C          60.2470   84.3695    7.4761 C.ar    1  UNL1        0.0591
     44 CL         61.4092   83.8142    6.2721 Cl      1  UNL1       -0.0824
     45 C          61.1457   81.6280    7.9689 C.3     1  UNL1        0.1893
     46 N          61.9291   81.6983    9.2034 N.ar    1  UNL1       -0.2313
     47 N          62.5174   82.7996    9.6337 N.ar    1  UNL1       -0.1532
     48 C          63.2090   82.4368   10.7315 C.ar    1  UNL1        0.1604
     49 C          64.1323   83.3531   11.4598 C.3     1  UNL1        0.0756
     50 N          63.1027   81.1186   11.0070 N.ar    1  UNL1       -0.2146
     51 C          62.2760   80.6915   10.0320 C.ar    1  UNL1        0.1381
     52 C          61.9221   79.2506    9.8365 C.3     1  UNL1        0.0734
@<TRIPOS>BOND
     1    28    29    1
     2    29    26    1
     3    26    27    1
     4    26    20    1
     5    20    21   ar
     6    21    22   ar
     7    22    23   ar
     8    23    14    1
     9    14    15   ar
    10    15    16   ar
    11    16    17   ar
    12    17     7    1
    13     7     8    1
    14     8     9    1
    15     9    10    1
    16    10     1    1
    17     1     2   ar
    18     2     3   ar
    19     3     4   ar
    20     4    30    1
    21    30    31    1
    22    31    32    1
    23    32    33    1
    24    33    34    1
    25    34    35    1
    26    35    45    1
    27    45    46    1
    28    46    47   ar
    29    47    48   ar
    30    48    49    1
    31    48    50   ar
    32    50    51   ar
    33    51    52    1
    34    35    37    1
    35    37    38   ar
    36    38    39   ar
    37    39    40   ar
    38    40    41    1
    39    40    42   ar
    40    42    43   ar
    41    43    44    1
    42    35    36    1
    43     4     5   ar
    44     5     6   ar
    45    10    11    1
    46    11    12    1
    47    11    13    1
    48    17    18   ar
    49    18    19   ar
    50    23    24   ar
    51    24    25    2
    52    24    20   ar
    53    19    14   ar
    54    13     7    1
    55     6     1   ar
    56    36    32    1
    57    51    46   ar
    58    43    37   ar
@<TRIPOS>MOLECULE
*****
 52 58 0 0 0
SMALL
GASTEIGER

@<TRIPOS>ATOM
      1 C          59.7234   86.6700   10.3430 C.ar    1  UNL1        0.0487
      2 C          60.7900   86.5948   11.2502 C.ar    1  UNL1        0.0176
      3 C          60.7274   85.7269   12.3425 C.ar    1  UNL1        0.0382
      4 C          59.6018   84.9250   12.5559 C.ar    1  UNL1        0.1388
      5 C          58.5383   84.9829   11.6332 C.ar    1  UNL1        0.0382
      6 C          58.6002   85.8506   10.5390 C.ar    1  UNL1        0.0176
      7 N          59.5529   89.5127    7.2421 N.pl3   1  UNL1       -0.3034
      8 C          60.0949   89.9241    8.5417 C.3     1  UNL1        0.1123
      9 C          60.7069   88.7218    9.2619 C.3     1  UNL1        0.1129
     10 N          59.7857   87.5774    9.2265 N.pl3   1  UNL1       -0.2968
     11 C          59.2059   87.1766    7.9358 C.3     1  UNL1        0.1503
     12 BR         60.5692   86.3387    6.8307 Br      1  UNL1       -0.0577
     13 C          58.6064   88.3915    7.2232 C.3     1  UNL1        0.1225
     14 C          59.8782   92.0635    3.8416 C.ar    1  UNL1        0.0699
     15 C          58.6400   91.8726    4.4780 C.ar    1  UNL1        0.0190
     16 C          58.5357   91.0350    5.5917 C.ar    1  UNL1        0.0160
     17 C          59.6678   90.3766    6.0951 C.ar    1  UNL1        0.0481
     18 C          60.9076   90.5708    5.4650 C.ar    1  UNL1        0.0160
     19 C          61.0125   91.4080    4.3507 C.ar    1  UNL1        0.0190
     20 N          59.9882   93.7380    0.6250 N.ar    1  UNL1       -0.2024
     21 N          60.2414   94.7585    1.4319 N.ar    1  UNL1       -0.1442
     22 C          60.2385   94.2600    2.6875 C.ar    1  UNL1        0.2073
     23 N          59.9802   92.9321    2.6965 N.ar    1  UNL1       -0.2398
     24 C          59.8174   92.6448    1.3897 C.ar    1  UNL1        0.3522
     25 O          59.5020   91.5096    0.9411 O.2     1  UNL1       -0.2444
     26 C          59.8281   93.8451   -0.8287 C.3     1  UNL1        0.1099
     27 C          60.9631   94.6962   -1.4131 C.3     1  UNL1        0.0265
     28 C          57.3641   93.3528   -1.3090 C.3     1  UNL1        0.0021
     29 C          58.4377   94.4291   -1.1477 C.3     1  UNL1        0.0245
     30 O          59.5891   84.0996   13.6936 O.3     1  UNL1       -0.4727
     31 C          60.1784   82.8016   13.7946 C.3     1  UNL1        0.2374
     32 C          59.9951   81.9745   12.5145 C.3     1  UNL1        0.1909
     33 C          60.3582   80.5251   12.6355 C.3     1  UNL1        0.1783
     34 O          60.7402   80.1345   11.3542 O.3     1  UNL1       -0.3266
     35 C          60.9651   81.3280   10.6267 C.3     1  UNL1        0.2314
     36 O          60.7965   82.4471   11.4801 O.3     1  UNL1       -0.3254
     37 C          59.9859   81.4051    9.4493 C.ar    1  UNL1        0.0410
     38 C          60.3813   82.0470    8.2546 C.ar    1  UNL1        0.0022
     39 C          59.5217   82.1161    7.1570 C.ar    1  UNL1        0.0113
     40 C          58.2583   81.5309    7.2181 C.ar    1  UNL1        0.0585
     41 CL         57.1824   81.6178    5.8354 Cl      1  UNL1       -0.0822
     42 C          57.8569   80.8626    8.3751 C.ar    1  UNL1        0.0226
     43 C          58.7077   80.7833    9.4850 C.ar    1  UNL1        0.0591
     44 CL         58.1245   79.8658   10.8731 Cl      1  UNL1       -0.0824
     45 C          62.4031   81.3331   10.0729 C.3     1  UNL1        0.1893
     46 N          63.2321   82.3493   10.7231 N.ar    1  UNL1       -0.2313
     47 N          63.7201   82.2226   11.9437 N.ar    1  UNL1       -0.1532
     48 C          64.3355   83.3907   12.2120 C.ar    1  UNL1        0.1604
     49 C          64.9119   83.7275   13.5450 C.3     1  UNL1        0.0756
     50 N          64.2343   84.2814   11.2014 N.ar    1  UNL1       -0.2146
     51 C          63.5468   83.5830   10.2763 C.ar    1  UNL1        0.1381
     52 C          63.0827   84.1783    8.9840 C.3     1  UNL1        0.0734
@<TRIPOS>BOND
     1    28    29    1
     2    29    26    1
     3    26    27    1
     4    26    20    1
     5    20    21   ar
     6    21    22   ar
     7    22    23   ar
     8    23    14    1
     9    14    15   ar
    10    15    16   ar
    11    16    17   ar
    12    17     7    1
    13     7     8    1
    14     8     9    1
    15     9    10    1
    16    10     1    1
    17     1     2   ar
    18     2     3   ar
    19     3     4   ar
    20     4    30    1
    21    30    31    1
    22    31    32    1
    23    32    33    1
    24    33    34    1
    25    34    35    1
    26    35    45    1
    27    45    46    1
    28    46    47   ar
    29    47    48   ar
    30    48    49    1
    31    48    50   ar
    32    50    51   ar
    33    51    52    1
    34    35    37    1
    35    37    38   ar
    36    38    39   ar
    37    39    40   ar
    38    40    41    1
    39    40    42   ar
    40    42    43   ar
    41    43    44    1
    42    35    36    1
    43     4     5   ar
    44     5     6   ar
    45    10    11    1
    46    11    12    1
    47    11    13    1
    48    17    18   ar
    49    18    19   ar
    50    23    24   ar
    51    24    25    2
    52    24    20   ar
    53    19    14   ar
    54    13     7    1
    55     6     1   ar
    56    36    32    1
    57    51    46   ar
    58    43    37   ar
@<TRIPOS>MOLECULE
*****
 52 58 0 0 0
SMALL
GASTEIGER

@<TRIPOS>ATOM
      1 C          60.4253   86.2943   10.1685 C.ar    1  UNL1        0.0487
      2 C          61.6711   85.9629   10.7202 C.ar    1  UNL1        0.0176
      3 C          61.7578   85.0357   11.7608 C.ar    1  UNL1        0.0382
      4 C          60.6084   84.4279   12.2756 C.ar    1  UNL1        0.1388
      5 C          59.3577   84.7430   11.7078 C.ar    1  UNL1        0.0382
      6 C          59.2698   85.6704   10.6655 C.ar    1  UNL1        0.0176
      7 N          59.8394   89.2973    7.2763 N.pl3   1  UNL1       -0.3034
      8 C          60.5278   89.6490    8.5231 C.3     1  UNL1        0.1123
      9 C          61.2402   88.4229    9.0957 C.3     1  UNL1        0.1129
     10 N          60.3388   87.2623    9.1058 N.pl3   1  UNL1       -0.2968
     11 C          59.6140   86.9198    7.8730 C.3     1  UNL1        0.1503
     12 BR         60.8466   86.1733    6.5673 Br      1  UNL1       -0.0577
     13 C          58.9146   88.1584    7.3071 C.3     1  UNL1        0.1225
     14 C          59.7441   92.0487    4.0211 C.ar    1  UNL1        0.0699
     15 C          60.9454   91.4230    4.3953 C.ar    1  UNL1        0.0190
     16 C          60.9743   90.5225    5.4634 C.ar    1  UNL1        0.0160
     17 C          59.8022   90.2247    6.1747 C.ar    1  UNL1        0.0481
     18 C          58.5991   90.8435    5.7987 C.ar    1  UNL1        0.0160
     19 C          58.5696   91.7447    4.7308 C.ar    1  UNL1        0.0190
     20 N          59.5994   93.8634    0.8828 N.ar    1  UNL1       -0.2024
     21 N          59.7286   94.8715    1.7335 N.ar    1  UNL1       -0.1442
     22 C          59.8047   94.3220    2.9653 C.ar    1  UNL1        0.2073
     23 N          59.7198   92.9727    2.9158 N.ar    1  UNL1       -0.2398
     24 C          59.5800   92.7246    1.5984 C.ar    1  UNL1        0.3522
     25 O          59.4083   91.5790    1.1008 O.2     1  UNL1       -0.2444
     26 C          59.4098   94.0127   -0.5635 C.3     1  UNL1        0.1099
     27 C          60.5258   94.8913   -1.1439 C.3     1  UNL1        0.0265
     28 C          57.0065   93.5351   -1.2988 C.3     1  UNL1        0.0021
     29 C          58.0085   94.5936   -0.8375 C.3     1  UNL1        0.0245
     30 O          60.7630   83.5301   13.3460 O.3     1  UNL1       -0.4727
     31 C          61.8909   83.4534   14.2201 C.3     1  UNL1        0.2374
     32 C          62.3138   84.8300   14.7519 C.3     1  UNL1        0.1909
     33 C          62.2880   84.9715   16.2441 C.3     1  UNL1        0.1783
     34 O          62.0612   86.3254   16.4802 O.3     1  UNL1       -0.3266
     35 C          61.5998   86.8690   15.2570 C.3     1  UNL1        0.2314
     36 O          61.4704   85.8373   14.2938 O.3     1  UNL1       -0.3254
     37 C          62.5848   87.9358   14.7642 C.ar    1  UNL1        0.0410
     38 C          62.7472   88.1470   13.3769 C.ar    1  UNL1        0.0022
     39 C          63.6200   89.1242   12.8956 C.ar    1  UNL1        0.0113
     40 C          64.3345   89.9252   13.7846 C.ar    1  UNL1        0.0585
     41 CL         65.4281   91.1540   13.1754 Cl      1  UNL1       -0.0822
     42 C          64.1667   89.7585   15.1596 C.ar    1  UNL1        0.0226
     43 C          63.2943   88.7831   15.6590 C.ar    1  UNL1        0.0591
     44 CL         63.1132   88.6965   17.4106 Cl      1  UNL1       -0.0824
     45 C          60.2242   87.5296   15.4707 C.3     1  UNL1        0.1893
     46 N          59.6731   88.0541   14.2201 N.ar    1  UNL1       -0.2313
     47 N          60.1210   89.1447   13.6251 N.ar    1  UNL1       -0.1532
     48 C          59.3039   89.3461   12.5730 C.ar    1  UNL1        0.1604
     49 C          59.3710   90.5533   11.7009 C.3     1  UNL1        0.0756
     50 N          58.3202   88.4241   12.4885 N.ar    1  UNL1       -0.2146
     51 C          58.5962   87.6190   13.5334 C.ar    1  UNL1        0.1381
     52 C          57.7163   86.4781   13.9384 C.3     1  UNL1        0.0734
@<TRIPOS>BOND
     1    28    29    1
     2    29    26    1
     3    26    27    1
     4    26    20    1
     5    20    21   ar
     6    21    22   ar
     7    22    23   ar
     8    23    14    1
     9    14    15   ar
    10    15    16   ar
    11    16    17   ar
    12    17     7    1
    13     7     8    1
    14     8     9    1
    15     9    10    1
    16    10     1    1
    17     1     2   ar
    18     2     3   ar
    19     3     4   ar
    20     4    30    1
    21    30    31    1
    22    31    32    1
    23    32    33    1
    24    33    34    1
    25    34    35    1
    26    35    45    1
    27    45    46    1
    28    46    47   ar
    29    47    48   ar
    30    48    49    1
    31    48    50   ar
    32    50    51   ar
    33    51    52    1
    34    35    37    1
    35    37    38   ar
    36    38    39   ar
    37    39    40   ar
    38    40    41    1
    39    40    42   ar
    40    42    43   ar
    41    43    44    1
    42    35    36    1
    43     4     5   ar
    44     5     6   ar
    45    10    11    1
    46    11    12    1
    47    11    13    1
    48    17    18   ar
    49    18    19   ar
    50    23    24   ar
    51    24    25    2
    52    24    20   ar
    53    19    14   ar
    54    13     7    1
    55     6     1   ar
    56    36    32    1
    57    51    46   ar
    58    43    37   ar
@<TRIPOS>MOLECULE
*****
 52 58 0 0 0
SMALL
GASTEIGER

@<TRIPOS>ATOM
      1 C          58.6579   85.5663   10.3341 C.ar    1  UNL1        0.0487
      2 C          58.3183   84.2673    9.9297 C.ar    1  UNL1        0.0176
      3 C          58.0407   83.2823   10.8799 C.ar    1  UNL1        0.0382
      4 C          58.1031   83.5690   12.2472 C.ar    1  UNL1        0.1388
      5 C          58.4226   84.8795   12.6554 C.ar    1  UNL1        0.0382
      6 C          58.6998   85.8665   11.7050 C.ar    1  UNL1        0.0176
      7 N          59.1508   88.6883    7.5527 N.pl3   1  UNL1       -0.3034
      8 C          59.3643   88.9760    8.9752 C.3     1  UNL1        0.1123
      9 C          59.8188   87.7120    9.7062 C.3     1  UNL1        0.1129
     10 N          58.9583   86.5749    9.3511 N.pl3   1  UNL1       -0.2968
     11 C          58.7058   86.2968    7.9293 C.3     1  UNL1        0.1503
     12 BR         60.3087   85.5684    7.1036 Br      1  UNL1       -0.0577
     13 C          58.2613   87.5728    7.2097 C.3     1  UNL1        0.1225
     14 C          60.2016   91.5493    4.5718 C.ar    1  UNL1        0.0699
     15 C          58.8595   91.3622    4.9435 C.ar    1  UNL1        0.0190
     16 C          58.5175   90.4228    5.9199 C.ar    1  UNL1        0.0160
     17 C          59.5104   89.6566    6.5486 C.ar    1  UNL1        0.0481
     18 C          60.8531   89.8462    6.1837 C.ar    1  UNL1        0.0160
     19 C          61.1958   90.7852    5.2068 C.ar    1  UNL1        0.0190
     20 N          61.6100   93.6744    1.9905 N.ar    1  UNL1       -0.2024
     21 N          60.4280   94.2515    2.1534 N.ar    1  UNL1       -0.1442
     22 C          59.7912   93.5484    3.1153 C.ar    1  UNL1        0.2073
     23 N          60.5484   92.5228    3.5677 N.ar    1  UNL1       -0.2398
     24 C          61.6730   92.6271    2.8320 C.ar    1  UNL1        0.3522
     25 O          62.6425   91.8232    2.8899 O.2     1  UNL1       -0.2444
     26 C          62.6015   94.0750    0.9872 C.3     1  UNL1        0.1099
     27 C          62.5287   93.1294   -0.2190 C.3     1  UNL1        0.0265
     28 C          65.0708   93.4520    0.7453 C.3     1  UNL1        0.0021
     29 C          64.0018   94.0916    1.6313 C.3     1  UNL1        0.0245
     30 O          57.8461   82.5232   13.1504 O.3     1  UNL1       -0.4727
     31 C          58.7083   81.4153   13.4180 C.3     1  UNL1        0.2374
     32 C          60.0986   81.5911   12.7913 C.3     1  UNL1        0.1909
     33 C          61.0727   80.4899   13.0840 C.3     1  UNL1        0.1783
     34 O          62.3301   81.0858   13.0194 O.3     1  UNL1       -0.3266
     35 C          62.1098   82.4831   13.0776 C.3     1  UNL1        0.2314
     36 O          60.7276   82.7423   13.2549 O.3     1  UNL1       -0.3254
     37 C          62.6117   83.1373   11.7849 C.ar    1  UNL1        0.0410
     38 C          61.7793   84.0465   11.0949 C.ar    1  UNL1        0.0022
     39 C          62.2139   84.6752    9.9269 C.ar    1  UNL1        0.0113
     40 C          63.4929   84.4276    9.4318 C.ar    1  UNL1        0.0585
     41 CL         64.0359   85.2221    7.9650 Cl      1  UNL1       -0.0822
     42 C          64.3461   83.5591   10.1130 C.ar    1  UNL1        0.0226
     43 C          63.9259   82.9208   11.2869 C.ar    1  UNL1        0.0591
     44 CL         65.1029   81.8897   12.0993 Cl      1  UNL1       -0.0824
     45 C          62.8874   83.0803   14.2663 C.3     1  UNL1        0.1893
     46 N          62.9617   84.5401   14.1886 N.ar    1  UNL1       -0.2313
     47 N          61.9141   85.3145   13.9719 N.ar    1  UNL1       -0.1532
     48 C          62.4020   86.5665   13.8737 C.ar    1  UNL1        0.1604
     49 C          61.5699   87.7442   13.4952 C.3     1  UNL1        0.0756
     50 N          63.7463   86.6170   13.9961 N.ar    1  UNL1       -0.2146
     51 C          64.0600   85.3238   14.2093 C.ar    1  UNL1        0.1381
     52 C          65.4701   84.8326   14.3091 C.3     1  UNL1        0.0734
@<TRIPOS>BOND
     1    28    29    1
     2    29    26    1
     3    26    27    1
     4    26    20    1
     5    20    21   ar
     6    21    22   ar
     7    22    23   ar
     8    23    14    1
     9    14    15   ar
    10    15    16   ar
    11    16    17   ar
    12    17     7    1
    13     7     8    1
    14     8     9    1
    15     9    10    1
    16    10     1    1
    17     1     2   ar
    18     2     3   ar
    19     3     4   ar
    20     4    30    1
    21    30    31    1
    22    31    32    1
    23    32    33    1
    24    33    34    1
    25    34    35    1
    26    35    45    1
    27    45    46    1
    28    46    47   ar
    29    47    48   ar
    30    48    49    1
    31    48    50   ar
    32    50    51   ar
    33    51    52    1
    34    35    37    1
    35    37    38   ar
    36    38    39   ar
    37    39    40   ar
    38    40    41    1
    39    40    42   ar
    40    42    43   ar
    41    43    44    1
    42    35    36    1
    43     4     5   ar
    44     5     6   ar
    45    10    11    1
    46    11    12    1
    47    11    13    1
    48    17    18   ar
    49    18    19   ar
    50    23    24   ar
    51    24    25    2
    52    24    20   ar
    53    19    14   ar
    54    13     7    1
    55     6     1   ar
    56    36    32    1
    57    51    46   ar
    58    43    37   ar
@<TRIPOS>MOLECULE
*****
 52 58 0 0 0
SMALL
GASTEIGER

@<TRIPOS>ATOM
      1 C          60.0810   86.5700   10.2517 C.ar    1  UNL1        0.0487
      2 C          61.3027   86.1758   10.8158 C.ar    1  UNL1        0.0176
      3 C          61.3287   85.2866   11.8923 C.ar    1  UNL1        0.0382
      4 C          60.1418   84.7800   12.4310 C.ar    1  UNL1        0.1388
      5 C          58.9140   85.1577   11.8514 C.ar    1  UNL1        0.0382
      6 C          58.8869   86.0471   10.7733 C.ar    1  UNL1        0.0176
      7 N          59.6763   89.4734    7.2298 N.pl3   1  UNL1       -0.3034
      8 C          60.3218   89.8578    8.4898 C.3     1  UNL1        0.1123
      9 C          60.9840   88.6399    9.1356 C.3     1  UNL1        0.1129
     10 N          60.0581   87.4990    9.1515 N.pl3   1  UNL1       -0.2968
     11 C          59.3758   87.1251    7.9036 C.3     1  UNL1        0.1503
     12 BR         60.6432   86.3054    6.6775 Br      1  UNL1       -0.0577
     13 C          58.7265   88.3554    7.2646 C.3     1  UNL1        0.1225
     14 C          59.7708   92.1019    3.8745 C.ar    1  UNL1        0.0699
     15 C          60.9419   91.4650    4.3187 C.ar    1  UNL1        0.0190
     16 C          60.9086   90.6048    5.4195 C.ar    1  UNL1        0.0160
     17 C          59.7032   90.3593    6.0942 C.ar    1  UNL1        0.0481
     18 C          58.5302   90.9895    5.6484 C.ar    1  UNL1        0.0160
     19 C          58.5629   91.8503    4.5478 C.ar    1  UNL1        0.0190
     20 N          59.7703   93.8027    0.6698 N.ar    1  UNL1       -0.2024
     21 N          59.9309   94.8348    1.4855 N.ar    1  UNL1       -0.1442
     22 C          59.9581   94.3289    2.7379 C.ar    1  UNL1        0.2073
     23 N          59.8107   92.9841    2.7360 N.ar    1  UNL1       -0.2398
     24 C          59.6840   92.6936    1.4259 C.ar    1  UNL1        0.3522
     25 O          59.4677   91.5394    0.9671 O.2     1  UNL1       -0.2444
     26 C          59.6149   93.9065   -0.7846 C.3     1  UNL1        0.1099
     27 C          60.7012   94.8267   -1.3569 C.3     1  UNL1        0.0265
     28 C          57.1878   93.2697   -1.2824 C.3     1  UNL1        0.0021
     29 C          58.1944   94.4075   -1.1120 C.3     1  UNL1        0.0245
     30 O          60.2375   83.9167   13.5360 O.3     1  UNL1       -0.4727
     31 C          59.4740   82.7258   13.7384 C.3     1  UNL1        0.2374
     32 C          59.3283   81.8985   12.4535 C.3     1  UNL1        0.1909
     33 C          59.3902   80.4127   12.6425 C.3     1  UNL1        0.1783
     34 O          59.8758   79.9097   11.4377 O.3     1  UNL1       -0.3266
     35 C          60.4259   81.0126   10.7409 C.3     1  UNL1        0.2314
     36 O          60.3475   82.1753   11.5479 O.3     1  UNL1       -0.3254
     37 C          59.6624   81.2243    9.4281 C.ar    1  UNL1        0.0410
     38 C          58.5161   80.4453    9.1549 C.ar    1  UNL1        0.0022
     39 C          57.7865   80.6274    7.9789 C.ar    1  UNL1        0.0113
     40 C          58.1706   81.6018    7.0595 C.ar    1  UNL1        0.0585
     41 CL         57.2491   81.8292    5.5842 Cl      1  UNL1       -0.0822
     42 C          59.2798   82.4065    7.3217 C.ar    1  UNL1        0.0226
     43 C          60.0222   82.2373    8.4973 C.ar    1  UNL1        0.0591
     44 CL         61.3688   83.3453    8.7567 Cl      1  UNL1       -0.0824
     45 C          61.9045   80.7309   10.4113 C.3     1  UNL1        0.1893
     46 N          62.7856   81.0771   11.5278 N.ar    1  UNL1       -0.2313
     47 N          62.6617   80.5695   12.7407 N.ar    1  UNL1       -0.1532
     48 C          63.5825   81.2012   13.4946 C.ar    1  UNL1        0.1604
     49 C          63.6957   81.0251   14.9706 C.3     1  UNL1        0.0756
     50 N          64.2828   82.1259   12.8022 N.ar    1  UNL1       -0.2146
     51 C          63.7631   82.0065   11.5646 C.ar    1  UNL1        0.1381
     52 C          64.1437   82.9054   10.4302 C.3     1  UNL1        0.0734
@<TRIPOS>BOND
     1    28    29    1
     2    29    26    1
     3    26    27    1
     4    26    20    1
     5    20    21   ar
     6    21    22   ar
     7    22    23   ar
     8    23    14    1
     9    14    15   ar
    10    15    16   ar
    11    16    17   ar
    12    17     7    1
    13     7     8    1
    14     8     9    1
    15     9    10    1
    16    10     1    1
    17     1     2   ar
    18     2     3   ar
    19     3     4   ar
    20     4    30    1
    21    30    31    1
    22    31    32    1
    23    32    33    1
    24    33    34    1
    25    34    35    1
    26    35    45    1
    27    45    46    1
    28    46    47   ar
    29    47    48   ar
    30    48    49    1
    31    48    50   ar
    32    50    51   ar
    33    51    52    1
    34    35    37    1
    35    37    38   ar
    36    38    39   ar
    37    39    40   ar
    38    40    41    1
    39    40    42   ar
    40    42    43   ar
    41    43    44    1
    42    35    36    1
    43     4     5   ar
    44     5     6   ar
    45    10    11    1
    46    11    12    1
    47    11    13    1
    48    17    18   ar
    49    18    19   ar
    50    23    24   ar
    51    24    25    2
    52    24    20   ar
    53    19    14   ar
    54    13     7    1
    55     6     1   ar
    56    36    32    1
    57    51    46   ar
    58    43    37   ar
@<TRIPOS>MOLECULE
*****
 52 58 0 0 0
SMALL
GASTEIGER

@<TRIPOS>ATOM
      1 C          59.9036   85.6356    9.4724 C.ar    1  UNL1        0.0487
      2 C          60.4360   84.7146    8.5588 C.ar    1  UNL1        0.0176
      3 C          59.6130   83.7583    7.9603 C.ar    1  UNL1        0.0382
      4 C          58.2495   83.6960    8.2646 C.ar    1  UNL1        0.1388
      5 C          57.7082   84.6347    9.1656 C.ar    1  UNL1        0.0382
      6 C          58.5310   85.5930    9.7647 C.ar    1  UNL1        0.0176
      7 N          62.3165   88.2881   11.6787 N.pl3   1  UNL1       -0.3034
      8 C          62.8442   86.9557   11.3652 C.3     1  UNL1        0.1123
      9 C          62.2171   86.4313   10.0726 C.3     1  UNL1        0.1129
     10 N          60.7588   86.6103   10.0989 N.pl3   1  UNL1       -0.2968
     11 C          60.2151   87.9315   10.4475 C.3     1  UNL1        0.1503
     12 BR         60.5186   89.1777    8.9857 Br      1  UNL1       -0.0577
     13 C          60.8589   88.4468   11.7372 C.3     1  UNL1        0.1225
     14 C          64.8459   91.2817   13.3570 C.ar    1  UNL1        0.0699
     15 C          64.5839   90.0911   14.0558 C.ar    1  UNL1        0.0190
     16 C          63.7535   89.1119   13.5041 C.ar    1  UNL1        0.0160
     17 C          63.1736   89.3005   12.2406 C.ar    1  UNL1        0.0481
     18 C          63.4389   90.4865   11.5373 C.ar    1  UNL1        0.0160
     19 C          64.2690   91.4665   12.0887 C.ar    1  UNL1        0.0190
     20 N          67.2109   93.3468   15.1750 N.ar    1  UNL1       -0.2024
     21 N          66.7555   94.2270   14.2950 N.ar    1  UNL1       -0.1442
     22 C          65.8400   93.5758   13.5448 C.ar    1  UNL1        0.2073
     23 N          65.7067   92.2856   13.9291 N.ar    1  UNL1       -0.2398
     24 C          66.5887   92.1771   14.9426 C.ar    1  UNL1        0.3522
     25 O          66.8344   91.1089   15.5654 O.2     1  UNL1       -0.2444
     26 C          68.2784   93.6135   16.1442 C.3     1  UNL1        0.1099
     27 C          69.0317   94.8897   15.7465 C.3     1  UNL1        0.0265
     28 C          70.1747   92.2943   15.0451 C.3     1  UNL1        0.0021
     29 C          69.2103   92.3885   16.2274 C.3     1  UNL1        0.0245
     30 O          57.4851   82.6872    7.6533 O.3     1  UNL1       -0.4727
     31 C          57.5060   81.2987    7.9903 C.3     1  UNL1        0.2374
     32 C          58.3958   81.0049    9.2062 C.3     1  UNL1        0.1909
     33 C          57.8834   79.9392   10.1276 C.3     1  UNL1        0.1783
     34 O          58.4042   80.2558   11.3801 O.3     1  UNL1       -0.3266
     35 C          58.8532   81.5959   11.2953 C.3     1  UNL1        0.2314
     36 O          58.5395   82.1253   10.0184 O.3     1  UNL1       -0.3254
     37 C          60.3669   81.6473   11.5347 C.ar    1  UNL1        0.0410
     38 C          61.1799   82.4355   10.6901 C.ar    1  UNL1        0.0022
     39 C          62.5582   82.5206   10.8937 C.ar    1  UNL1        0.0113
     40 C          63.1537   81.8392   11.9536 C.ar    1  UNL1        0.0585
     41 CL         64.8858   81.9513   12.2073 Cl      1  UNL1       -0.0822
     42 C          62.3678   81.0806   12.8216 C.ar    1  UNL1        0.0226
     43 C          60.9833   80.9854   12.6319 C.ar    1  UNL1        0.0591
     44 CL         60.0779   80.0489   13.8201 Cl      1  UNL1       -0.0824
     45 C          58.1544   82.4449   12.3746 C.3     1  UNL1        0.1893
     46 N          58.9718   83.5899   12.7789 N.ar    1  UNL1       -0.2313
     47 N          60.2378   83.4920   13.1417 N.ar    1  UNL1       -0.1532
     48 C          60.6019   84.7303   13.5280 C.ar    1  UNL1        0.1604
     49 C          61.9234   85.0429   14.1432 C.3     1  UNL1        0.0756
     50 N          59.5914   85.6233   13.4480 N.ar    1  UNL1       -0.2146
     51 C          58.5868   84.8708   12.9572 C.ar    1  UNL1        0.1381
     52 C          57.1934   85.3870   12.7793 C.3     1  UNL1        0.0734
@<TRIPOS>BOND
     1    28    29    1
     2    29    26    1
     3    26    27    1
     4    26    20    1
     5    20    21   ar
     6    21    22   ar
     7    22    23   ar
     8    23    14    1
     9    14    15   ar
    10    15    16   ar
    11    16    17   ar
    12    17     7    1
    13     7     8    1
    14     8     9    1
    15     9    10    1
    16    10     1    1
    17     1     2   ar
    18     2     3   ar
    19     3     4   ar
    20     4    30    1
    21    30    31    1
    22    31    32    1
    23    32    33    1
    24    33    34    1
    25    34    35    1
    26    35    45    1
    27    45    46    1
    28    46    47   ar
    29    47    48   ar
    30    48    49    1
    31    48    50   ar
    32    50    51   ar
    33    51    52    1
    34    35    37    1
    35    37    38   ar
    36    38    39   ar
    37    39    40   ar
    38    40    41    1
    39    40    42   ar
    40    42    43   ar
    41    43    44    1
    42    35    36    1
    43     4     5   ar
    44     5     6   ar
    45    10    11    1
    46    11    12    1
    47    11    13    1
    48    17    18   ar
    49    18    19   ar
    50    23    24   ar
    51    24    25    2
    52    24    20   ar
    53    19    14   ar
    54    13     7    1
    55     6     1   ar
    56    36    32    1
    57    51    46   ar
    58    43    37   ar
@<TRIPOS>MOLECULE
*****
 52 58 0 0 0
SMALL
GASTEIGER

@<TRIPOS>ATOM
      1 C          59.3953   85.9175   10.4435 C.ar    1  UNL1        0.0487
      2 C          59.5548   85.7978    9.0555 C.ar    1  UNL1        0.0176
      3 C          58.7121   84.9638    8.3177 C.ar    1  UNL1        0.0382
      4 C          57.7020   84.2293    8.9470 C.ar    1  UNL1        0.1388
      5 C          57.5259   84.3651   10.3385 C.ar    1  UNL1        0.0382
      6 C          58.3684   85.2004   11.0780 C.ar    1  UNL1        0.0176
      7 N          61.6160   88.5745   12.8383 N.pl3   1  UNL1       -0.3034
      8 C          61.0558   87.3701   13.4609 C.3     1  UNL1        0.1123
      9 C          60.9168   86.2560   12.4225 C.3     1  UNL1        0.1129
     10 N          60.2763   86.7669   11.2026 N.pl3   1  UNL1       -0.2968
     11 C          60.8044   87.9941   10.5880 C.3     1  UNL1        0.1503
     12 BR         62.5182   87.6268    9.7457 Br      1  UNL1       -0.0577
     13 C          60.9468   89.0961   11.6411 C.3     1  UNL1        0.1225
     14 C          64.3807   91.0185   14.9734 C.ar    1  UNL1        0.0699
     15 C          63.6190   90.0459   15.6428 C.ar    1  UNL1        0.0190
     16 C          62.7125   89.2469   14.9410 C.ar    1  UNL1        0.0160
     17 C          62.5539   89.3998   13.5554 C.ar    1  UNL1        0.0481
     18 C          63.3187   90.3666   12.8828 C.ar    1  UNL1        0.0160
     19 C          64.2252   91.1664   13.5843 C.ar    1  UNL1        0.0190
     20 N          67.1613   92.8674   16.3921 N.ar    1  UNL1       -0.2024
     21 N          66.1773   93.2795   17.1783 N.ar    1  UNL1       -0.1442
     22 C          65.0618   92.6459   16.7550 C.ar    1  UNL1        0.2073
     23 N          65.3172   91.8361   15.7018 N.ar    1  UNL1       -0.2398
     24 C          66.6378   92.0110   15.4967 C.ar    1  UNL1        0.3522
     25 O          67.2928   91.4778   14.5607 O.2     1  UNL1       -0.2444
     26 C          68.5405   93.3614   16.4549 C.3     1  UNL1        0.1099
     27 C          68.6694   94.6439   15.6225 C.3     1  UNL1        0.0265
     28 C          70.0110   92.4881   14.5524 C.3     1  UNL1        0.0021
     29 C          69.5014   92.2558   15.9749 C.3     1  UNL1        0.0245
     30 O          56.9118   83.3825    8.1506 O.3     1  UNL1       -0.4727
     31 C          57.3622   82.2081    7.4722 C.3     1  UNL1        0.2374
     32 C          58.7775   81.7930    7.8977 C.3     1  UNL1        0.1909
     33 C          59.2321   80.4606    7.3827 C.3     1  UNL1        0.1783
     34 O          60.1525   79.9993    8.3210 O.3     1  UNL1       -0.3266
     35 C          59.9678   80.7915    9.4798 C.3     1  UNL1        0.2314
     36 O          58.8857   81.6851    9.2806 O.3     1  UNL1       -0.3254
     37 C          61.2532   81.5718    9.7797 C.ar    1  UNL1        0.0410
     38 C          61.1759   82.9449   10.1026 C.ar    1  UNL1        0.0022
     39 C          62.3249   83.6791   10.4012 C.ar    1  UNL1        0.0113
     40 C          63.5725   83.0581   10.4043 C.ar    1  UNL1        0.0585
     41 CL         65.0135   83.9840   10.7830 Cl      1  UNL1       -0.0822
     42 C          63.6717   81.6956   10.1211 C.ar    1  UNL1        0.0226
     43 C          62.5285   80.9442    9.8203 C.ar    1  UNL1        0.0591
     44 CL         62.7596   79.2197    9.5354 Cl      1  UNL1       -0.0824
     45 C          59.6511   79.8823   10.6829 C.3     1  UNL1        0.1893
     46 N          60.2670   80.3774   11.9151 N.ar    1  UNL1       -0.2313
     47 N          61.4423   79.9705   12.3590 N.ar    1  UNL1       -0.1532
     48 C          61.6103   80.5765   13.5505 C.ar    1  UNL1        0.1604
     49 C          62.7536   80.2896   14.4632 C.3     1  UNL1        0.0756
     50 N          60.5574   81.3471   13.9004 N.ar    1  UNL1       -0.2146
     51 C          59.7397   81.2084   12.8381 C.ar    1  UNL1        0.1381
     52 C          58.3660   81.7997   12.7841 C.3     1  UNL1        0.0734
@<TRIPOS>BOND
     1    28    29    1
     2    29    26    1
     3    26    27    1
     4    26    20    1
     5    20    21   ar
     6    21    22   ar
     7    22    23   ar
     8    23    14    1
     9    14    15   ar
    10    15    16   ar
    11    16    17   ar
    12    17     7    1
    13     7     8    1
    14     8     9    1
    15     9    10    1
    16    10     1    1
    17     1     2   ar
    18     2     3   ar
    19     3     4   ar
    20     4    30    1
    21    30    31    1
    22    31    32    1
    23    32    33    1
    24    33    34    1
    25    34    35    1
    26    35    45    1
    27    45    46    1
    28    46    47   ar
    29    47    48   ar
    30    48    49    1
    31    48    50   ar
    32    50    51   ar
    33    51    52    1
    34    35    37    1
    35    37    38   ar
    36    38    39   ar
    37    39    40   ar
    38    40    41    1
    39    40    42   ar
    40    42    43   ar
    41    43    44    1
    42    35    36    1
    43     4     5   ar
    44     5     6   ar
    45    10    11    1
    46    11    12    1
    47    11    13    1
    48    17    18   ar
    49    18    19   ar
    50    23    24   ar
    51    24    25    2
    52    24    20   ar
    53    19    14   ar
    54    13     7    1
    55     6     1   ar
    56    36    32    1
    57    51    46   ar
    58    43    37   ar
@<TRIPOS>MOLECULE
*****
 52 58 0 0 0
SMALL
GASTEIGER

@<TRIPOS>ATOM
      1 C          60.8060   87.4445   11.4553 C.ar    1  UNL1        0.0487
      2 C          59.6681   87.0538   12.1756 C.ar    1  UNL1        0.0176
      3 C          59.7995   86.3576   13.3790 C.ar    1  UNL1        0.0382
      4 C          61.0625   86.0314   13.8831 C.ar    1  UNL1        0.1388
      5 C          62.2076   86.4425   13.1719 C.ar    1  UNL1        0.0382
      6 C          62.0773   87.1402   11.9676 C.ar    1  UNL1        0.0176
      7 N          59.9979   89.6112    7.9370 N.pl3   1  UNL1       -0.3034
      8 C          60.3489   90.3533    9.1527 C.3     1  UNL1        0.1123
      9 C          61.2351   89.4952   10.0566 C.3     1  UNL1        0.1129
     10 N          60.6657   88.1489   10.2071 N.pl3   1  UNL1       -0.2968
     11 C          60.2751   87.4077    8.9985 C.3     1  UNL1        0.1503
     12 BR         61.8629   86.8206    8.0414 Br      1  UNL1       -0.0577
     13 C          59.3970   88.2824    8.1000 C.3     1  UNL1        0.1225
     14 C          59.7569   91.5951    4.1711 C.ar    1  UNL1        0.0699
     15 C          58.6086   91.4149    4.9606 C.ar    1  UNL1        0.0190
     16 C          58.6899   90.7631    6.1940 C.ar    1  UNL1        0.0160
     17 C          59.9214   90.2843    6.6657 C.ar    1  UNL1        0.0481
     18 C          61.0717   90.4688    5.8817 C.ar    1  UNL1        0.0160
     19 C          60.9910   91.1201    4.6477 C.ar    1  UNL1        0.0190
     20 N          60.1325   93.4540    1.0782 N.ar    1  UNL1       -0.2024
     21 N          58.8843   93.0280    0.9483 N.ar    1  UNL1       -0.1442
     22 C          58.6084   92.3143    2.0616 C.ar    1  UNL1        0.2073
     23 N          59.6674   92.2720    2.9023 N.ar    1  UNL1       -0.2398
     24 C          60.6047   92.9855    2.2473 C.ar    1  UNL1        0.3522
     25 O          61.7861   93.1568    2.6529 O.2     1  UNL1       -0.2444
     26 C          60.8649   94.2112    0.0582 C.3     1  UNL1        0.1099
     27 C          59.8796   94.7786   -0.9722 C.3     1  UNL1        0.0265
     28 C          63.3497   93.8303   -0.4159 C.3     1  UNL1        0.0021
     29 C          61.9263   93.3005   -0.5900 C.3     1  UNL1        0.0245
     30 O          61.1229   85.2994   15.0815 O.3     1  UNL1       -0.4727
     31 C          62.0573   84.2613   15.3839 C.3     1  UNL1        0.2374
     32 C          62.0349   83.1325   14.3438 C.3     1  UNL1        0.1909
     33 C          63.3817   82.6838   13.8621 C.3     1  UNL1        0.1783
     34 O          63.1672   82.1968   12.5748 O.3     1  UNL1       -0.3266
     35 C          61.8949   82.6743   12.1775 C.3     1  UNL1        0.2314
     36 O          61.3631   83.5150   13.1871 O.3     1  UNL1       -0.3254
     37 C          60.9565   81.4884   11.9244 C.ar    1  UNL1        0.0410
     38 C          59.6965   81.4481   12.5619 C.ar    1  UNL1        0.0022
     39 C          58.8102   80.3934   12.3368 C.ar    1  UNL1        0.0113
     40 C          59.1507   79.3671   11.4577 C.ar    1  UNL1        0.0585
     41 CL         58.0326   78.0452   11.1757 Cl      1  UNL1       -0.0822
     42 C          60.3755   79.4009   10.7905 C.ar    1  UNL1        0.0226
     43 C          61.2759   80.4523   11.0044 C.ar    1  UNL1        0.0591
     44 CL         62.7688   80.4272   10.0668 Cl      1  UNL1       -0.0824
     45 C          62.0302   83.4829   10.8728 C.3     1  UNL1        0.1893
     46 N          60.7241   83.8144   10.3011 N.ar    1  UNL1       -0.2313
     47 N          59.6904   84.2102   11.0215 N.ar    1  UNL1       -0.1532
     48 C          58.6643   84.3195   10.1553 C.ar    1  UNL1        0.1604
     49 C          57.2644   84.6143   10.5742 C.3     1  UNL1        0.0756
     50 N          59.0043   83.9778    8.8933 N.ar    1  UNL1       -0.2146
     51 C          60.3126   83.6813    9.0229 C.ar    1  UNL1        0.1381
     52 C          61.1406   83.1384    7.9008 C.3     1  UNL1        0.0734
@<TRIPOS>BOND
     1    28    29    1
     2    29    26    1
     3    26    27    1
     4    26    20    1
     5    20    21   ar
     6    21    22   ar
     7    22    23   ar
     8    23    14    1
     9    14    15   ar
    10    15    16   ar
    11    16    17   ar
    12    17     7    1
    13     7     8    1
    14     8     9    1
    15     9    10    1
    16    10     1    1
    17     1     2   ar
    18     2     3   ar
    19     3     4   ar
    20     4    30    1
    21    30    31    1
    22    31    32    1
    23    32    33    1
    24    33    34    1
    25    34    35    1
    26    35    45    1
    27    45    46    1
    28    46    47   ar
    29    47    48   ar
    30    48    49    1
    31    48    50   ar
    32    50    51   ar
    33    51    52    1
    34    35    37    1
    35    37    38   ar
    36    38    39   ar
    37    39    40   ar
    38    40    41    1
    39    40    42   ar
    40    42    43   ar
    41    43    44    1
    42    35    36    1
    43     4     5   ar
    44     5     6   ar
    45    10    11    1
    46    11    12    1
    47    11    13    1
    48    17    18   ar
    49    18    19   ar
    50    23    24   ar
    51    24    25    2
    52    24    20   ar
    53    19    14   ar
    54    13     7    1
    55     6     1   ar
    56    36    32    1
    57    51    46   ar
    58    43    37   ar
@<TRIPOS>MOLECULE
*****
 52 58 0 0 0
SMALL
GASTEIGER

@<TRIPOS>ATOM
      1 C          59.1774   87.3892   10.1136 C.ar    1  UNL1        0.0487
      2 C          58.5705   86.1319    9.9829 C.ar    1  UNL1        0.0176
      3 C          58.3141   85.3513   11.1121 C.ar    1  UNL1        0.0382
      4 C          58.6628   85.8031   12.3888 C.ar    1  UNL1        0.1388
      5 C          59.2527   87.0757   12.5244 C.ar    1  UNL1        0.0382
      6 C          59.5091   87.8583   11.3948 C.ar    1  UNL1        0.0176
      7 N          59.6673   89.9756    6.8279 N.pl3   1  UNL1       -0.3034
      8 C          60.2188   90.3787    8.1261 C.3     1  UNL1        0.1123
      9 C          60.5674   89.1432    8.9571 C.3     1  UNL1        0.1129
     10 N          59.4539   88.1843    8.9452 N.pl3   1  UNL1       -0.2968
     11 C          58.8669   87.7991    7.6531 C.3     1  UNL1        0.1503
     12 BR         60.0994   86.6487    6.6840 Br      1  UNL1       -0.0577
     13 C          58.5324   89.0454    6.8294 C.3     1  UNL1        0.1225
     14 C          60.6035   92.1635    3.2906 C.ar    1  UNL1        0.0699
     15 C          59.3160   92.2235    3.8503 C.ar    1  UNL1        0.0190
     16 C          59.0112   91.5044    5.0091 C.ar    1  UNL1        0.0160
     17 C          59.9887   90.7163    5.6349 C.ar    1  UNL1        0.0481
     18 C          61.2780   90.6598    5.0814 C.ar    1  UNL1        0.0160
     19 C          61.5834   91.3783    3.9221 C.ar    1  UNL1        0.0190
     20 N          61.1927   93.5304   -0.0181 N.ar    1  UNL1       -0.2024
     21 N          61.5210   94.5734    0.7308 N.ar    1  UNL1       -0.1442
     22 C          61.3520   94.1878    2.0145 C.ar    1  UNL1        0.2073
     23 N          60.9129   92.9110    2.0982 N.ar    1  UNL1       -0.2398
     24 C          60.8140   92.5378    0.8069 C.ar    1  UNL1        0.3522
     25 O          60.3806   91.4200    0.4168 O.2     1  UNL1       -0.2444
     26 C          61.1623   93.5339   -1.4841 C.3     1  UNL1        0.1099
     27 C          62.5767   93.7680   -2.0308 C.3     1  UNL1        0.0265
     28 C          58.7259   94.0893   -2.0319 C.3     1  UNL1        0.0021
     29 C          60.1645   94.6030   -1.9716 C.3     1  UNL1        0.0245
     30 O          58.4085   84.9531   13.4790 O.3     1  UNL1       -0.4727
     31 C          59.2805   83.9316   13.9672 C.3     1  UNL1        0.2374
     32 C          60.4975   83.7166   13.0567 C.3     1  UNL1        0.1909
     33 C          61.5008   82.7225   13.5590 C.3     1  UNL1        0.1783
     34 O          62.7182   83.1219   13.0125 O.3     1  UNL1       -0.3266
     35 C          62.5311   84.4490   12.5559 C.3     1  UNL1        0.2314
     36 O          61.2262   84.8901   12.8900 O.3     1  UNL1       -0.3254
     37 C          62.7386   84.5046   11.0377 C.ar    1  UNL1        0.0410
     38 C          62.0230   85.4506   10.2705 C.ar    1  UNL1        0.0022
     39 C          62.2043   85.5414    8.8895 C.ar    1  UNL1        0.0113
     40 C          63.1158   84.7066    8.2457 C.ar    1  UNL1        0.0585
     41 CL         63.3424   84.8262    6.5103 Cl      1  UNL1       -0.0822
     42 C          63.8589   83.7865    8.9858 C.ar    1  UNL1        0.0226
     43 C          63.6897   83.6832   10.3724 C.ar    1  UNL1        0.0591
     44 CL         64.7204   82.5293   11.2179 Cl      1  UNL1       -0.0824
     45 C          63.5607   85.3774   13.2284 C.3     1  UNL1        0.1893
     46 N          63.0796   86.7578   13.3042 N.ar    1  UNL1       -0.2313
     47 N          63.2508   87.6451   12.3411 N.ar    1  UNL1       -0.1532
     48 C          62.7617   88.8040   12.8237 C.ar    1  UNL1        0.1604
     49 C          62.8776   90.1057   12.1064 C.3     1  UNL1        0.0756
     50 N          62.3009   88.6928   14.0887 N.ar    1  UNL1       -0.2146
     51 C          62.5037   87.3863   14.3501 C.ar    1  UNL1        0.1381
     52 C          62.2446   86.7733   15.6905 C.3     1  UNL1        0.0734
@<TRIPOS>BOND
     1    28    29    1
     2    29    26    1
     3    26    27    1
     4    26    20    1
     5    20    21   ar
     6    21    22   ar
     7    22    23   ar
     8    23    14    1
     9    14    15   ar
    10    15    16   ar
    11    16    17   ar
    12    17     7    1
    13     7     8    1
    14     8     9    1
    15     9    10    1
    16    10     1    1
    17     1     2   ar
    18     2     3   ar
    19     3     4   ar
    20     4    30    1
    21    30    31    1
    22    31    32    1
    23    32    33    1
    24    33    34    1
    25    34    35    1
    26    35    45    1
    27    45    46    1
    28    46    47   ar
    29    47    48   ar
    30    48    49    1
    31    48    50   ar
    32    50    51   ar
    33    51    52    1
    34    35    37    1
    35    37    38   ar
    36    38    39   ar
    37    39    40   ar
    38    40    41    1
    39    40    42   ar
    40    42    43   ar
    41    43    44    1
    42    35    36    1
    43     4     5   ar
    44     5     6   ar
    45    10    11    1
    46    11    12    1
    47    11    13    1
    48    17    18   ar
    49    18    19   ar
    50    23    24   ar
    51    24    25    2
    52    24    20   ar
    53    19    14   ar
    54    13     7    1
    55     6     1   ar
    56    36    32    1
    57    51    46   ar
    58    43    37   ar
