@<TRIPOS>MOLECULE
*****
 58 62 0 0 0
SMALL
GASTEIGER

@<TRIPOS>ATOM
      1 C          51.0110   10.9255  -26.7909 C.ar    1  UNL1        0.0548
      2 C          52.2118   11.4729  -26.3187 C.ar    1  UNL1        0.0077
      3 C          52.1974   12.6120  -25.5119 C.ar    1  UNL1        0.0390
      4 C          50.9776   13.1940  -25.1188 C.ar    1  UNL1        0.1598
      5 C          49.7700   12.6658  -25.6110 C.ar    1  UNL1        0.0993
      6 C          49.8010   11.5575  -26.4741 C.ar    1  UNL1        0.0235
      7 N          49.8508    9.3343  -28.3849 N.am    1  UNL1       -0.3040
      8 C          51.0042    9.6855  -27.5953 C.2     1  UNL1        0.2458
      9 O          52.0376    8.9640  -27.6155 O.2     1  UNL1       -0.2701
     10 H          49.0602   10.0183  -28.3993 H       1  UNL1        0.1496
     11 C          48.5669    8.3093  -30.2131 C.3     1  UNL1        0.0196
     12 C          49.7353    8.1240  -29.2227 C.3     1  UNL1        0.0572
     13 C          51.0298    7.9054  -30.0321 C.3     1  UNL1        0.0196
     14 C          49.4399    6.8951  -28.3417 C.3     1  UNL1        0.0196
     15 N          48.5122   13.2156  -25.1832 N.pl3   1  UNL1       -0.2120
     16 H          48.4937   13.9376  -24.4291 H       1  UNL1        0.1738
     17 S          47.0108   12.4381  -25.5775 S.O2    1  UNL1        0.0745
     18 O          45.8723   13.2228  -24.9880 O.2     1  UNL1       -0.1499
     19 O          46.9880   11.0497  -25.0025 O.2     1  UNL1       -0.1499
     20 C          46.8732   12.3504  -27.3386 C.ar    1  UNL1        0.1356
     21 C          46.9223   11.0991  -27.9719 C.ar    1  UNL1        0.0207
     22 C          46.6147   10.9790  -29.3282 C.ar    1  UNL1       -0.0028
     23 C          46.2481   12.1084  -30.0715 C.ar    1  UNL1       -0.0216
     24 C          46.2685   13.3708  -29.4612 C.ar    1  UNL1        0.0085
     25 C          46.5663   13.4970  -28.0995 C.ar    1  UNL1        0.0762
     26 CL         46.5085   15.1025  -27.3791 Cl      1  UNL1       -0.0809
     27 C          45.8897   11.9693  -31.5258 C.3     1  UNL1        0.0224
     28 C          44.5436   12.5745  -31.9056 C.3     1  UNL1        0.0047
     29 C          45.8272   13.2738  -32.3111 C.3     1  UNL1        0.0047
     30 O          50.9365   14.2947  -24.2475 O.3     1  UNL1       -0.4513
     31 C          51.1352   14.2319  -22.8616 C.ar    1  UNL1        0.1580
     32 C          52.4036   13.8815  -22.3878 C.ar    1  UNL1        0.0677
     33 C          52.6525   13.7959  -21.0157 C.ar    1  UNL1        0.1398
     34 F          53.8852   13.4216  -20.5884 F       1  UNL1       -0.2044
     35 C          51.6328   14.0881  -20.0936 C.ar    1  UNL1        0.0175
     36 C          50.3631   14.4541  -20.5669 C.ar    1  UNL1        0.0130
     37 C          50.1113   14.5396  -21.9409 C.ar    1  UNL1        0.0919
     38 CL         48.5251   15.0905  -22.4663 Cl      1  UNL1       -0.0791
     39 C          51.8731   13.9563  -18.6138 C.3     1  UNL1        0.1382
     40 C          51.8233   12.5161  -18.2184 C.2     1  UNL1        0.3234
     41 O          52.8793   11.8261  -18.2255 O.2     1  UNL1       -0.2497
     42 O          50.6107   11.9634  -17.7953 O.3     1  UNL1       -0.4215
     43 C          49.7908   11.1559  -18.6358 C.3     1  UNL1        0.3207
     44 O          50.1788   11.3393  -19.9831 O.3     1  UNL1       -0.3070
     45 C          49.6061   10.3329  -20.8063 C.3     1  UNL1        0.2456
     46 C          48.0751   10.1271  -20.5550 C.3     1  UNL1        0.1781
     47 O          47.8617    8.9269  -19.8563 O.3     1  UNL1       -0.3790
     48 C          47.4812   11.2961  -19.7393 C.3     1  UNL1        0.1733
     49 O          47.4498   12.4546  -20.5358 O.3     1  UNL1       -0.3793
     50 C          48.3164   11.5815  -18.4624 C.3     1  UNL1        0.2106
     51 O          47.7515   10.9660  -17.3308 O.3     1  UNL1       -0.3766
     52 H          47.9979    8.1883  -20.5059 H       1  UNL1        0.2106
     53 H          46.6939   12.3495  -21.1711 H       1  UNL1        0.2105
     54 H          47.7265    9.9882  -17.4971 H       1  UNL1        0.2107
     55 C          49.8486   10.7062  -22.2392 C.2     1  UNL1        0.3439
     56 O          50.9076   10.3408  -22.8164 O.2     1  UNL1       -0.2475
     57 O          48.8832   11.4163  -22.9469 O.3     1  UNL1       -0.4785
     58 H          49.0259   11.6593  -23.9198 H       1  UNL1        0.2951
@<TRIPOS>BOND
     1    11    12    1
     2    12    13    1
     3    12    14    1
     4    12     7    1
     5     7     8   am
     6     8     9    2
     7     8     1    1
     8     1     2   ar
     9     2     3   ar
    10     3     4   ar
    11     4    30    1
    12    30    31    1
    13    31    32   ar
    14    32    33   ar
    15    33    34    1
    16    33    35   ar
    17    35    39    1
    18    39    40    1
    19    40    41    2
    20    40    42    1
    21    42    43    1
    22    43    44    1
    23    44    45    1
    24    45    55    1
    25    55    56    2
    26    55    57    1
    27    45    46    1
    28    46    47    1
    29    46    48    1
    30    48    49    1
    31    48    50    1
    32    50    51    1
    33    35    36   ar
    34    36    37   ar
    35    37    38    1
    36     4     5   ar
    37     5    15    1
    38    15    17    1
    39    17    18    2
    40    17    19    2
    41    17    20    1
    42    20    21   ar
    43    21    22   ar
    44    22    23   ar
    45    23    27    1
    46    27    28    1
    47    28    29    1
    48    23    24   ar
    49    24    25   ar
    50    25    26    1
    51     5     6   ar
    52     6     1   ar
    53    37    31   ar
    54    25    20   ar
    55    50    43    1
    56    29    27    1
    57     7    10    1
    58    57    58    1
    59    47    52    1
    60    49    53    1
    61    51    54    1
    62    15    16    1
@<TRIPOS>MOLECULE
*****
 58 62 0 0 0
SMALL
GASTEIGER

@<TRIPOS>ATOM
      1 C          50.3980   12.2788  -17.6024 C.ar    1  UNL1        0.0548
      2 C          51.5174   12.7544  -18.2991 C.ar    1  UNL1        0.0077
      3 C          51.5351   12.7443  -19.6948 C.ar    1  UNL1        0.0390
      4 C          50.4112   12.3070  -20.4207 C.ar    1  UNL1        0.1598
      5 C          49.2949   11.8033  -19.7281 C.ar    1  UNL1        0.0993
      6 C          49.3146   11.7593  -18.3239 C.ar    1  UNL1        0.0235
      7 N          49.3171   13.1146  -15.4690 N.am    1  UNL1       -0.3040
      8 C          50.3379   12.3385  -16.1269 C.2     1  UNL1        0.2458
      9 O          51.1640   11.6655  -15.4535 O.2     1  UNL1       -0.2701
     10 H          48.6054   13.5765  -16.0799 H       1  UNL1        0.1496
     11 C          50.5227   13.6421  -13.3929 C.3     1  UNL1        0.0196
     12 C          49.1639   13.2448  -14.0063 C.3     1  UNL1        0.0572
     13 C          48.1372   14.3453  -13.6696 C.3     1  UNL1        0.0196
     14 C          48.7265   11.8991  -13.3967 C.3     1  UNL1        0.0196
     15 N          48.1192   11.3969  -20.4490 N.pl3   1  UNL1       -0.2120
     16 H          47.2279   11.9266  -20.3245 H       1  UNL1        0.1738
     17 S          48.0172    9.8315  -21.1928 S.O2    1  UNL1        0.0745
     18 O          46.5890    9.5483  -21.5664 O.2     1  UNL1       -0.1499
     19 O          48.4815    8.7765  -20.2284 O.2     1  UNL1       -0.1499
     20 C          49.0581    9.8239  -22.6226 C.ar    1  UNL1        0.1356
     21 C          50.1053    8.8936  -22.7075 C.ar    1  UNL1        0.0207
     22 C          50.8105    8.7277  -23.9006 C.ar    1  UNL1       -0.0028
     23 C          50.4760    9.4863  -25.0296 C.ar    1  UNL1       -0.0216
     24 C          49.4797   10.4681  -24.9291 C.ar    1  UNL1        0.0085
     25 C          48.7620   10.6328  -23.7389 C.ar    1  UNL1        0.0762
     26 CL         47.4782   11.8370  -23.6997 Cl      1  UNL1       -0.0809
     27 C          51.2199    9.2833  -26.3212 C.3     1  UNL1        0.0224
     28 C          50.3932    9.5445  -27.5746 C.3     1  UNL1        0.0047
     29 C          51.4520   10.5431  -27.1468 C.3     1  UNL1        0.0047
     30 O          50.3782   12.3580  -21.8238 O.3     1  UNL1       -0.4513
     31 C          50.3016   13.5323  -22.5848 C.ar    1  UNL1        0.1580
     32 C          49.3796   14.5122  -22.2029 C.ar    1  UNL1        0.0677
     33 C          49.2569   15.6974  -22.9324 C.ar    1  UNL1        0.1398
     34 F          48.3300   16.6143  -22.5551 F       1  UNL1       -0.2044
     35 C          50.0813   15.9289  -24.0470 C.ar    1  UNL1        0.0175
     36 C          51.0175   14.9531  -24.4234 C.ar    1  UNL1        0.0130
     37 C          51.1413   13.7648  -23.6946 C.ar    1  UNL1        0.0919
     38 CL         52.3949   12.6236  -24.1655 Cl      1  UNL1       -0.0791
     39 C          49.9296   17.1803  -24.8692 C.3     1  UNL1        0.1382
     40 C          50.3903   16.9269  -26.2679 C.2     1  UNL1        0.3234
     41 O          51.4929   17.3974  -26.6608 O.2     1  UNL1       -0.2497
     42 O          49.6138   16.1255  -27.1103 O.3     1  UNL1       -0.4215
     43 C          48.2993   15.6907  -26.7730 C.3     1  UNL1        0.3207
     44 O          48.0820   14.4002  -27.3086 O.3     1  UNL1       -0.3070
     45 C          46.9204   13.8145  -26.7371 C.3     1  UNL1        0.2456
     46 C          45.6835   14.7733  -26.7337 C.3     1  UNL1        0.1781
     47 O          45.4410   15.2373  -25.4297 O.3     1  UNL1       -0.3790
     48 C          45.9135   15.9845  -27.6636 C.3     1  UNL1        0.1733
     49 O          45.8940   15.5569  -29.0031 O.3     1  UNL1       -0.3793
     50 C          47.2722   16.6762  -27.3722 C.3     1  UNL1        0.2106
     51 O          47.1103   17.7948  -26.5350 O.3     1  UNL1       -0.3766
     52 H          45.0354   14.4829  -24.9273 H       1  UNL1        0.2106
     53 H          44.9439   15.3951  -29.2422 H       1  UNL1        0.2105
     54 H          46.7100   17.4815  -25.6829 H       1  UNL1        0.2107
     55 C          46.6022   12.5638  -27.5024 C.2     1  UNL1        0.3439
     56 O          46.7681   11.4356  -26.9658 O.2     1  UNL1       -0.2475
     57 O          46.0787   12.6489  -28.7892 O.3     1  UNL1       -0.4785
     58 H          45.8424   11.8131  -29.3104 H       1  UNL1        0.2951
@<TRIPOS>BOND
     1    11    12    1
     2    12    13    1
     3    12    14    1
     4    12     7    1
     5     7     8   am
     6     8     9    2
     7     8     1    1
     8     1     2   ar
     9     2     3   ar
    10     3     4   ar
    11     4    30    1
    12    30    31    1
    13    31    32   ar
    14    32    33   ar
    15    33    34    1
    16    33    35   ar
    17    35    39    1
    18    39    40    1
    19    40    41    2
    20    40    42    1
    21    42    43    1
    22    43    44    1
    23    44    45    1
    24    45    55    1
    25    55    56    2
    26    55    57    1
    27    45    46    1
    28    46    47    1
    29    46    48    1
    30    48    49    1
    31    48    50    1
    32    50    51    1
    33    35    36   ar
    34    36    37   ar
    35    37    38    1
    36     4     5   ar
    37     5    15    1
    38    15    17    1
    39    17    18    2
    40    17    19    2
    41    17    20    1
    42    20    21   ar
    43    21    22   ar
    44    22    23   ar
    45    23    27    1
    46    27    28    1
    47    28    29    1
    48    23    24   ar
    49    24    25   ar
    50    25    26    1
    51     5     6   ar
    52     6     1   ar
    53    37    31   ar
    54    25    20   ar
    55    50    43    1
    56    29    27    1
    57     7    10    1
    58    57    58    1
    59    47    52    1
    60    49    53    1
    61    51    54    1
    62    15    16    1
@<TRIPOS>MOLECULE
*****
 58 62 0 0 0
SMALL
GASTEIGER

@<TRIPOS>ATOM
      1 C          48.1926   11.9026  -19.1526 C.ar    1  UNL1        0.0548
      2 C          46.8075   11.7137  -19.2545 C.ar    1  UNL1        0.0077
      3 C          46.1774   11.7780  -20.4985 C.ar    1  UNL1        0.0390
      4 C          46.9295   11.9801  -21.6710 C.ar    1  UNL1        0.1598
      5 C          48.3161   12.1972  -21.5732 C.ar    1  UNL1        0.0993
      6 C          48.9290   12.1937  -20.3089 C.ar    1  UNL1        0.0235
      7 N          48.6137   12.7124  -16.7893 N.am    1  UNL1       -0.3040
      8 C          48.8842   11.7776  -17.8524 C.2     1  UNL1        0.2458
      9 O          49.6793   10.8163  -17.6726 O.2     1  UNL1       -0.2701
     10 H          47.8771   13.4327  -16.9675 H       1  UNL1        0.1496
     11 C          48.8338   13.9497  -14.6769 C.3     1  UNL1        0.0196
     12 C          49.2448   12.6823  -15.4548 C.3     1  UNL1        0.0572
     13 C          48.7673   11.4483  -14.6625 C.3     1  UNL1        0.0196
     14 C          50.7792   12.6694  -15.5938 C.3     1  UNL1        0.0196
     15 N          49.1089   12.3575  -22.7619 N.pl3   1  UNL1       -0.2120
     16 H          48.7536   12.9514  -23.5438 H       1  UNL1        0.1738
     17 S          50.4288   11.2856  -23.1132 S.O2    1  UNL1        0.0745
     18 O          50.5113   10.2291  -22.0471 O.2     1  UNL1       -0.1499
     19 O          51.7201   12.0541  -23.1312 O.2     1  UNL1       -0.1499
     20 C          50.1510   10.5601  -24.7020 C.ar    1  UNL1        0.1356
     21 C          49.1271   11.0629  -25.5194 C.ar    1  UNL1        0.0207
     22 C          49.0154   10.6517  -26.8487 C.ar    1  UNL1       -0.0028
     23 C          49.9296    9.7346  -27.3830 C.ar    1  UNL1       -0.0216
     24 C          50.9093    9.1744  -26.5506 C.ar    1  UNL1        0.0085
     25 C          51.0330    9.5895  -25.2198 C.ar    1  UNL1        0.0762
     26 CL         52.3268    8.8964  -24.2475 Cl      1  UNL1       -0.0809
     27 C          49.8223    9.3166  -28.8240 C.3     1  UNL1        0.0224
     28 C          49.7611    7.8095  -29.0421 C.3     1  UNL1        0.0047
     29 C          48.5095    8.6489  -29.2150 C.3     1  UNL1        0.0047
     30 O          46.3271   11.9739  -22.9396 O.3     1  UNL1       -0.4513
     31 C          46.2259   13.0848  -23.7880 C.ar    1  UNL1        0.1580
     32 C          46.7296   14.3104  -23.3402 C.ar    1  UNL1        0.0677
     33 C          46.6459   15.4506  -24.1431 C.ar    1  UNL1        0.1398
     34 F          47.1145   16.6320  -23.6665 F       1  UNL1       -0.2044
     35 C          46.0759   15.3709  -25.4254 C.ar    1  UNL1        0.0175
     36 C          45.5831   14.1388  -25.8826 C.ar    1  UNL1        0.0130
     37 C          45.6649   12.9955  -25.0795 C.ar    1  UNL1        0.0919
     38 CL         45.1104   11.4651  -25.7470 Cl      1  UNL1       -0.0791
     39 C          45.9379   16.5997  -26.2834 C.3     1  UNL1        0.1382
     40 C          46.5016   16.3352  -27.6418 C.2     1  UNL1        0.3234
     41 O          46.0362   15.3952  -28.3427 O.2     1  UNL1       -0.2497
     42 O          47.5072   17.1689  -28.1405 O.3     1  UNL1       -0.4215
     43 C          48.7875   17.2928  -27.5271 C.3     1  UNL1        0.3207
     44 O          48.8891   16.3642  -26.4656 O.3     1  UNL1       -0.3070
     45 C          50.2392   16.2417  -26.0403 C.3     1  UNL1        0.2456
     46 C          50.9431   17.6213  -25.8150 C.3     1  UNL1        0.1781
     47 O          51.8529   17.8703  -26.8564 O.3     1  UNL1       -0.3790
     48 C          49.9135   18.7710  -25.7611 C.3     1  UNL1        0.1733
     49 O          49.1662   18.6752  -24.5738 O.3     1  UNL1       -0.3793
     50 C          48.9458   18.7260  -26.9739 C.3     1  UNL1        0.2106
     51 O          49.3544   19.6084  -27.9903 O.3     1  UNL1       -0.3766
     52 H          52.6385   17.2843  -26.6976 H       1  UNL1        0.2106
     53 H          49.7497   18.9960  -23.8371 H       1  UNL1        0.2105
     54 H          50.2626   19.3360  -28.2825 H       1  UNL1        0.2107
     55 C          50.2597   15.4384  -24.7732 C.2     1  UNL1        0.3439
     56 O          50.0151   15.9943  -23.6690 O.2     1  UNL1       -0.2475
     57 O          50.5024   14.0687  -24.8208 O.3     1  UNL1       -0.4785
     58 H          50.5013   13.5111  -23.9752 H       1  UNL1        0.2951
@<TRIPOS>BOND
     1    11    12    1
     2    12    13    1
     3    12    14    1
     4    12     7    1
     5     7     8   am
     6     8     9    2
     7     8     1    1
     8     1     2   ar
     9     2     3   ar
    10     3     4   ar
    11     4    30    1
    12    30    31    1
    13    31    32   ar
    14    32    33   ar
    15    33    34    1
    16    33    35   ar
    17    35    39    1
    18    39    40    1
    19    40    41    2
    20    40    42    1
    21    42    43    1
    22    43    44    1
    23    44    45    1
    24    45    55    1
    25    55    56    2
    26    55    57    1
    27    45    46    1
    28    46    47    1
    29    46    48    1
    30    48    49    1
    31    48    50    1
    32    50    51    1
    33    35    36   ar
    34    36    37   ar
    35    37    38    1
    36     4     5   ar
    37     5    15    1
    38    15    17    1
    39    17    18    2
    40    17    19    2
    41    17    20    1
    42    20    21   ar
    43    21    22   ar
    44    22    23   ar
    45    23    27    1
    46    27    28    1
    47    28    29    1
    48    23    24   ar
    49    24    25   ar
    50    25    26    1
    51     5     6   ar
    52     6     1   ar
    53    37    31   ar
    54    25    20   ar
    55    50    43    1
    56    29    27    1
    57     7    10    1
    58    57    58    1
    59    47    52    1
    60    49    53    1
    61    51    54    1
    62    15    16    1
@<TRIPOS>MOLECULE
*****
 58 62 0 0 0
SMALL
GASTEIGER

@<TRIPOS>ATOM
      1 C          48.1290   14.5380  -25.7171 C.ar    1  UNL1        0.0548
      2 C          46.8008   14.3518  -25.3102 C.ar    1  UNL1        0.0077
      3 C          46.4361   13.2081  -24.5978 C.ar    1  UNL1        0.0390
      4 C          47.4046   12.2540  -24.2331 C.ar    1  UNL1        0.1598
      5 C          48.7343   12.4213  -24.6614 C.ar    1  UNL1        0.0993
      6 C          49.0761   13.5449  -25.4326 C.ar    1  UNL1        0.0235
      7 N          48.5161   17.0416  -25.7394 N.am    1  UNL1       -0.3040
      8 C          48.5444   15.7708  -26.4186 C.2     1  UNL1        0.2458
      9 O          48.9657   15.6877  -27.6037 O.2     1  UNL1       -0.2701
     10 H          48.2444   17.0335  -24.7297 H       1  UNL1        0.1496
     11 C          48.4032   19.4788  -25.4405 C.3     1  UNL1        0.0196
     12 C          48.9073   18.3319  -26.3411 C.3     1  UNL1        0.0572
     13 C          50.4428   18.4329  -26.4443 C.3     1  UNL1        0.0196
     14 C          48.2653   18.4844  -27.7333 C.3     1  UNL1        0.0196
     15 N          49.7474   11.4838  -24.2590 N.pl3   1  UNL1       -0.2120
     16 H          49.5269   10.7636  -23.5357 H       1  UNL1        0.1738
     17 S          51.4225   11.7593  -24.6228 S.O2    1  UNL1        0.0745
     18 O          52.2763   11.0785  -23.5898 O.2     1  UNL1       -0.1499
     19 O          51.7156   13.2331  -24.5951 O.2     1  UNL1       -0.1499
     20 C          51.7552   11.1211  -26.2383 C.ar    1  UNL1        0.1356
     21 C          52.5423   11.8704  -27.1263 C.ar    1  UNL1        0.0207
     22 C          52.9890   11.3089  -28.3236 C.ar    1  UNL1       -0.0028
     23 C          52.6597    9.9869  -28.6494 C.ar    1  UNL1       -0.0216
     24 C          51.8135    9.2589  -27.8006 C.ar    1  UNL1        0.0085
     25 C          51.3702    9.8122  -26.5940 C.ar    1  UNL1        0.0762
     26 CL         50.3652    8.8208  -25.5418 Cl      1  UNL1       -0.0809
     27 C          53.1675    9.3770  -29.9273 C.3     1  UNL1        0.0224
     28 C          54.1506    8.2288  -29.7326 C.3     1  UNL1        0.0047
     29 C          52.7316    7.9395  -30.1838 C.3     1  UNL1        0.0047
     30 O          47.0743   11.1340  -23.4529 O.3     1  UNL1       -0.4513
     31 C          47.2218   11.0505  -22.0618 C.ar    1  UNL1        0.1580
     32 C          46.4465   11.8944  -21.2599 C.ar    1  UNL1        0.0677
     33 C          46.5613   11.8575  -19.8680 C.ar    1  UNL1        0.1398
     34 F          45.8187   12.7121  -19.1194 F       1  UNL1       -0.2044
     35 C          47.4422   10.9490  -19.2562 C.ar    1  UNL1        0.0175
     36 C          48.2105   10.0910  -20.0584 C.ar    1  UNL1        0.0130
     37 C          48.0978   10.1270  -21.4529 C.ar    1  UNL1        0.0919
     38 CL         49.0222    8.9641  -22.3955 Cl      1  UNL1       -0.0791
     39 C          47.6099   10.9290  -17.7607 C.3     1  UNL1        0.1382
     40 C          48.8941   11.5946  -17.3857 C.2     1  UNL1        0.3234
     41 O          49.8206   10.9200  -16.8587 O.2     1  UNL1       -0.2497
     42 O          49.0713   12.9518  -17.6716 O.3     1  UNL1       -0.4215
     43 C          50.0163   13.4266  -18.6267 C.3     1  UNL1        0.3207
     44 O          49.3339   13.8370  -19.7952 O.3     1  UNL1       -0.3070
     45 C          50.1953   14.5951  -20.6331 C.3     1  UNL1        0.2456
     46 C          51.5909   13.9221  -20.8540 C.3     1  UNL1        0.1781
     47 O          52.5746   14.6087  -20.1224 O.3     1  UNL1       -0.3790
     48 C          51.5743   12.4434  -20.4093 C.3     1  UNL1        0.1733
     49 O          50.7912   11.6937  -21.3050 O.3     1  UNL1       -0.3793
     50 C          50.9967   12.2859  -18.9771 C.3     1  UNL1        0.2106
     51 O          52.0207   12.1986  -18.0168 O.3     1  UNL1       -0.3766
     52 H          52.7505   15.4585  -20.6049 H       1  UNL1        0.2106
     53 H          51.3314   11.5699  -22.1290 H       1  UNL1        0.2105
     54 H          52.5564   13.0323  -18.0668 H       1  UNL1        0.2107
     55 C          49.5063   14.7995  -21.9501 C.2     1  UNL1        0.3439
     56 O          48.2564   14.6634  -22.0368 O.2     1  UNL1       -0.2475
     57 O          50.2405   15.1859  -23.0676 O.3     1  UNL1       -0.4785
     58 H          49.7857   15.3449  -23.9587 H       1  UNL1        0.2951
@<TRIPOS>BOND
     1    11    12    1
     2    12    13    1
     3    12    14    1
     4    12     7    1
     5     7     8   am
     6     8     9    2
     7     8     1    1
     8     1     2   ar
     9     2     3   ar
    10     3     4   ar
    11     4    30    1
    12    30    31    1
    13    31    32   ar
    14    32    33   ar
    15    33    34    1
    16    33    35   ar
    17    35    39    1
    18    39    40    1
    19    40    41    2
    20    40    42    1
    21    42    43    1
    22    43    44    1
    23    44    45    1
    24    45    55    1
    25    55    56    2
    26    55    57    1
    27    45    46    1
    28    46    47    1
    29    46    48    1
    30    48    49    1
    31    48    50    1
    32    50    51    1
    33    35    36   ar
    34    36    37   ar
    35    37    38    1
    36     4     5   ar
    37     5    15    1
    38    15    17    1
    39    17    18    2
    40    17    19    2
    41    17    20    1
    42    20    21   ar
    43    21    22   ar
    44    22    23   ar
    45    23    27    1
    46    27    28    1
    47    28    29    1
    48    23    24   ar
    49    24    25   ar
    50    25    26    1
    51     5     6   ar
    52     6     1   ar
    53    37    31   ar
    54    25    20   ar
    55    50    43    1
    56    29    27    1
    57     7    10    1
    58    57    58    1
    59    47    52    1
    60    49    53    1
    61    51    54    1
    62    15    16    1
@<TRIPOS>MOLECULE
*****
 58 62 0 0 0
SMALL
GASTEIGER

@<TRIPOS>ATOM
      1 C          48.8038   11.2478  -20.4252 C.ar    1  UNL1        0.0548
      2 C          47.5350   10.7653  -20.7743 C.ar    1  UNL1        0.0077
      3 C          47.1353   10.7376  -22.1115 C.ar    1  UNL1        0.0390
      4 C          48.0183   11.1431  -23.1300 C.ar    1  UNL1        0.1598
      5 C          49.2831   11.6535  -22.7847 C.ar    1  UNL1        0.0993
      6 C          49.6493   11.7359  -21.4307 C.ar    1  UNL1        0.0235
      7 N          48.9329   12.3082  -18.1280 N.am    1  UNL1       -0.3040
      8 C          49.2661   11.2276  -19.0215 C.2     1  UNL1        0.2458
      9 O          49.9170   10.2312  -18.6063 O.2     1  UNL1       -0.2701
     10 H          48.3138   13.0615  -18.5054 H       1  UNL1        0.1496
     11 C          48.7437   13.6723  -16.0920 C.3     1  UNL1        0.0196
     12 C          49.3404   12.3913  -16.7113 C.3     1  UNL1        0.0572
     13 C          48.8057   11.1762  -15.9263 C.3     1  UNL1        0.0196
     14 C          50.8756   12.4652  -16.6043 C.3     1  UNL1        0.0196
     15 N          50.2172   12.0276  -23.8116 N.pl3   1  UNL1       -0.2120
     16 H          49.9177   12.6803  -24.5697 H       1  UNL1        0.1738
     17 S          51.6786   11.1262  -24.0690 S.O2    1  UNL1        0.0745
     18 O          51.6110    9.8358  -23.3009 O.2     1  UNL1       -0.1499
     19 O          52.8594   11.9169  -23.5800 O.2     1  UNL1       -0.1499
     20 C          51.8487   10.8217  -25.8028 C.ar    1  UNL1        0.1356
     21 C          52.6953   11.6402  -26.5662 C.ar    1  UNL1        0.0207
     22 C          53.0068   11.3032  -27.8844 C.ar    1  UNL1       -0.0028
     23 C          52.4802   10.1390  -28.4586 C.ar    1  UNL1       -0.0216
     24 C          51.5765    9.3573  -27.7247 C.ar    1  UNL1        0.0085
     25 C          51.2676    9.6840  -26.3993 C.ar    1  UNL1        0.0762
     26 CL         50.1782    8.6233  -25.5117 Cl      1  UNL1       -0.0809
     27 C          52.8419    9.7650  -29.8700 C.3     1  UNL1        0.0224
     28 C          53.9668    8.7432  -29.9847 C.3     1  UNL1        0.0047
     29 C          52.5356    8.3250  -30.2635 C.3     1  UNL1        0.0047
     30 O          47.6651   11.0536  -24.4862 O.3     1  UNL1       -0.4513
     31 C          47.1495   12.1060  -25.2548 C.ar    1  UNL1        0.1580
     32 C          46.6200   13.2166  -24.5897 C.ar    1  UNL1        0.0677
     33 C          46.0855   14.2888  -25.3084 C.ar    1  UNL1        0.1398
     34 F          45.5497   15.3372  -24.6330 F       1  UNL1       -0.2044
     35 C          46.0988   14.2734  -26.7137 C.ar    1  UNL1        0.0175
     36 C          46.6430   13.1663  -27.3833 C.ar    1  UNL1        0.0130
     37 C          47.1781   12.0907  -26.6654 C.ar    1  UNL1        0.0919
     38 CL         47.9251   10.7759  -27.5646 Cl      1  UNL1       -0.0791
     39 C          45.4861   15.4002  -27.5011 C.3     1  UNL1        0.1382
     40 C          46.2628   16.6567  -27.2762 C.2     1  UNL1        0.3234
     41 O          45.8716   17.4912  -26.4148 O.2     1  UNL1       -0.2497
     42 O          47.4459   16.8680  -27.9908 O.3     1  UNL1       -0.4215
     43 C          48.7007   17.1098  -27.3600 C.3     1  UNL1        0.3207
     44 O          48.8043   16.3057  -26.2016 O.3     1  UNL1       -0.3070
     45 C          50.1441   16.2854  -25.7292 C.3     1  UNL1        0.2456
     46 C          50.7874   17.7091  -25.6360 C.3     1  UNL1        0.1781
     47 O          51.7193   17.8822  -26.6733 O.3     1  UNL1       -0.3790
     48 C          49.7136   18.8145  -25.7353 C.3     1  UNL1        0.1733
     49 O          48.9336   18.8161  -24.5652 O.3     1  UNL1       -0.3793
     50 C          48.7868   18.5995  -26.9618 C.3     1  UNL1        0.2106
     51 O          49.1932   19.3836  -28.0565 O.3     1  UNL1       -0.3766
     52 H          52.5213   17.3495  -26.4306 H       1  UNL1        0.2106
     53 H          49.4811   19.2380  -23.8522 H       1  UNL1        0.2105
     54 H          50.1198   19.1192  -28.2927 H       1  UNL1        0.2107
     55 C          50.1555   15.6245  -24.3822 C.2     1  UNL1        0.3439
     56 O          49.3157   15.9629  -23.5056 O.2     1  UNL1       -0.2475
     57 O          51.0629   14.6036  -24.1151 O.3     1  UNL1       -0.4785
     58 H          51.0698   14.1364  -23.2163 H       1  UNL1        0.2951
@<TRIPOS>BOND
     1    11    12    1
     2    12    13    1
     3    12    14    1
     4    12     7    1
     5     7     8   am
     6     8     9    2
     7     8     1    1
     8     1     2   ar
     9     2     3   ar
    10     3     4   ar
    11     4    30    1
    12    30    31    1
    13    31    32   ar
    14    32    33   ar
    15    33    34    1
    16    33    35   ar
    17    35    39    1
    18    39    40    1
    19    40    41    2
    20    40    42    1
    21    42    43    1
    22    43    44    1
    23    44    45    1
    24    45    55    1
    25    55    56    2
    26    55    57    1
    27    45    46    1
    28    46    47    1
    29    46    48    1
    30    48    49    1
    31    48    50    1
    32    50    51    1
    33    35    36   ar
    34    36    37   ar
    35    37    38    1
    36     4     5   ar
    37     5    15    1
    38    15    17    1
    39    17    18    2
    40    17    19    2
    41    17    20    1
    42    20    21   ar
    43    21    22   ar
    44    22    23   ar
    45    23    27    1
    46    27    28    1
    47    28    29    1
    48    23    24   ar
    49    24    25   ar
    50    25    26    1
    51     5     6   ar
    52     6     1   ar
    53    37    31   ar
    54    25    20   ar
    55    50    43    1
    56    29    27    1
    57     7    10    1
    58    57    58    1
    59    47    52    1
    60    49    53    1
    61    51    54    1
    62    15    16    1
@<TRIPOS>MOLECULE
*****
 58 62 0 0 0
SMALL
GASTEIGER

@<TRIPOS>ATOM
      1 C          48.9005   11.6862  -17.7212 C.ar    1  UNL1        0.0548
      2 C          47.9579   11.0271  -18.5222 C.ar    1  UNL1        0.0077
      3 C          48.1789   10.8783  -19.8924 C.ar    1  UNL1        0.0390
      4 C          49.3727   11.3398  -20.4781 C.ar    1  UNL1        0.1598
      5 C          50.3108   12.0258  -19.6851 C.ar    1  UNL1        0.0993
      6 C          50.0474   12.2254  -18.3195 C.ar    1  UNL1        0.0235
      7 N          49.3530   12.8570  -15.5206 N.am    1  UNL1       -0.3040
      8 C          48.7114   11.7991  -16.2597 C.2     1  UNL1        0.2458
      9 O          47.9459   10.9845  -15.6773 O.2     1  UNL1       -0.2701
     10 H          49.9015   13.5556  -16.0723 H       1  UNL1        0.1496
     11 C          48.3092   14.2707  -13.8020 C.3     1  UNL1        0.0196
     12 C          49.2344   13.0640  -14.0635 C.3     1  UNL1        0.0572
     13 C          48.6148   11.8210  -13.3930 C.3     1  UNL1        0.0196
     14 C          50.6176   13.3672  -13.4563 C.3     1  UNL1        0.0196
     15 N          51.5572   12.4623  -20.2537 N.pl3   1  UNL1       -0.2120
     16 H          52.4537   12.0517  -19.9102 H       1  UNL1        0.1738
     17 S          51.6568   13.9234  -21.1863 S.O2    1  UNL1        0.0745
     18 O          52.8459   14.7242  -20.7342 O.2     1  UNL1       -0.1499
     19 O          50.4157   14.7458  -20.9814 O.2     1  UNL1       -0.1499
     20 C          51.8009   13.4868  -22.8941 C.ar    1  UNL1        0.1356
     21 C          52.6128   12.4029  -23.2618 C.ar    1  UNL1        0.0207
     22 C          52.5872   11.9096  -24.5674 C.ar    1  UNL1       -0.0028
     23 C          51.7452   12.4897  -25.5248 C.ar    1  UNL1       -0.0216
     24 C          50.9870   13.6183  -25.1815 C.ar    1  UNL1        0.0085
     25 C          51.0003   14.1119  -23.8720 C.ar    1  UNL1        0.0762
     26 CL         49.9739   15.4905  -23.4904 Cl      1  UNL1       -0.0809
     27 C          51.7000   11.9361  -26.9227 C.3     1  UNL1        0.0224
     28 C          53.0528   11.5031  -27.4751 C.3     1  UNL1        0.0047
     29 C          52.0402   10.4562  -27.0510 C.3     1  UNL1        0.0047
     30 O          49.6495   11.1346  -21.8396 O.3     1  UNL1       -0.4513
     31 C          48.8254   11.5395  -22.8983 C.ar    1  UNL1        0.1580
     32 C          47.9872   12.6421  -22.7032 C.ar    1  UNL1        0.0677
     33 C          47.1396   13.0814  -23.7233 C.ar    1  UNL1        0.1398
     34 F          46.3147   14.1340  -23.4914 F       1  UNL1       -0.2044
     35 C          47.1403   12.4328  -24.9702 C.ar    1  UNL1        0.0175
     36 C          47.9914   11.3352  -25.1730 C.ar    1  UNL1        0.0130
     37 C          48.8405   10.8928  -24.1523 C.ar    1  UNL1        0.0919
     38 CL         49.9458    9.5692  -24.5009 Cl      1  UNL1       -0.0791
     39 C          46.2006   12.8661  -26.0630 C.3     1  UNL1        0.1382
     40 C          46.9033   13.7986  -26.9955 C.2     1  UNL1        0.3234
     41 O          46.4399   13.9979  -28.1517 O.2     1  UNL1       -0.2497
     42 O          48.0418   14.4797  -26.5542 O.3     1  UNL1       -0.4215
     43 C          48.2819   15.8554  -26.8383 C.3     1  UNL1        0.3207
     44 O          49.5431   16.2270  -26.3180 O.3     1  UNL1       -0.3070
     45 C          49.9478   17.4825  -26.8459 C.3     1  UNL1        0.2456
     46 C          48.8273   18.5728  -26.7734 C.3     1  UNL1        0.1781
     47 O          48.3013   18.8046  -28.0555 O.3     1  UNL1       -0.3790
     48 C          47.6836   18.1361  -25.8321 C.3     1  UNL1        0.1733
     49 O          48.1383   18.1567  -24.5016 O.3     1  UNL1       -0.3793
     50 C          47.1793   16.7082  -26.1731 C.3     1  UNL1        0.2106
     51 O          46.0281   16.7489  -26.9804 O.3     1  UNL1       -0.3766
     52 H          48.9792   19.3328  -28.5528 H       1  UNL1        0.2106
     53 H          48.1732   19.1089  -24.2217 H       1  UNL1        0.2105
     54 H          46.2613   17.2256  -27.8187 H       1  UNL1        0.2107
     55 C          51.1615   17.9383  -26.0907 C.2     1  UNL1        0.3439
     56 O          52.2803   17.9949  -26.6682 O.2     1  UNL1       -0.2475
     57 O          51.0448   18.3444  -24.7646 O.3     1  UNL1       -0.4785
     58 H          51.8526   18.6715  -24.2483 H       1  UNL1        0.2951
@<TRIPOS>BOND
     1    11    12    1
     2    12    13    1
     3    12    14    1
     4    12     7    1
     5     7     8   am
     6     8     9    2
     7     8     1    1
     8     1     2   ar
     9     2     3   ar
    10     3     4   ar
    11     4    30    1
    12    30    31    1
    13    31    32   ar
    14    32    33   ar
    15    33    34    1
    16    33    35   ar
    17    35    39    1
    18    39    40    1
    19    40    41    2
    20    40    42    1
    21    42    43    1
    22    43    44    1
    23    44    45    1
    24    45    55    1
    25    55    56    2
    26    55    57    1
    27    45    46    1
    28    46    47    1
    29    46    48    1
    30    48    49    1
    31    48    50    1
    32    50    51    1
    33    35    36   ar
    34    36    37   ar
    35    37    38    1
    36     4     5   ar
    37     5    15    1
    38    15    17    1
    39    17    18    2
    40    17    19    2
    41    17    20    1
    42    20    21   ar
    43    21    22   ar
    44    22    23   ar
    45    23    27    1
    46    27    28    1
    47    28    29    1
    48    23    24   ar
    49    24    25   ar
    50    25    26    1
    51     5     6   ar
    52     6     1   ar
    53    37    31   ar
    54    25    20   ar
    55    50    43    1
    56    29    27    1
    57     7    10    1
    58    57    58    1
    59    47    52    1
    60    49    53    1
    61    51    54    1
    62    15    16    1
@<TRIPOS>MOLECULE
*****
 58 62 0 0 0
SMALL
GASTEIGER

@<TRIPOS>ATOM
      1 C          52.0836    9.3555  -28.6285 C.ar    1  UNL1        0.0548
      2 C          50.8180    8.7854  -28.8229 C.ar    1  UNL1        0.0077
      3 C          49.7566    9.1230  -27.9815 C.ar    1  UNL1        0.0390
      4 C          49.9286   10.0782  -26.9620 C.ar    1  UNL1        0.1598
      5 C          51.2026   10.6341  -26.7443 C.ar    1  UNL1        0.0993
      6 C          52.2779   10.2382  -27.5574 C.ar    1  UNL1        0.0235
      7 N          54.0855    7.9478  -29.2835 N.am    1  UNL1       -0.3040
      8 C          53.2025    9.0560  -29.5466 C.2     1  UNL1        0.2458
      9 O          53.3454    9.7557  -30.5853 O.2     1  UNL1       -0.2701
     10 H          53.8612    7.3490  -28.4563 H       1  UNL1        0.1496
     11 C          56.0258    6.4448  -29.4174 C.3     1  UNL1        0.0196
     12 C          55.2311    7.5589  -30.1299 C.3     1  UNL1        0.0572
     13 C          54.7370    7.0140  -31.4855 C.3     1  UNL1        0.0196
     14 C          56.1652    8.7651  -30.3453 C.3     1  UNL1        0.0196
     15 N          51.3883   11.6463  -25.7402 N.pl3   1  UNL1       -0.2120
     16 H          51.4442   12.6501  -26.0224 H       1  UNL1        0.1738
     17 S          51.9290   11.2379  -24.1416 S.O2    1  UNL1        0.0745
     18 O          52.8465   12.3152  -23.6345 O.2     1  UNL1       -0.1499
     19 O          52.6830    9.9383  -24.1738 O.2     1  UNL1       -0.1499
     20 C          50.5108   11.0724  -23.0980 C.ar    1  UNL1        0.1356
     21 C          50.0209   12.1979  -22.4178 C.ar    1  UNL1        0.0207
     22 C          48.7941   12.1461  -21.7540 C.ar    1  UNL1       -0.0028
     23 C          48.0353   10.9686  -21.7641 C.ar    1  UNL1       -0.0216
     24 C          48.5540    9.8205  -22.3799 C.ar    1  UNL1        0.0085
     25 C          49.7786    9.8682  -23.0557 C.ar    1  UNL1        0.0762
     26 CL         50.3411    8.4095  -23.8653 Cl      1  UNL1       -0.0809
     27 C          46.7006   10.9266  -21.0716 C.3     1  UNL1        0.0224
     28 C          46.6973   11.5222  -19.6687 C.3     1  UNL1        0.0047
     29 C          46.0552   12.2827  -20.8134 C.3     1  UNL1        0.0047
     30 O          48.8572   10.4883  -26.1520 O.3     1  UNL1       -0.4513
     31 C          48.0397   11.5992  -26.4004 C.ar    1  UNL1        0.1580
     32 C          48.0328   12.6407  -25.4668 C.ar    1  UNL1        0.0677
     33 C          47.2292   13.7667  -25.6622 C.ar    1  UNL1        0.1398
     34 F          47.2203   14.7451  -24.7216 F       1  UNL1       -0.2044
     35 C          46.4361   13.8762  -26.8174 C.ar    1  UNL1        0.0175
     36 C          46.4527   12.8388  -27.7628 C.ar    1  UNL1        0.0130
     37 C          47.2562   11.7095  -27.5686 C.ar    1  UNL1        0.0919
     38 CL         47.2989   10.4878  -28.8339 Cl      1  UNL1       -0.0791
     39 C          45.5314   15.0618  -27.0197 C.3     1  UNL1        0.1382
     40 C          46.3242   16.3253  -26.9310 C.2     1  UNL1        0.3234
     41 O          46.0355   17.1877  -26.0568 O.2     1  UNL1       -0.2497
     42 O          47.4122   16.5130  -27.7889 O.3     1  UNL1       -0.4215
     43 C          48.7107   16.8758  -27.3274 C.3     1  UNL1        0.3207
     44 O          49.0459   16.0840  -26.2049 O.3     1  UNL1       -0.3070
     45 C          50.4326   16.1945  -25.9154 C.3     1  UNL1        0.2456
     46 C          50.9415   17.6743  -25.8880 C.3     1  UNL1        0.1781
     47 O          51.7048   17.9394  -27.0375 O.3     1  UNL1       -0.3790
     48 C          49.7619   18.6691  -25.8272 C.3     1  UNL1        0.1733
     49 O          49.1492   18.5925  -24.5638 O.3     1  UNL1       -0.3793
     50 C          48.7045   18.3662  -26.9224 C.3     1  UNL1        0.2106
     51 O          48.8826   19.1880  -28.0500 O.3     1  UNL1       -0.3766
     52 H          52.5800   17.4876  -26.9115 H       1  UNL1        0.2106
     53 H          49.7437   19.0650  -23.9240 H       1  UNL1        0.2105
     54 H          49.7905   19.0160  -28.4112 H       1  UNL1        0.2107
     55 C          50.6882   15.5358  -24.5918 C.2     1  UNL1        0.3439
     56 O          50.3806   16.1272  -23.5222 O.2     1  UNL1       -0.2475
     57 O          51.2220   14.2513  -24.5446 O.3     1  UNL1       -0.4785
     58 H          51.3829   13.7876  -23.6585 H       1  UNL1        0.2951
@<TRIPOS>BOND
     1    11    12    1
     2    12    13    1
     3    12    14    1
     4    12     7    1
     5     7     8   am
     6     8     9    2
     7     8     1    1
     8     1     2   ar
     9     2     3   ar
    10     3     4   ar
    11     4    30    1
    12    30    31    1
    13    31    32   ar
    14    32    33   ar
    15    33    34    1
    16    33    35   ar
    17    35    39    1
    18    39    40    1
    19    40    41    2
    20    40    42    1
    21    42    43    1
    22    43    44    1
    23    44    45    1
    24    45    55    1
    25    55    56    2
    26    55    57    1
    27    45    46    1
    28    46    47    1
    29    46    48    1
    30    48    49    1
    31    48    50    1
    32    50    51    1
    33    35    36   ar
    34    36    37   ar
    35    37    38    1
    36     4     5   ar
    37     5    15    1
    38    15    17    1
    39    17    18    2
    40    17    19    2
    41    17    20    1
    42    20    21   ar
    43    21    22   ar
    44    22    23   ar
    45    23    27    1
    46    27    28    1
    47    28    29    1
    48    23    24   ar
    49    24    25   ar
    50    25    26    1
    51     5     6   ar
    52     6     1   ar
    53    37    31   ar
    54    25    20   ar
    55    50    43    1
    56    29    27    1
    57     7    10    1
    58    57    58    1
    59    47    52    1
    60    49    53    1
    61    51    54    1
    62    15    16    1
@<TRIPOS>MOLECULE
*****
 58 62 0 0 0
SMALL
GASTEIGER

@<TRIPOS>ATOM
      1 C          51.4032    7.8596  -30.1011 C.ar    1  UNL1        0.0548
      2 C          50.2396    7.4008  -30.7335 C.ar    1  UNL1        0.0077
      3 C          48.9832    7.7831  -30.2603 C.ar    1  UNL1        0.0390
      4 C          48.8683    8.6747  -29.1772 C.ar    1  UNL1        0.1598
      5 C          50.0314    9.1177  -28.5210 C.ar    1  UNL1        0.0993
      6 C          51.2881    8.6749  -28.9671 C.ar    1  UNL1        0.0235
      7 N          53.9294    7.9247  -29.9208 N.am    1  UNL1       -0.3040
      8 C          52.7412    7.5141  -30.6256 C.2     1  UNL1        0.2458
      9 O          52.8265    6.8177  -31.6727 O.2     1  UNL1       -0.2701
     10 H          53.7931    8.4207  -29.0106 H       1  UNL1        0.1496
     11 C          56.1942    8.8687  -30.0664 C.3     1  UNL1        0.0196
     12 C          55.3116    7.6359  -30.3522 C.3     1  UNL1        0.0572
     13 C          55.8803    6.4371  -29.5660 C.3     1  UNL1        0.0196
     14 C          55.3462    7.3494  -31.8656 C.3     1  UNL1        0.0196
     15 N          49.9379   10.0657  -27.4441 N.pl3   1  UNL1       -0.2120
     16 H          49.3241   10.9043  -27.5458 H       1  UNL1        0.1738
     17 S          51.1071   10.0861  -26.1607 S.O2    1  UNL1        0.0745
     18 O          51.8503   11.3925  -26.1832 O.2     1  UNL1       -0.1499
     19 O          52.0927    8.9674  -26.3497 O.2     1  UNL1       -0.1499
     20 C          50.2552    9.8698  -24.6260 C.ar    1  UNL1        0.1356
     21 C          50.3301    8.6343  -23.9647 C.ar    1  UNL1        0.0207
     22 C          49.8428    8.4964  -22.6639 C.ar    1  UNL1       -0.0028
     23 C          49.2770    9.5937  -22.0020 C.ar    1  UNL1       -0.0216
     24 C          49.1336   10.8104  -22.6844 C.ar    1  UNL1        0.0085
     25 C          49.6290   10.9584  -23.9850 C.ar    1  UNL1        0.0762
     26 CL         49.4773   12.5316  -24.7606 Cl      1  UNL1       -0.0809
     27 C          48.7795    9.4472  -20.5901 C.3     1  UNL1        0.0224
     28 C          49.7507    9.9389  -19.5235 C.3     1  UNL1        0.0047
     29 C          48.5140   10.7537  -19.8518 C.3     1  UNL1        0.0047
     30 O          47.6172    9.1314  -28.7319 O.3     1  UNL1       -0.4513
     31 C          47.0922   10.4073  -28.9776 C.ar    1  UNL1        0.1580
     32 C          46.8170   10.7687  -30.3004 C.ar    1  UNL1        0.0677
     33 C          46.3010   12.0318  -30.6008 C.ar    1  UNL1        0.1398
     34 F          46.0755   12.3638  -31.8974 F       1  UNL1       -0.2044
     35 C          46.0274   12.9463  -29.5691 C.ar    1  UNL1        0.0175
     36 C          46.2890   12.5803  -28.2396 C.ar    1  UNL1        0.0130
     37 C          46.8068   11.3159  -27.9365 C.ar    1  UNL1        0.0919
     38 CL         47.0275   10.8879  -26.2443 Cl      1  UNL1       -0.0791
     39 C          45.5142   14.3264  -29.8807 C.3     1  UNL1        0.1382
     40 C          45.7038   15.2171  -28.6960 C.2     1  UNL1        0.3234
     41 O          44.7316   15.8872  -28.2521 O.2     1  UNL1       -0.2497
     42 O          46.9491   15.2573  -28.0615 O.3     1  UNL1       -0.4215
     43 C          47.2864   16.2288  -27.0750 C.3     1  UNL1        0.3207
     44 O          48.3073   17.0690  -27.5762 O.3     1  UNL1       -0.3070
     45 C          48.4468   18.2229  -26.7589 C.3     1  UNL1        0.2456
     46 C          48.5187   17.8920  -25.2309 C.3     1  UNL1        0.1781
     47 O          47.3120   18.2499  -24.6063 O.3     1  UNL1       -0.3790
     48 C          48.7791   16.3880  -24.9970 C.3     1  UNL1        0.1733
     49 O          50.0949   16.0750  -25.3822 O.3     1  UNL1       -0.3793
     50 C          47.7909   15.5063  -25.8066 C.3     1  UNL1        0.2106
     51 O          46.7095   15.0843  -25.0122 O.3     1  UNL1       -0.3766
     52 H          47.3080   19.2403  -24.5355 H       1  UNL1        0.2106
     53 H          50.6951   16.4176  -24.6692 H       1  UNL1        0.2105
     54 H          46.2380   15.8938  -24.6854 H       1  UNL1        0.2107
     55 C          49.6852   18.9533  -27.1880 C.2     1  UNL1        0.3439
     56 O          50.7983   18.6673  -26.6706 O.2     1  UNL1       -0.2475
     57 O          49.6141   19.9148  -28.1917 O.3     1  UNL1       -0.4785
     58 H          50.4451   20.4027  -28.5038 H       1  UNL1        0.2951
@<TRIPOS>BOND
     1    11    12    1
     2    12    13    1
     3    12    14    1
     4    12     7    1
     5     7     8   am
     6     8     9    2
     7     8     1    1
     8     1     2   ar
     9     2     3   ar
    10     3     4   ar
    11     4    30    1
    12    30    31    1
    13    31    32   ar
    14    32    33   ar
    15    33    34    1
    16    33    35   ar
    17    35    39    1
    18    39    40    1
    19    40    41    2
    20    40    42    1
    21    42    43    1
    22    43    44    1
    23    44    45    1
    24    45    55    1
    25    55    56    2
    26    55    57    1
    27    45    46    1
    28    46    47    1
    29    46    48    1
    30    48    49    1
    31    48    50    1
    32    50    51    1
    33    35    36   ar
    34    36    37   ar
    35    37    38    1
    36     4     5   ar
    37     5    15    1
    38    15    17    1
    39    17    18    2
    40    17    19    2
    41    17    20    1
    42    20    21   ar
    43    21    22   ar
    44    22    23   ar
    45    23    27    1
    46    27    28    1
    47    28    29    1
    48    23    24   ar
    49    24    25   ar
    50    25    26    1
    51     5     6   ar
    52     6     1   ar
    53    37    31   ar
    54    25    20   ar
    55    50    43    1
    56    29    27    1
    57     7    10    1
    58    57    58    1
    59    47    52    1
    60    49    53    1
    61    51    54    1
    62    15    16    1
@<TRIPOS>MOLECULE
*****
 58 62 0 0 0
SMALL
GASTEIGER

@<TRIPOS>ATOM
      1 C          49.8895   14.5458  -25.1890 C.ar    1  UNL1        0.0548
      2 C          50.9097   13.7243  -25.6880 C.ar    1  UNL1        0.0077
      3 C          50.6952   12.3546  -25.8505 C.ar    1  UNL1        0.0390
      4 C          49.4377   11.7895  -25.5664 C.ar    1  UNL1        0.1598
      5 C          48.4179   12.6033  -25.0399 C.ar    1  UNL1        0.0993
      6 C          48.6667   13.9686  -24.8208 C.ar    1  UNL1        0.0235
      7 N          49.4381   16.9048  -25.9950 N.am    1  UNL1       -0.3040
      8 C          50.0792   16.0065  -25.0680 C.2     1  UNL1        0.2458
      9 O          50.7727   16.4564  -24.1164 O.2     1  UNL1       -0.2701
     10 H          48.8022   16.4773  -26.7064 H       1  UNL1        0.1496
     11 C          49.3834   18.9201  -27.4012 C.3     1  UNL1        0.0196
     12 C          49.5578   18.3762  -25.9679 C.3     1  UNL1        0.0572
     13 C          48.4575   18.9884  -25.0775 C.3     1  UNL1        0.0196
     14 C          50.9519   18.7857  -25.4553 C.3     1  UNL1        0.0196
     15 N          47.1125   12.0555  -24.7885 N.pl3   1  UNL1       -0.2120
     16 H          47.0226   11.1410  -24.2926 H       1  UNL1        0.1738
     17 S          45.7131   12.6452  -25.6301 S.O2    1  UNL1        0.0745
     18 O          45.4316   14.0583  -25.2017 O.2     1  UNL1       -0.1499
     19 O          44.5203   11.7939  -25.2971 O.2     1  UNL1       -0.1499
     20 C          46.0309   12.5630  -27.3679 C.ar    1  UNL1        0.1356
     21 C          46.2359   11.3131  -27.9723 C.ar    1  UNL1        0.0207
     22 C          46.2856   11.1981  -29.3625 C.ar    1  UNL1       -0.0028
     23 C          46.1260   12.3311  -30.1707 C.ar    1  UNL1       -0.0216
     24 C          45.9941   13.5918  -29.5708 C.ar    1  UNL1        0.0085
     25 C          45.9335   13.7130  -28.1778 C.ar    1  UNL1        0.0762
     26 CL         45.6991   15.3168  -27.4902 Cl      1  UNL1       -0.0809
     27 C          46.1515   12.1977  -31.6688 C.3     1  UNL1        0.0224
     28 C          44.8238   12.5003  -32.3531 C.3     1  UNL1        0.0047
     29 C          45.9644   13.4963  -32.4440 C.3     1  UNL1        0.0047
     30 O          49.1766   10.4283  -25.7930 O.3     1  UNL1       -0.4513
     31 C          49.6712    9.6826  -26.8715 C.ar    1  UNL1        0.1580
     32 C          48.8495    9.5068  -27.9896 C.ar    1  UNL1        0.0677
     33 C          49.2908    8.7646  -29.0879 C.ar    1  UNL1        0.1398
     34 F          48.4571    8.5850  -30.1439 F       1  UNL1       -0.2044
     35 C          50.5810    8.2072  -29.0908 C.ar    1  UNL1        0.0175
     36 C          51.4128    8.3947  -27.9759 C.ar    1  UNL1        0.0130
     37 C          50.9724    9.1369  -26.8742 C.ar    1  UNL1        0.0919
     38 CL         52.0961    9.4096  -25.5482 Cl      1  UNL1       -0.0791
     39 C          51.0535    7.3676  -30.2471 C.3     1  UNL1        0.1382
     40 C          51.8061    8.2190  -31.2175 C.2     1  UNL1        0.3234
     41 O          51.3027    8.4826  -32.3437 O.2     1  UNL1       -0.2497
     42 O          53.0414    8.7564  -30.8429 O.3     1  UNL1       -0.4215
     43 C          54.1619    7.9512  -30.4864 C.3     1  UNL1        0.3207
     44 O          55.2576    8.7880  -30.1722 O.3     1  UNL1       -0.3070
     45 C          56.2787    8.0454  -29.5204 C.3     1  UNL1        0.2456
     46 C          56.6261    6.7037  -30.2474 C.3     1  UNL1        0.1781
     47 O          56.1111    5.6176  -29.5197 O.3     1  UNL1       -0.3790
     48 C          56.0401    6.6749  -31.6759 C.3     1  UNL1        0.1733
     49 O          56.7388    7.5865  -32.4872 O.3     1  UNL1       -0.3793
     50 C          54.5325    7.0446  -31.6805 C.3     1  UNL1        0.2106
     51 O          53.7216    5.8954  -31.7020 O.3     1  UNL1       -0.3766
     52 H          56.6948    5.5019  -28.7249 H       1  UNL1        0.2106
     53 H          57.6142    7.1705  -32.7034 H       1  UNL1        0.2105
     54 H          53.9282    5.3623  -30.8911 H       1  UNL1        0.2107
     55 C          57.4995    8.9123  -29.4252 C.2     1  UNL1        0.3439
     56 O          58.6367    8.4318  -29.6791 O.2     1  UNL1       -0.2475
     57 O          57.3731   10.2603  -29.1024 O.3     1  UNL1       -0.4785
     58 H          58.1870   10.8612  -29.0523 H       1  UNL1        0.2951
@<TRIPOS>BOND
     1    11    12    1
     2    12    13    1
     3    12    14    1
     4    12     7    1
     5     7     8   am
     6     8     9    2
     7     8     1    1
     8     1     2   ar
     9     2     3   ar
    10     3     4   ar
    11     4    30    1
    12    30    31    1
    13    31    32   ar
    14    32    33   ar
    15    33    34    1
    16    33    35   ar
    17    35    39    1
    18    39    40    1
    19    40    41    2
    20    40    42    1
    21    42    43    1
    22    43    44    1
    23    44    45    1
    24    45    55    1
    25    55    56    2
    26    55    57    1
    27    45    46    1
    28    46    47    1
    29    46    48    1
    30    48    49    1
    31    48    50    1
    32    50    51    1
    33    35    36   ar
    34    36    37   ar
    35    37    38    1
    36     4     5   ar
    37     5    15    1
    38    15    17    1
    39    17    18    2
    40    17    19    2
    41    17    20    1
    42    20    21   ar
    43    21    22   ar
    44    22    23   ar
    45    23    27    1
    46    27    28    1
    47    28    29    1
    48    23    24   ar
    49    24    25   ar
    50    25    26    1
    51     5     6   ar
    52     6     1   ar
    53    37    31   ar
    54    25    20   ar
    55    50    43    1
    56    29    27    1
    57     7    10    1
    58    57    58    1
    59    47    52    1
    60    49    53    1
    61    51    54    1
    62    15    16    1
