@<TRIPOS>MOLECULE
*****
 41 45 0 0 0
SMALL
GASTEIGER

@<TRIPOS>ATOM
      1 C         -62.5411  -43.1156  -22.1072 C.ar    1  UNL1        0.0450
      2 C         -62.6961  -44.2312  -21.2721 C.ar    1  UNL1        0.0085
      3 C         -62.5202  -45.5209  -21.7832 C.ar    1  UNL1        0.0052
      4 C         -62.1922  -45.6937  -23.1338 C.ar    1  UNL1        0.0529
      5 C         -62.0405  -44.5788  -23.9779 C.ar    1  UNL1        0.1407
      6 C         -62.2112  -43.2913  -23.4585 C.ar    1  UNL1        0.0452
      7 O         -61.7014  -44.7462  -25.3373 O.3     1  UNL1       -0.4770
      8 C         -61.6581  -46.0118  -26.0327 C.3     1  UNL1        0.1673
      9 C         -62.8724  -46.0937  -26.9652 C.3     1  UNL1        0.0498
     10 C         -60.3602  -46.0711  -26.8463 C.3     1  UNL1        0.0498
     11 C         -61.7017  -47.1616  -25.0531 C.ar    1  UNL1        0.0891
     12 N         -61.6007  -48.4717  -25.3224 N.ar    1  UNL1       -0.3380
     13 C         -61.8044  -49.0792  -24.1296 C.ar    1  UNL1        0.1417
     14 N         -62.0482  -48.2065  -23.1199 N.ar    1  UNL1       -0.2271
     15 C         -61.9798  -47.0086  -23.7303 C.ar    1  UNL1        0.1005
     16 H         -61.4468  -48.9190  -26.2532 H       1  UNL1        0.1672
     17 C         -61.7944  -50.5523  -23.9442 C.ar    1  UNL1        0.0531
     18 C         -62.9870  -51.3032  -24.0941 C.ar    1  UNL1        0.0720
     19 C         -62.9674  -52.6930  -23.9201 C.ar    1  UNL1        0.0104
     20 C         -61.7800  -53.3472  -23.5962 C.ar    1  UNL1        0.0014
     21 C         -60.6009  -52.6209  -23.4389 C.ar    1  UNL1        0.0104
     22 C         -60.5962  -51.2302  -23.6071 C.ar    1  UNL1        0.0720
     23 C         -64.2357  -50.6794  -24.4657 C.1     1  UNL1        0.1005
     24 N         -65.2362  -50.1794  -24.7631 N.1     1  UNL1       -0.1908
     25 C         -59.3601  -50.5200  -23.3750 C.1     1  UNL1        0.1005
     26 N         -58.3696  -49.9508  -23.1895 N.1     1  UNL1       -0.1908
     27 C         -62.8756  -40.6816  -21.1304 C.1     1  UNL1       -0.0598
     28 C         -62.7200  -41.7907  -21.5760 C.1     1  UNL1       -0.0597
     29 C         -63.3869  -36.7287  -19.6263 C.ar    1  UNL1       -0.0225
     30 C         -62.6033  -36.9797  -20.7623 C.ar    1  UNL1       -0.0037
     31 C         -62.4464  -38.2798  -21.2413 C.ar    1  UNL1        0.0079
     32 C         -63.0683  -39.3547  -20.5963 C.ar    1  UNL1        0.0458
     33 C         -63.8639  -39.1279  -19.4486 C.ar    1  UNL1        0.0787
     34 C         -64.0133  -37.8086  -18.9761 C.ar    1  UNL1        0.0002
     35 C         -64.5459  -40.2801  -18.7360 C.3     1  UNL1        0.4191
     36 F         -63.6467  -41.2667  -18.3692 F       1  UNL1       -0.1658
     37 F         -65.1692  -39.8143  -17.5924 F       1  UNL1       -0.1658
     38 F         -65.4935  -40.8455  -19.5703 F       1  UNL1       -0.1658
     39 C         -62.2612  -34.8107  -18.4473 C.3     1  UNL1        0.0047
     40 C         -63.5476  -35.3076  -19.1176 C.3     1  UNL1        0.0223
     41 C         -64.7457  -35.1918  -18.1677 C.3     1  UNL1        0.0047
@<TRIPOS>BOND
     1    39    40    1
     2    40    41    1
     3    40    29    1
     4    29    30   ar
     5    30    31   ar
     6    31    32   ar
     7    32    27    1
     8    27    28    3
     9    28     1    1
    10     1     2   ar
    11     2     3   ar
    12     3     4   ar
    13     4     5   ar
    14     5     6   ar
    15     5     7    1
    16     7     8    1
    17     8     9    1
    18     8    10    1
    19     8    11    1
    20    11    12   ar
    21    12    13   ar
    22    13    17    1
    23    17    18   ar
    24    18    23    1
    25    23    24    3
    26    18    19   ar
    27    19    20   ar
    28    20    21   ar
    29    21    22   ar
    30    22    25    1
    31    25    26    3
    32    13    14   ar
    33    14    15   ar
    34    32    33   ar
    35    33    35    1
    36    35    36    1
    37    35    37    1
    38    35    38    1
    39    33    34   ar
    40    34    29   ar
    41     6     1   ar
    42    15    11   ar
    43    15     4    1
    44    22    17   ar
    45    12    16    1
@<TRIPOS>MOLECULE
*****
 41 45 0 0 0
SMALL
GASTEIGER

@<TRIPOS>ATOM
      1 C         -62.5344  -43.1174  -22.0971 C.ar    1  UNL1        0.0450
      2 C         -62.6932  -44.2304  -21.2594 C.ar    1  UNL1        0.0085
      3 C         -62.5175  -45.5218  -21.7663 C.ar    1  UNL1        0.0052
      4 C         -62.1857  -45.6989  -23.1155 C.ar    1  UNL1        0.0529
      5 C         -62.0301  -44.5865  -23.9622 C.ar    1  UNL1        0.1407
      6 C         -62.2008  -43.2973  -23.4469 C.ar    1  UNL1        0.0452
      7 O         -61.6873  -44.7582  -25.3201 O.3     1  UNL1       -0.4770
      8 C         -61.6434  -46.0258  -26.0118 C.3     1  UNL1        0.1673
      9 C         -62.8551  -46.1088  -26.9476 C.3     1  UNL1        0.0498
     10 C         -60.3432  -46.0889  -26.8214 C.3     1  UNL1        0.0498
     11 C         -61.6915  -47.1727  -25.0291 C.ar    1  UNL1        0.0891
     12 N         -61.5913  -48.4837  -25.2944 N.ar    1  UNL1       -0.3380
     13 C         -61.7993  -49.0876  -24.1005 C.ar    1  UNL1        0.1417
     14 N         -62.0450  -48.2117  -23.0941 N.ar    1  UNL1       -0.2271
     15 C         -61.9732  -47.0156  -23.7076 C.ar    1  UNL1        0.1005
     16 H         -61.4352  -48.9338  -26.2235 H       1  UNL1        0.1672
     17 C         -61.7917  -50.5602  -23.9110 C.ar    1  UNL1        0.0531
     18 C         -60.5908  -51.2355  -23.5788 C.ar    1  UNL1        0.0720
     19 C         -60.5939  -52.6247  -23.3990 C.ar    1  UNL1        0.0104
     20 C         -61.7729  -53.3531  -23.5476 C.ar    1  UNL1        0.0014
     21 C         -62.9601  -52.7033  -23.8808 C.ar    1  UNL1        0.0104
     22 C         -62.9813  -51.3149  -24.0664 C.ar    1  UNL1        0.0720
     23 C         -59.3502  -50.5238  -23.3763 C.1     1  UNL1        0.1005
     24 N         -58.3565  -49.9533  -23.2138 N.1     1  UNL1       -0.1908
     25 C         -64.2250  -50.7001  -24.4680 C.1     1  UNL1        0.1005
     26 N         -65.2214  -50.2072  -24.7902 N.1     1  UNL1       -0.1908
     27 C         -62.8682  -40.6808  -21.1267 C.1     1  UNL1       -0.0598
     28 C         -62.7131  -41.7908  -21.5702 C.1     1  UNL1       -0.0597
     29 C         -63.3760  -36.7264  -19.6252 C.ar    1  UNL1       -0.0225
     30 C         -62.5912  -36.9790  -20.7601 C.ar    1  UNL1       -0.0037
     31 C         -62.4355  -38.2796  -21.2383 C.ar    1  UNL1        0.0079
     32 C         -63.0598  -39.3533  -20.5935 C.ar    1  UNL1        0.0458
     33 C         -63.8566  -39.1248  -19.4469 C.ar    1  UNL1        0.0787
     34 C         -64.0047  -37.8051  -18.9754 C.ar    1  UNL1        0.0002
     35 C         -64.5411  -40.2758  -18.7347 C.3     1  UNL1        0.4191
     36 F         -63.6445  -41.2659  -18.3711 F       1  UNL1       -0.1658
     37 F         -65.1605  -39.8095  -17.5891 F       1  UNL1       -0.1658
     38 F         -65.4923  -40.8366  -19.5680 F       1  UNL1       -0.1658
     39 C         -62.2516  -34.8121  -18.4389 C.3     1  UNL1        0.0047
     40 C         -63.5354  -35.3048  -19.1175 C.3     1  UNL1        0.0223
     41 C         -64.7392  -35.1851  -18.1752 C.3     1  UNL1        0.0047
@<TRIPOS>BOND
     1    39    40    1
     2    40    41    1
     3    40    29    1
     4    29    30   ar
     5    30    31   ar
     6    31    32   ar
     7    32    27    1
     8    27    28    3
     9    28     1    1
    10     1     2   ar
    11     2     3   ar
    12     3     4   ar
    13     4     5   ar
    14     5     6   ar
    15     5     7    1
    16     7     8    1
    17     8     9    1
    18     8    10    1
    19     8    11    1
    20    11    12   ar
    21    12    13   ar
    22    13    17    1
    23    17    18   ar
    24    18    23    1
    25    23    24    3
    26    18    19   ar
    27    19    20   ar
    28    20    21   ar
    29    21    22   ar
    30    22    25    1
    31    25    26    3
    32    13    14   ar
    33    14    15   ar
    34    32    33   ar
    35    33    35    1
    36    35    36    1
    37    35    37    1
    38    35    38    1
    39    33    34   ar
    40    34    29   ar
    41     6     1   ar
    42    15    11   ar
    43    15     4    1
    44    22    17   ar
    45    12    16    1
@<TRIPOS>MOLECULE
*****
 41 45 0 0 0
SMALL
GASTEIGER

@<TRIPOS>ATOM
      1 C         -62.5322  -42.4941  -25.9804 C.ar    1  UNL1        0.0450
      2 C         -63.7267  -41.9157  -25.5286 C.ar    1  UNL1        0.0085
      3 C         -63.9294  -41.6995  -24.1620 C.ar    1  UNL1        0.0052
      4 C         -62.9354  -42.0664  -23.2460 C.ar    1  UNL1        0.0529
      5 C         -61.7370  -42.6518  -23.6927 C.ar    1  UNL1        0.1407
      6 C         -61.5380  -42.8592  -25.0617 C.ar    1  UNL1        0.0452
      7 O         -60.7283  -43.0156  -22.7755 O.3     1  UNL1       -0.4770
      8 C         -60.8708  -43.0078  -21.3379 C.3     1  UNL1        0.1673
      9 C         -60.9724  -44.4589  -20.8535 C.3     1  UNL1        0.0498
     10 C         -59.6339  -42.3329  -20.7340 C.3     1  UNL1        0.0498
     11 C         -62.1160  -42.2559  -20.9284 C.ar    1  UNL1        0.0891
     12 N         -62.5311  -41.9741  -19.6845 N.ar    1  UNL1       -0.3380
     13 C         -63.7382  -41.3850  -19.8557 C.ar    1  UNL1        0.1417
     14 N         -64.1114  -41.2993  -21.1572 N.ar    1  UNL1       -0.2271
     15 C         -63.0735  -41.8567  -21.8084 C.ar    1  UNL1        0.1005
     16 H         -62.0494  -42.2028  -18.7868 H       1  UNL1        0.1672
     17 C         -64.5869  -40.9073  -18.7350 C.ar    1  UNL1        0.0531
     18 C         -64.6246  -39.5311  -18.3986 C.ar    1  UNL1        0.0720
     19 C         -65.4305  -39.0890  -17.3416 C.ar    1  UNL1        0.0104
     20 C         -66.1974  -39.9957  -16.6117 C.ar    1  UNL1        0.0014
     21 C         -66.1651  -41.3530  -16.9268 C.ar    1  UNL1        0.0104
     22 C         -65.3661  -41.8185  -17.9791 C.ar    1  UNL1        0.0720
     23 C         -63.8787  -38.5456  -19.1464 C.1     1  UNL1        0.1005
     24 N         -63.2809  -37.7560  -19.7452 N.1     1  UNL1       -0.1908
     25 C         -65.3245  -43.2411  -18.2253 C.1     1  UNL1        0.1005
     26 N         -65.2916  -44.3811  -18.4228 N.1     1  UNL1       -0.1908
     27 C         -62.1553  -42.8998  -28.5657 C.1     1  UNL1       -0.0598
     28 C         -62.3270  -42.7117  -27.3876 C.1     1  UNL1       -0.0597
     29 C         -61.6279  -43.5276  -32.7463 C.ar    1  UNL1       -0.0225
     30 C         -62.6789  -42.7390  -32.2554 C.ar    1  UNL1       -0.0037
     31 C         -62.8371  -42.5438  -30.8838 C.ar    1  UNL1        0.0079
     32 C         -61.9496  -43.1316  -29.9754 C.ar    1  UNL1        0.0458
     33 C         -60.8814  -43.9314  -30.4452 C.ar    1  UNL1        0.0787
     34 C         -60.7342  -44.1196  -31.8340 C.ar    1  UNL1        0.0002
     35 C         -59.9094  -44.5766  -29.4760 C.3     1  UNL1        0.4191
     36 F         -59.2691  -43.6389  -28.6840 F       1  UNL1       -0.1658
     37 F         -60.5912  -45.4504  -28.6483 F       1  UNL1       -0.1658
     38 F         -58.9479  -45.2777  -30.1814 F       1  UNL1       -0.1658
     39 C         -60.1045  -43.2282  -34.7275 C.3     1  UNL1        0.0047
     40 C         -61.4697  -43.7302  -34.2423 C.3     1  UNL1        0.0223
     41 C         -62.6115  -43.0596  -35.0156 C.3     1  UNL1        0.0047
@<TRIPOS>BOND
     1    39    40    1
     2    40    41    1
     3    40    29    1
     4    29    30   ar
     5    30    31   ar
     6    31    32   ar
     7    32    27    1
     8    27    28    3
     9    28     1    1
    10     1     2   ar
    11     2     3   ar
    12     3     4   ar
    13     4     5   ar
    14     5     6   ar
    15     5     7    1
    16     7     8    1
    17     8     9    1
    18     8    10    1
    19     8    11    1
    20    11    12   ar
    21    12    13   ar
    22    13    17    1
    23    17    18   ar
    24    18    23    1
    25    23    24    3
    26    18    19   ar
    27    19    20   ar
    28    20    21   ar
    29    21    22   ar
    30    22    25    1
    31    25    26    3
    32    13    14   ar
    33    14    15   ar
    34    32    33   ar
    35    33    35    1
    36    35    36    1
    37    35    37    1
    38    35    38    1
    39    33    34   ar
    40    34    29   ar
    41     6     1   ar
    42    15    11   ar
    43    15     4    1
    44    22    17   ar
    45    12    16    1
@<TRIPOS>MOLECULE
*****
 41 45 0 0 0
SMALL
GASTEIGER

@<TRIPOS>ATOM
      1 C         -63.5634  -49.4254  -26.2229 C.ar    1  UNL1        0.0450
      2 C         -63.6732  -49.5161  -27.6177 C.ar    1  UNL1        0.0085
      3 C         -63.2897  -48.4397  -28.4239 C.ar    1  UNL1        0.0052
      4 C         -62.7987  -47.2692  -27.8319 C.ar    1  UNL1        0.0529
      5 C         -62.6910  -47.1701  -26.4330 C.ar    1  UNL1        0.1407
      6 C         -63.0701  -48.2531  -25.6328 C.ar    1  UNL1        0.0452
      7 O         -62.1889  -45.9968  -25.8312 O.3     1  UNL1       -0.4770
      8 C         -61.9190  -44.7582  -26.5241 C.3     1  UNL1        0.1673
      9 C         -63.0064  -43.7453  -26.1465 C.3     1  UNL1        0.0498
     10 C         -60.5428  -44.2478  -26.0817 C.3     1  UNL1        0.0498
     11 C         -61.9306  -44.9693  -28.0203 C.ar    1  UNL1        0.0891
     12 N         -61.6447  -44.0732  -28.9765 N.ar    1  UNL1       -0.3380
     13 C         -61.9024  -44.7221  -30.1366 C.ar    1  UNL1        0.1417
     14 N         -62.3571  -45.9868  -29.9521 N.ar    1  UNL1       -0.2271
     15 C         -62.3669  -46.1139  -28.6120 C.ar    1  UNL1        0.1005
     16 H         -61.3382  -43.0833  -28.8484 H       1  UNL1        0.1672
     17 C         -61.7361  -44.1071  -31.4778 C.ar    1  UNL1        0.0531
     18 C         -62.8356  -43.4925  -32.1274 C.ar    1  UNL1        0.0720
     19 C         -62.6686  -42.9122  -33.3914 C.ar    1  UNL1        0.0104
     20 C         -61.4251  -42.9367  -34.0207 C.ar    1  UNL1        0.0014
     21 C         -60.3366  -43.5437  -33.3968 C.ar    1  UNL1        0.0104
     22 C         -60.4796  -44.1312  -32.1332 C.ar    1  UNL1        0.0720
     23 C         -64.1355  -43.4067  -31.5034 C.1     1  UNL1        0.1005
     24 N         -65.1770  -43.3376  -31.0035 N.1     1  UNL1       -0.1908
     25 C         -59.3346  -44.7976  -31.5580 C.1     1  UNL1        0.1005
     26 N         -58.4166  -45.3314  -31.0976 N.1     1  UNL1       -0.1908
     27 C         -64.2820  -51.4709  -24.7098 C.1     1  UNL1       -0.0598
     28 C         -63.9562  -50.5364  -25.3979 C.1     1  UNL1       -0.0597
     29 C         -65.5121  -54.7849  -22.3320 C.ar    1  UNL1       -0.0225
     30 C         -66.3779  -54.1985  -23.2669 C.ar    1  UNL1       -0.0037
     31 C         -65.9591  -53.1141  -24.0372 C.ar    1  UNL1        0.0079
     32 C         -64.6684  -52.5939  -23.8896 C.ar    1  UNL1        0.0458
     33 C         -63.7761  -53.1676  -22.9535 C.ar    1  UNL1        0.0787
     34 C         -64.2134  -54.2630  -22.1822 C.ar    1  UNL1        0.0002
     35 C         -62.3733  -52.6177  -22.7795 C.3     1  UNL1        0.4191
     36 F         -61.7489  -53.1379  -21.6588 F       1  UNL1       -0.1658
     37 F         -61.6098  -52.9356  -23.8883 F       1  UNL1       -0.1658
     38 F         -62.4280  -51.2419  -22.6462 F       1  UNL1       -0.1658
     39 C         -66.5830  -57.0621  -22.3887 C.3     1  UNL1        0.0047
     40 C         -65.9834  -55.9647  -21.5013 C.3     1  UNL1        0.0223
     41 C         -66.9793  -55.5203  -20.4234 C.3     1  UNL1        0.0047
@<TRIPOS>BOND
     1    39    40    1
     2    40    41    1
     3    40    29    1
     4    29    30   ar
     5    30    31   ar
     6    31    32   ar
     7    32    27    1
     8    27    28    3
     9    28     1    1
    10     1     2   ar
    11     2     3   ar
    12     3     4   ar
    13     4     5   ar
    14     5     6   ar
    15     5     7    1
    16     7     8    1
    17     8     9    1
    18     8    10    1
    19     8    11    1
    20    11    12   ar
    21    12    13   ar
    22    13    17    1
    23    17    18   ar
    24    18    23    1
    25    23    24    3
    26    18    19   ar
    27    19    20   ar
    28    20    21   ar
    29    21    22   ar
    30    22    25    1
    31    25    26    3
    32    13    14   ar
    33    14    15   ar
    34    32    33   ar
    35    33    35    1
    36    35    36    1
    37    35    37    1
    38    35    38    1
    39    33    34   ar
    40    34    29   ar
    41     6     1   ar
    42    15    11   ar
    43    15     4    1
    44    22    17   ar
    45    12    16    1
@<TRIPOS>MOLECULE
*****
 41 45 0 0 0
SMALL
GASTEIGER

@<TRIPOS>ATOM
      1 C         -63.5563  -49.4179  -26.2260 C.ar    1  UNL1        0.0450
      2 C         -63.6702  -49.5085  -27.6205 C.ar    1  UNL1        0.0085
      3 C         -63.2873  -48.4327  -28.4277 C.ar    1  UNL1        0.0052
      4 C         -62.7928  -47.2630  -27.8371 C.ar    1  UNL1        0.0529
      5 C         -62.6810  -47.1641  -26.4385 C.ar    1  UNL1        0.1407
      6 C         -63.0596  -48.2464  -25.6373 C.ar    1  UNL1        0.0452
      7 O         -62.1754  -45.9916  -25.8381 O.3     1  UNL1       -0.4770
      8 C         -61.9055  -44.7533  -26.5318 C.3     1  UNL1        0.1673
      9 C         -62.9903  -43.7388  -26.1510 C.3     1  UNL1        0.0498
     10 C         -60.5273  -44.2451  -26.0933 C.3     1  UNL1        0.0498
     11 C         -61.9217  -44.9645  -28.0279 C.ar    1  UNL1        0.0891
     12 N         -61.6371  -44.0687  -28.9849 N.ar    1  UNL1       -0.3380
     13 C         -61.8990  -44.7172  -30.1443 C.ar    1  UNL1        0.1417
     14 N         -62.3552  -45.9812  -29.9585 N.ar    1  UNL1       -0.2271
     15 C         -62.3614  -46.1084  -28.6184 C.ar    1  UNL1        0.1005
     16 H         -61.3287  -43.0793  -28.8577 H       1  UNL1        0.1672
     17 C         -61.7356  -44.1025  -31.4859 C.ar    1  UNL1        0.0531
     18 C         -60.4806  -44.1362  -32.1435 C.ar    1  UNL1        0.0720
     19 C         -60.3366  -43.5562  -33.4104 C.ar    1  UNL1        0.0104
     20 C         -61.4214  -42.9402  -34.0321 C.ar    1  UNL1        0.0014
     21 C         -62.6599  -42.8934  -33.3945 C.ar    1  UNL1        0.0104
     22 C         -62.8277  -43.4659  -32.1270 C.ar    1  UNL1        0.0720
     23 C         -59.3348  -44.7944  -31.5599 C.1     1  UNL1        0.1005
     24 N         -58.4167  -45.3214  -31.0924 N.1     1  UNL1       -0.1908
     25 C         -64.1160  -43.3378  -31.4867 C.1     1  UNL1        0.1005
     26 N         -65.1484  -43.2346  -30.9738 N.1     1  UNL1       -0.1908
     27 C         -64.2744  -51.4625  -24.7113 C.1     1  UNL1       -0.0598
     28 C         -63.9486  -50.5284  -25.3999 C.1     1  UNL1       -0.0597
     29 C         -65.5065  -54.7750  -22.3324 C.ar    1  UNL1       -0.0225
     30 C         -66.3742  -54.1840  -23.2626 C.ar    1  UNL1       -0.0037
     31 C         -65.9548  -53.1002  -24.0333 C.ar    1  UNL1        0.0079
     32 C         -64.6614  -52.5851  -23.8909 C.ar    1  UNL1        0.0458
     33 C         -63.7672  -53.1635  -22.9595 C.ar    1  UNL1        0.0787
     34 C         -64.2052  -54.2583  -22.1877 C.ar    1  UNL1        0.0002
     35 C         -62.3616  -52.6192  -22.7910 C.3     1  UNL1        0.4191
     36 F         -62.3525  -51.2409  -22.6616 F       1  UNL1       -0.1658
     37 F         -61.7857  -53.1651  -21.6579 F       1  UNL1       -0.1658
     38 F         -61.5985  -52.9563  -23.8945 F       1  UNL1       -0.1658
     39 C         -66.5750  -57.0533  -22.3885 C.3     1  UNL1        0.0047
     40 C         -65.9787  -55.9541  -21.5012 C.3     1  UNL1        0.0223
     41 C         -66.9777  -55.5092  -20.4264 C.3     1  UNL1        0.0047
@<TRIPOS>BOND
     1    39    40    1
     2    40    41    1
     3    40    29    1
     4    29    30   ar
     5    30    31   ar
     6    31    32   ar
     7    32    27    1
     8    27    28    3
     9    28     1    1
    10     1     2   ar
    11     2     3   ar
    12     3     4   ar
    13     4     5   ar
    14     5     6   ar
    15     5     7    1
    16     7     8    1
    17     8     9    1
    18     8    10    1
    19     8    11    1
    20    11    12   ar
    21    12    13   ar
    22    13    17    1
    23    17    18   ar
    24    18    23    1
    25    23    24    3
    26    18    19   ar
    27    19    20   ar
    28    20    21   ar
    29    21    22   ar
    30    22    25    1
    31    25    26    3
    32    13    14   ar
    33    14    15   ar
    34    32    33   ar
    35    33    35    1
    36    35    36    1
    37    35    37    1
    38    35    38    1
    39    33    34   ar
    40    34    29   ar
    41     6     1   ar
    42    15    11   ar
    43    15     4    1
    44    22    17   ar
    45    12    16    1
@<TRIPOS>MOLECULE
*****
 41 45 0 0 0
SMALL
GASTEIGER

@<TRIPOS>ATOM
      1 C         -62.9968  -42.2372  -26.0508 C.ar    1  UNL1        0.0450
      2 C         -64.1339  -41.6139  -25.5177 C.ar    1  UNL1        0.0085
      3 C         -64.2639  -41.4540  -24.1346 C.ar    1  UNL1        0.0052
      4 C         -63.2548  -41.9224  -23.2837 C.ar    1  UNL1        0.0529
      5 C         -62.1140  -42.5532  -23.8121 C.ar    1  UNL1        0.1407
      6 C         -61.9874  -42.7038  -25.1970 C.ar    1  UNL1        0.0452
      7 O         -61.0901  -43.0193  -22.9605 O.3     1  UNL1       -0.4770
      8 C         -61.1694  -43.0742  -21.5190 C.3     1  UNL1        0.1673
      9 C         -61.3365  -44.5392  -21.0988 C.3     1  UNL1        0.0498
     10 C         -59.8693  -42.5023  -20.9421 C.3     1  UNL1        0.0498
     11 C         -62.3485  -42.2729  -21.0178 C.ar    1  UNL1        0.0891
     12 N         -62.6917  -42.0294  -19.7442 N.ar    1  UNL1       -0.3380
     13 C         -63.8677  -41.3640  -19.8318 C.ar    1  UNL1        0.1417
     14 N         -64.2912  -41.1928  -21.1092 N.ar    1  UNL1       -0.2271
     15 C         -63.3176  -41.7762  -21.8331 C.ar    1  UNL1        0.1005
     16 H         -62.1861  -42.3295  -18.8814 H       1  UNL1        0.1672
     17 C         -64.6369  -40.8940  -18.6520 C.ar    1  UNL1        0.0531
     18 C         -65.4096  -41.8047  -17.8891 C.ar    1  UNL1        0.0720
     19 C         -66.1298  -41.3527  -16.7758 C.ar    1  UNL1        0.0104
     20 C         -66.0956  -40.0077  -16.4116 C.ar    1  UNL1        0.0014
     21 C         -65.3455  -39.0994  -17.1566 C.ar    1  UNL1        0.0104
     22 C         -64.6178  -39.5280  -18.2743 C.ar    1  UNL1        0.0720
     23 C         -65.4492  -43.2145  -18.2011 C.1     1  UNL1        0.1005
     24 N         -65.4805  -44.3440  -18.4511 N.1     1  UNL1       -0.1908
     25 C         -63.9052  -38.5358  -19.0448 C.1     1  UNL1        0.1005
     26 N         -63.3345  -37.7403  -19.6621 N.1     1  UNL1       -0.1908
     27 C         -62.7627  -42.5303  -28.6680 C.1     1  UNL1       -0.0598
     28 C         -62.8662  -42.3965  -27.4746 C.1     1  UNL1       -0.0597
     29 C         -62.3237  -42.9675  -32.8829 C.ar    1  UNL1       -0.0225
     30 C         -61.2872  -42.4486  -32.0930 C.ar    1  UNL1       -0.0037
     31 C         -61.4476  -42.3121  -30.7145 C.ar    1  UNL1        0.0079
     32 C         -62.6452  -42.6909  -30.0975 C.ar    1  UNL1        0.0458
     33 C         -63.7057  -43.2170  -30.8722 C.ar    1  UNL1        0.0787
     34 C         -63.5290  -43.3490  -32.2641 C.ar    1  UNL1        0.0002
     35 C         -65.0110  -43.6330  -30.2214 C.3     1  UNL1        0.4191
     36 F         -65.6395  -42.5697  -29.5962 F       1  UNL1       -0.1658
     37 F         -65.8677  -44.1389  -31.1824 F       1  UNL1       -0.1658
     38 F         -64.7657  -44.6101  -29.2734 F       1  UNL1       -0.1658
     39 C         -63.2907  -43.8903  -35.0158 C.3     1  UNL1        0.0047
     40 C         -62.1330  -43.1096  -34.3821 C.3     1  UNL1        0.0223
     41 C         -60.7836  -43.7601  -34.7094 C.3     1  UNL1        0.0047
@<TRIPOS>BOND
     1    39    40    1
     2    40    41    1
     3    40    29    1
     4    29    30   ar
     5    30    31   ar
     6    31    32   ar
     7    32    27    1
     8    27    28    3
     9    28     1    1
    10     1     2   ar
    11     2     3   ar
    12     3     4   ar
    13     4     5   ar
    14     5     6   ar
    15     5     7    1
    16     7     8    1
    17     8     9    1
    18     8    10    1
    19     8    11    1
    20    11    12   ar
    21    12    13   ar
    22    13    17    1
    23    17    18   ar
    24    18    23    1
    25    23    24    3
    26    18    19   ar
    27    19    20   ar
    28    20    21   ar
    29    21    22   ar
    30    22    25    1
    31    25    26    3
    32    13    14   ar
    33    14    15   ar
    34    32    33   ar
    35    33    35    1
    36    35    36    1
    37    35    37    1
    38    35    38    1
    39    33    34   ar
    40    34    29   ar
    41     6     1   ar
    42    15    11   ar
    43    15     4    1
    44    22    17   ar
    45    12    16    1
@<TRIPOS>MOLECULE
*****
 41 45 0 0 0
SMALL
GASTEIGER

@<TRIPOS>ATOM
      1 C         -63.0405  -42.2099  -26.0512 C.ar    1  UNL1        0.0450
      2 C         -64.1753  -41.5855  -25.5145 C.ar    1  UNL1        0.0085
      3 C         -64.3034  -41.4307  -24.1306 C.ar    1  UNL1        0.0052
      4 C         -63.2948  -41.9054  -23.2826 C.ar    1  UNL1        0.0529
      5 C         -62.1563  -42.5372  -23.8146 C.ar    1  UNL1        0.1407
      6 C         -62.0315  -42.6828  -25.2002 C.ar    1  UNL1        0.0452
      7 O         -61.1328  -43.0096  -22.9659 O.3     1  UNL1       -0.4770
      8 C         -61.2109  -43.0700  -21.5246 C.3     1  UNL1        0.1673
      9 C         -61.3817  -44.5363  -21.1100 C.3     1  UNL1        0.0498
     10 C         -59.9086  -42.5042  -20.9467 C.3     1  UNL1        0.0498
     11 C         -62.3872  -42.2675  -21.0190 C.ar    1  UNL1        0.0891
     12 N         -62.7284  -42.0280  -19.7441 N.ar    1  UNL1       -0.3380
     13 C         -63.9026  -41.3589  -19.8279 C.ar    1  UNL1        0.1417
     14 N         -64.3269  -41.1815  -21.1042 N.ar    1  UNL1       -0.2271
     15 C         -63.3557  -41.7648  -21.8313 C.ar    1  UNL1        0.1005
     16 H         -62.2227  -42.3329  -18.8830 H       1  UNL1        0.1672
     17 C         -64.6693  -40.8914  -18.6454 C.ar    1  UNL1        0.0531
     18 C         -64.6445  -39.5258  -18.2674 C.ar    1  UNL1        0.0720
     19 C         -65.3733  -39.0933  -17.1520 C.ar    1  UNL1        0.0104
     20 C         -66.1242  -39.9993  -16.4049 C.ar    1  UNL1        0.0014
     21 C         -66.1525  -41.3465  -16.7608 C.ar    1  UNL1        0.0104
     22 C         -65.4311  -41.8024  -17.8717 C.ar    1  UNL1        0.0720
     23 C         -63.9131  -38.5400  -19.0289 C.1     1  UNL1        0.1005
     24 N         -63.3274  -37.7498  -19.6387 N.1     1  UNL1       -0.1908
     25 C         -65.4481  -43.2173  -18.1614 C.1     1  UNL1        0.1005
     26 N         -65.4620  -44.3512  -18.3929 N.1     1  UNL1       -0.1908
     27 C         -62.8029  -42.4987  -28.6685 C.1     1  UNL1       -0.0598
     28 C         -62.9118  -42.3639  -27.4757 C.1     1  UNL1       -0.0597
     29 C         -62.3201  -42.9626  -32.8758 C.ar    1  UNL1       -0.0225
     30 C         -61.2692  -42.5023  -32.0688 C.ar    1  UNL1       -0.0037
     31 C         -61.4442  -42.3562  -30.6931 C.ar    1  UNL1        0.0079
     32 C         -62.6712  -42.6666  -30.0960 C.ar    1  UNL1        0.0458
     33 C         -63.7468  -43.1327  -30.8881 C.ar    1  UNL1        0.0787
     34 C         -63.5550  -43.2753  -32.2769 C.ar    1  UNL1        0.0002
     35 C         -65.0840  -43.4742  -30.2590 C.3     1  UNL1        0.4191
     36 F         -65.6508  -42.3826  -29.6237 F       1  UNL1       -0.1658
     37 F         -65.9594  -43.9091  -31.2378 F       1  UNL1       -0.1658
     38 F         -64.9133  -44.4796  -29.3244 F       1  UNL1       -0.1658
     39 C         -63.2753  -43.8815  -35.0156 C.3     1  UNL1        0.0047
     40 C         -62.1131  -43.1161  -34.3717 C.3     1  UNL1        0.0223
     41 C         -60.7704  -43.7901  -34.6785 C.3     1  UNL1        0.0047
@<TRIPOS>BOND
     1    39    40    1
     2    40    41    1
     3    40    29    1
     4    29    30   ar
     5    30    31   ar
     6    31    32   ar
     7    32    27    1
     8    27    28    3
     9    28     1    1
    10     1     2   ar
    11     2     3   ar
    12     3     4   ar
    13     4     5   ar
    14     5     6   ar
    15     5     7    1
    16     7     8    1
    17     8     9    1
    18     8    10    1
    19     8    11    1
    20    11    12   ar
    21    12    13   ar
    22    13    17    1
    23    17    18   ar
    24    18    23    1
    25    23    24    3
    26    18    19   ar
    27    19    20   ar
    28    20    21   ar
    29    21    22   ar
    30    22    25    1
    31    25    26    3
    32    13    14   ar
    33    14    15   ar
    34    32    33   ar
    35    33    35    1
    36    35    36    1
    37    35    37    1
    38    35    38    1
    39    33    34   ar
    40    34    29   ar
    41     6     1   ar
    42    15    11   ar
    43    15     4    1
    44    22    17   ar
    45    12    16    1
@<TRIPOS>MOLECULE
*****
 41 45 0 0 0
SMALL
GASTEIGER

@<TRIPOS>ATOM
      1 C         -62.6880  -42.7500  -24.8391 C.ar    1  UNL1        0.0450
      2 C         -62.8711  -41.8695  -25.9147 C.ar    1  UNL1        0.0085
      3 C         -62.5107  -42.2572  -27.2090 C.ar    1  UNL1        0.0052
      4 C         -61.9626  -43.5277  -27.4259 C.ar    1  UNL1        0.0529
      5 C         -61.7716  -44.4137  -26.3503 C.ar    1  UNL1        0.1407
      6 C         -62.1405  -44.0219  -25.0591 C.ar    1  UNL1        0.0452
      7 O         -61.2280  -45.6981  -26.5638 O.3     1  UNL1       -0.4770
      8 C         -60.6587  -46.1628  -27.8077 C.3     1  UNL1        0.1673
      9 C         -59.1346  -46.2210  -27.6507 C.3     1  UNL1        0.0498
     10 C         -61.2150  -47.5610  -28.1004 C.3     1  UNL1        0.0498
     11 C         -61.0091  -45.2246  -28.9392 C.ar    1  UNL1        0.0891
     12 N         -60.7259  -45.3705  -30.2421 N.ar    1  UNL1       -0.3380
     13 C         -61.1580  -44.2215  -30.8133 C.ar    1  UNL1        0.1417
     14 N         -61.6869  -43.3470  -29.9211 N.ar    1  UNL1       -0.2271
     15 C         -61.5779  -44.0033  -28.7509 C.ar    1  UNL1        0.1005
     16 H         -60.2383  -46.1721  -30.7005 H       1  UNL1        0.1672
     17 C         -61.0396  -43.9286  -32.2641 C.ar    1  UNL1        0.0531
     18 C         -62.1814  -43.5585  -33.0177 C.ar    1  UNL1        0.0720
     19 C         -62.0596  -43.2812  -34.3853 C.ar    1  UNL1        0.0104
     20 C         -60.8196  -43.3695  -35.0158 C.ar    1  UNL1        0.0014
     21 C         -59.6893  -43.7389  -34.2888 C.ar    1  UNL1        0.0104
     22 C         -59.7868  -44.0217  -32.9203 C.ar    1  UNL1        0.0720
     23 C         -63.4820  -43.4159  -32.4055 C.1     1  UNL1        0.1005
     24 N         -64.5241  -43.3020  -31.9152 N.1     1  UNL1       -0.1908
     25 C         -58.5961  -44.4565  -32.2279 C.1     1  UNL1        0.1005
     26 N         -57.6421  -44.8045  -31.6726 N.1     1  UNL1       -0.1908
     27 C         -63.3831  -42.0122  -22.3973 C.1     1  UNL1       -0.0598
     28 C         -63.0632  -42.3478  -23.5099 C.1     1  UNL1       -0.0597
     29 C         -64.6279  -40.8397  -18.4953 C.ar    1  UNL1       -0.0225
     30 C         -65.5618  -41.1533  -19.4939 C.ar    1  UNL1       -0.0037
     31 C         -65.1372  -41.5353  -20.7660 C.ar    1  UNL1        0.0079
     32 C         -63.7725  -41.6119  -21.0664 C.ar    1  UNL1        0.0458
     33 C         -62.8107  -41.3007  -20.0766 C.ar    1  UNL1        0.0787
     34 C         -63.2549  -40.9162  -18.7956 C.ar    1  UNL1        0.0002
     35 C         -61.3273  -41.3781  -20.3834 C.3     1  UNL1        0.4191
     36 F         -60.9631  -42.6231  -20.8669 F       1  UNL1       -0.1658
     37 F         -61.0009  -40.4301  -21.3364 F       1  UNL1       -0.1658
     38 F         -60.6022  -41.1310  -19.2315 F       1  UNL1       -0.1658
     39 C         -66.3493  -41.2215  -16.6990 C.3     1  UNL1        0.0047
     40 C         -65.1067  -40.4256  -17.1156 C.3     1  UNL1        0.0223
     41 C         -65.3700  -38.9164  -17.0509 C.3     1  UNL1        0.0047
@<TRIPOS>BOND
     1    39    40    1
     2    40    41    1
     3    40    29    1
     4    29    30   ar
     5    30    31   ar
     6    31    32   ar
     7    32    27    1
     8    27    28    3
     9    28     1    1
    10     1     2   ar
    11     2     3   ar
    12     3     4   ar
    13     4     5   ar
    14     5     6   ar
    15     5     7    1
    16     7     8    1
    17     8     9    1
    18     8    10    1
    19     8    11    1
    20    11    12   ar
    21    12    13   ar
    22    13    17    1
    23    17    18   ar
    24    18    23    1
    25    23    24    3
    26    18    19   ar
    27    19    20   ar
    28    20    21   ar
    29    21    22   ar
    30    22    25    1
    31    25    26    3
    32    13    14   ar
    33    14    15   ar
    34    32    33   ar
    35    33    35    1
    36    35    36    1
    37    35    37    1
    38    35    38    1
    39    33    34   ar
    40    34    29   ar
    41     6     1   ar
    42    15    11   ar
    43    15     4    1
    44    22    17   ar
    45    12    16    1
@<TRIPOS>MOLECULE
*****
 41 45 0 0 0
SMALL
GASTEIGER

@<TRIPOS>ATOM
      1 C         -62.6991  -42.7434  -24.8508 C.ar    1  UNL1        0.0450
      2 C         -62.8826  -41.8673  -25.9300 C.ar    1  UNL1        0.0085
      3 C         -62.5122  -42.2561  -27.2211 C.ar    1  UNL1        0.0052
      4 C         -61.9537  -43.5232  -27.4313 C.ar    1  UNL1        0.0529
      5 C         -61.7622  -44.4047  -26.3520 C.ar    1  UNL1        0.1407
      6 C         -62.1412  -44.0118  -25.0641 C.ar    1  UNL1        0.0452
      7 O         -61.2082  -45.6858  -26.5587 O.3     1  UNL1       -0.4770
      8 C         -60.6286  -46.1499  -27.7981 C.3     1  UNL1        0.1673
      9 C         -59.1051  -46.1966  -27.6325 C.3     1  UNL1        0.0498
     10 C         -61.1732  -47.5529  -28.0898 C.3     1  UNL1        0.0498
     11 C         -60.9795  -45.2175  -28.9343 C.ar    1  UNL1        0.0891
     12 N         -60.6880  -45.3652  -30.2351 N.ar    1  UNL1       -0.3380
     13 C         -61.1252  -44.2209  -30.8121 C.ar    1  UNL1        0.1417
     14 N         -61.6654  -43.3477  -29.9254 N.ar    1  UNL1       -0.2271
     15 C         -61.5582  -43.9999  -28.7527 C.ar    1  UNL1        0.1005
     16 H         -60.1921  -46.1645  -30.6884 H       1  UNL1        0.1672
     17 C         -61.0009  -43.9314  -32.2631 C.ar    1  UNL1        0.0531
     18 C         -59.7438  -44.0302  -32.9100 C.ar    1  UNL1        0.0720
     19 C         -59.6366  -43.7580  -34.2799 C.ar    1  UNL1        0.0104
     20 C         -60.7605  -43.3859  -35.0158 C.ar    1  UNL1        0.0014
     21 C         -62.0019  -43.2781  -34.3914 C.ar    1  UNL1        0.0104
     22 C         -62.1334  -43.5446  -33.0224 C.ar    1  UNL1        0.0720
     23 C         -58.5560  -44.4478  -32.2022 C.1     1  UNL1        0.1005
     24 N         -57.6045  -44.7825  -31.6347 N.1     1  UNL1       -0.1908
     25 C         -63.4304  -43.3608  -32.4140 C.1     1  UNL1        0.1005
     26 N         -64.4696  -43.2130  -31.9264 N.1     1  UNL1       -0.1908
     27 C         -63.4073  -42.0076  -22.4121 C.1     1  UNL1       -0.0598
     28 C         -63.0846  -42.3400  -23.5249 C.1     1  UNL1       -0.0597
     29 C         -64.6428  -40.8600  -18.4998 C.ar    1  UNL1       -0.0225
     30 C         -65.5791  -41.1644  -19.4989 C.ar    1  UNL1       -0.0037
     31 C         -65.1575  -41.5383  -20.7744 C.ar    1  UNL1        0.0079
     32 C         -63.7935  -41.6159  -21.0777 C.ar    1  UNL1        0.0458
     33 C         -62.8293  -41.3138  -20.0875 C.ar    1  UNL1        0.0787
     34 C         -63.2704  -40.9374  -18.8031 C.ar    1  UNL1        0.0002
     35 C         -61.3466  -41.3923  -20.3974 C.3     1  UNL1        0.4191
     36 F         -60.5702  -41.1152  -19.2853 F       1  UNL1       -0.1658
     37 F         -61.0322  -42.6646  -20.8399 F       1  UNL1       -0.1658
     38 F         -61.0306  -40.4777  -21.3859 F       1  UNL1       -0.1658
     39 C         -66.3545  -41.2593  -16.6981 C.3     1  UNL1        0.0047
     40 C         -65.1182  -40.4546  -17.1164 C.3     1  UNL1        0.0223
     41 C         -65.3898  -38.9472  -17.0440 C.3     1  UNL1        0.0047
@<TRIPOS>BOND
     1    39    40    1
     2    40    41    1
     3    40    29    1
     4    29    30   ar
     5    30    31   ar
     6    31    32   ar
     7    32    27    1
     8    27    28    3
     9    28     1    1
    10     1     2   ar
    11     2     3   ar
    12     3     4   ar
    13     4     5   ar
    14     5     6   ar
    15     5     7    1
    16     7     8    1
    17     8     9    1
    18     8    10    1
    19     8    11    1
    20    11    12   ar
    21    12    13   ar
    22    13    17    1
    23    17    18   ar
    24    18    23    1
    25    23    24    3
    26    18    19   ar
    27    19    20   ar
    28    20    21   ar
    29    21    22   ar
    30    22    25    1
    31    25    26    3
    32    13    14   ar
    33    14    15   ar
    34    32    33   ar
    35    33    35    1
    36    35    36    1
    37    35    37    1
    38    35    38    1
    39    33    34   ar
    40    34    29   ar
    41     6     1   ar
    42    15    11   ar
    43    15     4    1
    44    22    17   ar
    45    12    16    1
