@<TRIPOS>MOLECULE
*****
 37 41 0 0 0
SMALL
GASTEIGER

@<TRIPOS>ATOM
      1 C         -20.5326   -7.5133   -8.5345 C.2     1  UNL1        0.2490
      2 O         -20.9386   -6.3524   -8.2533 O.2     1  UNL1       -0.2699
      3 N         -20.8753   -8.0922   -9.8091 N.am    1  UNL1       -0.2760
      4 C         -21.1041   -7.2069  -10.9594 C.3     1  UNL1        0.0954
      5 C         -21.0864   -8.0018  -12.2705 C.3     1  UNL1        0.0399
      6 C         -22.1273   -9.1619  -12.2852 C.3     1  UNL1        0.0645
      7 C         -22.3324   -9.7676  -10.8592 C.3     1  UNL1        0.0399
      8 C         -21.1323   -9.5350   -9.9374 C.3     1  UNL1        0.0954
      9 C         -21.6036  -10.2749  -13.2610 C.3     1  UNL1        0.0477
     10 C         -22.7102  -11.2005  -13.6659 C.ar    1  UNL1        0.0220
     11 C         -22.6742  -12.4589  -14.2195 C.ar    1  UNL1        0.0923
     12 N         -23.9411  -12.7941  -14.5722 N.ar    1  UNL1       -0.2534
     13 N         -24.7631  -11.7847  -14.2975 N.ar    1  UNL1       -0.1651
     14 C         -24.0124  -10.8158  -13.7459 C.ar    1  UNL1        0.1515
     15 C         -24.4282   -9.4863  -13.3295 C.2     1  UNL1        0.2650
     16 O         -25.6130   -9.0899  -13.4873 O.2     1  UNL1       -0.2684
     17 N         -23.4316   -8.6284  -12.7517 N.am    1  UNL1       -0.3023
     18 H         -23.7126   -7.6565  -12.4888 H       1  UNL1        0.1497
     19 C         -17.1193  -10.9112   -7.4923 C.ar    1  UNL1        0.2248
     20 N         -16.3543  -11.5831   -6.5923 N.ar    1  UNL1       -0.2101
     21 C         -16.4346  -11.3437   -5.2624 C.ar    1  UNL1        0.1021
     22 C         -17.3199  -10.3867   -4.7710 C.ar    1  UNL1        0.0206
     23 C         -18.1445   -9.6558   -5.6516 C.ar    1  UNL1        0.0021
     24 C         -19.0790   -8.6658   -5.2082 C.ar    1  UNL1       -0.0222
     25 C         -19.8481   -7.9878   -6.1769 C.ar    1  UNL1        0.0002
     26 C         -19.7118   -8.2473   -7.5436 C.ar    1  UNL1        0.0534
     27 C         -18.8174   -9.2297   -7.9687 C.ar    1  UNL1        0.0091
     28 C         -18.0303   -9.9318   -7.0448 C.ar    1  UNL1        0.0531
     29 C         -19.3246   -8.2719   -3.7455 C.3     1  UNL1        0.0224
     30 C         -20.7534   -8.5728   -3.2698 C.3     1  UNL1        0.0047
     31 C         -18.8583   -6.8471   -3.4104 C.3     1  UNL1        0.0047
     32 C         -17.3500  -12.4519   -9.4227 C.3     1  UNL1        0.2542
     33 O         -16.9994  -11.1934   -8.8593 O.3     1  UNL1       -0.4561
     34 C         -24.3522  -14.0470  -15.2365 C.3     1  UNL1        0.0867
     35 C         -24.4722  -13.8134  -16.7552 C.3     1  UNL1        0.0244
     36 C         -25.7104  -14.5017  -14.6716 C.3     1  UNL1        0.0244
     37 C         -23.3102  -15.1595  -14.9900 C.3     1  UNL1        0.0244
@<TRIPOS>BOND
     1    32    33    1
     2    33    19    1
     3    19    20   ar
     4    20    21   ar
     5    21    22   ar
     6    22    23   ar
     7    23    24   ar
     8    24    29    1
     9    29    30    1
    10    29    31    1
    11    24    25   ar
    12    25    26   ar
    13    26     1    1
    14     1     2    2
    15     1     3   am
    16     3     4    1
    17     4     5    1
    18     5     6    1
    19     6     7    1
    20     7     8    1
    21     6     9    1
    22     9    10    1
    23    10    11   ar
    24    11    12   ar
    25    12    34    1
    26    34    35    1
    27    34    36    1
    28    34    37    1
    29    12    13   ar
    30    13    14   ar
    31    14    15    1
    32    15    16    2
    33    15    17   am
    34    26    27   ar
    35    27    28   ar
    36    28    19   ar
    37    28    23   ar
    38     8     3    1
    39    14    10   ar
    40    17     6    1
    41    17    18    1
@<TRIPOS>MOLECULE
*****
 37 41 0 0 0
SMALL
GASTEIGER

@<TRIPOS>ATOM
      1 C         -20.3079   -7.7055   -8.5859 C.2     1  UNL1        0.2490
      2 O         -20.7456   -6.5941   -8.1802 O.2     1  UNL1       -0.2699
      3 N         -20.7440   -8.2134   -9.8622 N.am    1  UNL1       -0.2760
      4 C         -21.1333   -7.2651  -10.9151 C.3     1  UNL1        0.0954
      5 C         -21.2034   -7.9636  -12.2784 C.3     1  UNL1        0.0399
      6 C         -22.1768   -9.1809  -12.2817 C.3     1  UNL1        0.0645
      7 C         -22.2062   -9.8965  -10.8926 C.3     1  UNL1        0.0399
      8 C         -20.9347   -9.6565  -10.0744 C.3     1  UNL1        0.0954
      9 C         -21.6937  -10.1889  -13.3844 C.3     1  UNL1        0.0477
     10 C         -22.7838  -11.1493  -13.7510 C.ar    1  UNL1        0.0220
     11 C         -22.7355  -12.3613  -14.3992 C.ar    1  UNL1        0.0923
     12 N         -24.0113  -12.7474  -14.6539 N.ar    1  UNL1       -0.2534
     13 N         -24.8550  -11.8116  -14.2266 N.ar    1  UNL1       -0.1651
     14 C         -24.1063  -10.8399  -13.6772 C.ar    1  UNL1        0.1515
     15 C         -24.5494   -9.5706  -13.1236 C.2     1  UNL1        0.2650
     16 O         -25.7635   -9.2370  -13.1374 O.2     1  UNL1       -0.2684
     17 N         -23.5478   -8.6964  -12.5800 N.am    1  UNL1       -0.3023
     18 H         -23.8530   -7.7642  -12.2187 H       1  UNL1        0.1497
     19 C         -17.6726   -8.0955   -4.4404 C.ar    1  UNL1        0.2248
     20 N         -16.8062   -8.7805   -3.6486 N.ar    1  UNL1       -0.2101
     21 C         -16.2891   -9.9758   -4.0177 C.ar    1  UNL1        0.1021
     22 C         -16.6354  -10.5457   -5.2410 C.ar    1  UNL1        0.0206
     23 C         -17.5277   -9.8852   -6.1111 C.ar    1  UNL1        0.0021
     24 C         -17.9162  -10.4146   -7.3833 C.ar    1  UNL1       -0.0222
     25 C         -18.8227   -9.6737   -8.1698 C.ar    1  UNL1        0.0002
     26 C         -19.3543   -8.4559   -7.7361 C.ar    1  UNL1        0.0534
     27 C         -18.9542   -7.9327   -6.5065 C.ar    1  UNL1        0.0091
     28 C         -18.0549   -8.6309   -5.6880 C.ar    1  UNL1        0.0531
     29 C         -17.4221  -11.7397   -7.9794 C.3     1  UNL1        0.0224
     30 C         -15.9049  -11.9350   -7.8451 C.3     1  UNL1        0.0047
     31 C         -17.9471  -12.0039   -9.3986 C.3     1  UNL1        0.0047
     32 C         -18.9860   -6.7185   -2.8491 C.3     1  UNL1        0.2542
     33 O         -18.1821   -6.8621   -4.0141 O.3     1  UNL1       -0.4561
     34 C         -24.4187  -13.9733  -15.3691 C.3     1  UNL1        0.0867
     35 C         -24.4503  -13.7024  -16.8860 C.3     1  UNL1        0.0244
     36 C         -25.8168  -14.4031  -14.8885 C.3     1  UNL1        0.0244
     37 C         -23.4210  -15.1192  -15.0939 C.3     1  UNL1        0.0244
@<TRIPOS>BOND
     1    32    33    1
     2    33    19    1
     3    19    20   ar
     4    20    21   ar
     5    21    22   ar
     6    22    23   ar
     7    23    24   ar
     8    24    29    1
     9    29    30    1
    10    29    31    1
    11    24    25   ar
    12    25    26   ar
    13    26     1    1
    14     1     2    2
    15     1     3   am
    16     3     4    1
    17     4     5    1
    18     5     6    1
    19     6     7    1
    20     7     8    1
    21     6     9    1
    22     9    10    1
    23    10    11   ar
    24    11    12   ar
    25    12    34    1
    26    34    35    1
    27    34    36    1
    28    34    37    1
    29    12    13   ar
    30    13    14   ar
    31    14    15    1
    32    15    16    2
    33    15    17   am
    34    26    27   ar
    35    27    28   ar
    36    28    19   ar
    37    28    23   ar
    38     8     3    1
    39    14    10   ar
    40    17     6    1
    41    17    18    1
@<TRIPOS>MOLECULE
*****
 37 41 0 0 0
SMALL
GASTEIGER

@<TRIPOS>ATOM
      1 C         -27.0011   -5.3752  -12.8661 C.2     1  UNL1        0.2490
      2 O         -26.8526   -4.6091  -11.8749 O.2     1  UNL1       -0.2699
      3 N         -26.5464   -6.7399  -12.7786 N.am    1  UNL1       -0.2760
      4 C         -26.5164   -7.4022  -11.4672 C.3     1  UNL1        0.0954
      5 C         -26.3675   -8.9199  -11.6267 C.3     1  UNL1        0.0399
      6 C         -25.1021   -9.3179  -12.4451 C.3     1  UNL1        0.0645
      7 C         -24.7674   -8.2531  -13.5390 C.3     1  UNL1        0.0399
      8 C         -25.9864   -7.4250  -13.9539 C.3     1  UNL1        0.0954
      9 C         -25.3782  -10.7054  -13.1263 C.3     1  UNL1        0.0477
     10 C         -24.1002  -11.3560  -13.5606 C.ar    1  UNL1        0.0220
     11 C         -23.8673  -12.3773  -14.4518 C.ar    1  UNL1        0.0923
     12 N         -22.5592  -12.7247  -14.3531 N.ar    1  UNL1       -0.2534
     13 N         -21.9718  -11.9904  -13.4119 N.ar    1  UNL1       -0.1651
     14 C         -22.9110  -11.1579  -12.9307 C.ar    1  UNL1        0.1515
     15 C         -22.7886  -10.1992  -11.8446 C.2     1  UNL1        0.2650
     16 O         -21.7168  -10.0772  -11.1949 O.2     1  UNL1       -0.2684
     17 N         -23.9441   -9.4097  -11.5212 N.am    1  UNL1       -0.3023
     18 H         -23.8771   -8.7485  -10.7143 H       1  UNL1        0.1497
     19 C         -26.6877   -3.9255  -17.5653 C.ar    1  UNL1        0.2248
     20 N         -27.2681   -3.4511  -18.6988 N.ar    1  UNL1       -0.2101
     21 C         -28.5893   -3.1628  -18.7615 C.ar    1  UNL1        0.1021
     22 C         -29.4040   -3.3462  -17.6464 C.ar    1  UNL1        0.0206
     23 C         -28.8638   -3.8331  -16.4378 C.ar    1  UNL1        0.0021
     24 C         -29.6466   -4.0355  -15.2561 C.ar    1  UNL1       -0.0222
     25 C         -29.0050   -4.5358  -14.1040 C.ar    1  UNL1        0.0002
     26 C         -27.6423   -4.8471  -14.0927 C.ar    1  UNL1        0.0534
     27 C         -26.8793   -4.6255  -15.2391 C.ar    1  UNL1        0.0091
     28 C         -27.4704   -4.1292  -16.4097 C.ar    1  UNL1        0.0531
     29 C         -31.1487   -3.7481  -15.1288 C.3     1  UNL1        0.0224
     30 C         -31.4540   -2.4544  -14.3600 C.3     1  UNL1        0.0047
     31 C         -31.9616   -4.9553  -14.6371 C.3     1  UNL1        0.0047
     32 C         -24.7763   -5.4392  -18.0222 C.3     1  UNL1        0.2542
     33 O         -25.3162   -4.2106  -17.5498 O.3     1  UNL1       -0.4561
     34 C         -21.8911  -13.8054  -15.1054 C.3     1  UNL1        0.0867
     35 C         -22.7290  -15.0957  -15.0135 C.3     1  UNL1        0.0244
     36 C         -20.4921  -14.0507  -14.5113 C.3     1  UNL1        0.0244
     37 C         -21.7422  -13.4196  -16.5930 C.3     1  UNL1        0.0244
@<TRIPOS>BOND
     1    32    33    1
     2    33    19    1
     3    19    20   ar
     4    20    21   ar
     5    21    22   ar
     6    22    23   ar
     7    23    24   ar
     8    24    29    1
     9    29    30    1
    10    29    31    1
    11    24    25   ar
    12    25    26   ar
    13    26     1    1
    14     1     2    2
    15     1     3   am
    16     3     4    1
    17     4     5    1
    18     5     6    1
    19     6     7    1
    20     7     8    1
    21     6     9    1
    22     9    10    1
    23    10    11   ar
    24    11    12   ar
    25    12    34    1
    26    34    35    1
    27    34    36    1
    28    34    37    1
    29    12    13   ar
    30    13    14   ar
    31    14    15    1
    32    15    16    2
    33    15    17   am
    34    26    27   ar
    35    27    28   ar
    36    28    19   ar
    37    28    23   ar
    38     8     3    1
    39    14    10   ar
    40    17     6    1
    41    17    18    1
@<TRIPOS>MOLECULE
*****
 37 41 0 0 0
SMALL
GASTEIGER

@<TRIPOS>ATOM
      1 C         -24.4985   -8.9300  -14.1741 C.2     1  UNL1        0.2490
      2 O         -24.9311   -7.9580  -14.8521 O.2     1  UNL1       -0.2699
      3 N         -24.1204   -8.7199  -12.7994 N.am    1  UNL1       -0.2760
      4 C         -24.7810   -7.6569  -12.0294 C.3     1  UNL1        0.0954
      5 C         -24.5226   -7.8309  -10.5280 C.3     1  UNL1        0.0399
      6 C         -23.0040   -7.8664  -10.1787 C.3     1  UNL1        0.0645
      7 C         -22.1660   -8.5184  -11.3255 C.3     1  UNL1        0.0399
      8 C         -22.9947   -9.4578  -12.2057 C.3     1  UNL1        0.0954
      9 C         -22.8266   -8.6966   -8.8578 C.3     1  UNL1        0.0477
     10 C         -21.4964   -8.4233   -8.2244 C.ar    1  UNL1        0.0220
     11 C         -20.7887   -9.1260   -7.2775 C.ar    1  UNL1        0.0923
     12 N         -19.7297   -8.3655   -6.9012 N.ar    1  UNL1       -0.2534
     13 N         -19.7648   -7.2014   -7.5442 N.ar    1  UNL1       -0.1651
     14 C         -20.8405   -7.2382   -8.3492 C.ar    1  UNL1        0.1515
     15 C         -21.3521   -6.1854   -9.2116 C.2     1  UNL1        0.2650
     16 O         -20.8035   -5.0531   -9.2607 O.2     1  UNL1       -0.2684
     17 N         -22.5237   -6.4746   -9.9905 N.am    1  UNL1       -0.3023
     18 H         -22.9224   -5.7094  -10.5807 H       1  UNL1        0.1497
     19 C         -25.7591  -13.6901  -14.3597 C.ar    1  UNL1        0.2248
     20 N         -25.6784  -14.9139  -14.9449 N.ar    1  UNL1       -0.2101
     21 C         -24.9049  -15.1391  -16.0328 C.ar    1  UNL1        0.1021
     22 C         -24.1563  -14.1052  -16.5911 C.ar    1  UNL1        0.0206
     23 C         -24.1933  -12.8115  -16.0304 C.ar    1  UNL1        0.0021
     24 C         -23.4418  -11.7104  -16.5529 C.ar    1  UNL1       -0.0222
     25 C         -23.5604  -10.4562  -15.9186 C.ar    1  UNL1        0.0002
     26 C         -24.3942  -10.2622  -14.8136 C.ar    1  UNL1        0.0534
     27 C         -25.1056  -11.3435  -14.2937 C.ar    1  UNL1        0.0091
     28 C         -25.0211  -12.6106  -14.8882 C.ar    1  UNL1        0.0531
     29 C         -22.4990  -11.7759  -17.7620 C.3     1  UNL1        0.0224
     30 C         -23.2411  -11.8326  -19.1052 C.3     1  UNL1        0.0047
     31 C         -21.4043  -12.8448  -17.6251 C.3     1  UNL1        0.0047
     32 C         -26.3817  -14.2127  -12.0161 C.3     1  UNL1        0.2542
     33 O         -26.5748  -13.5061  -13.2357 O.3     1  UNL1       -0.4561
     34 C         -18.7284   -8.7219   -5.8761 C.3     1  UNL1        0.0867
     35 C         -19.4383   -9.0320   -4.5437 C.3     1  UNL1        0.0244
     36 C         -17.7540   -7.5453   -5.6844 C.3     1  UNL1        0.0244
     37 C         -17.9277   -9.9689   -6.3096 C.3     1  UNL1        0.0244
@<TRIPOS>BOND
     1    32    33    1
     2    33    19    1
     3    19    20   ar
     4    20    21   ar
     5    21    22   ar
     6    22    23   ar
     7    23    24   ar
     8    24    29    1
     9    29    30    1
    10    29    31    1
    11    24    25   ar
    12    25    26   ar
    13    26     1    1
    14     1     2    2
    15     1     3   am
    16     3     4    1
    17     4     5    1
    18     5     6    1
    19     6     7    1
    20     7     8    1
    21     6     9    1
    22     9    10    1
    23    10    11   ar
    24    11    12   ar
    25    12    34    1
    26    34    35    1
    27    34    36    1
    28    34    37    1
    29    12    13   ar
    30    13    14   ar
    31    14    15    1
    32    15    16    2
    33    15    17   am
    34    26    27   ar
    35    27    28   ar
    36    28    19   ar
    37    28    23   ar
    38     8     3    1
    39    14    10   ar
    40    17     6    1
    41    17    18    1
@<TRIPOS>MOLECULE
*****
 37 41 0 0 0
SMALL
GASTEIGER

@<TRIPOS>ATOM
      1 C         -26.8318   -5.3472  -13.3802 C.2     1  UNL1        0.2490
      2 O         -26.8551   -4.6050  -12.3603 O.2     1  UNL1       -0.2699
      3 N         -26.4546   -6.7309  -13.2385 N.am    1  UNL1       -0.2760
      4 C         -26.7109   -7.4162  -11.9642 C.3     1  UNL1        0.0954
      5 C         -26.5897   -8.9359  -12.1290 C.3     1  UNL1        0.0399
      6 C         -25.2024   -9.3718  -12.6901 C.3     1  UNL1        0.0645
      7 C         -24.6173   -8.3031  -13.6689 C.3     1  UNL1        0.0399
      8 C         -25.6978   -7.4183  -14.2963 C.3     1  UNL1        0.0954
      9 C         -25.3888  -10.7348  -13.4470 C.3     1  UNL1        0.0477
     10 C         -24.0750  -11.4302  -13.6355 C.ar    1  UNL1        0.0220
     11 C         -23.7075  -12.4447  -14.4882 C.ar    1  UNL1        0.0923
     12 N         -22.4590  -12.8477  -14.1409 N.ar    1  UNL1       -0.2534
     13 N         -22.0439  -12.1546  -13.0839 N.ar    1  UNL1       -0.1651
     14 C         -23.0284  -11.2923  -12.7777 C.ar    1  UNL1        0.1515
     15 C         -23.0891  -10.3582  -11.6652 C.2     1  UNL1        0.2650
     16 O         -22.1643  -10.2919  -10.8131 O.2     1  UNL1       -0.2684
     17 N         -24.2557   -9.5273  -11.5575 N.am    1  UNL1       -0.3023
     18 H         -24.3261   -8.8834  -10.7371 H       1  UNL1        0.1497
     19 C         -30.0102   -2.8962  -16.2389 C.ar    1  UNL1        0.2248
     20 N         -30.3494   -2.3562  -17.4390 N.ar    1  UNL1       -0.2101
     21 C         -29.5362   -2.4383  -18.5180 C.ar    1  UNL1        0.1021
     22 C         -28.3088   -3.0912  -18.4270 C.ar    1  UNL1        0.0206
     23 C         -27.8977   -3.6758  -17.2109 C.ar    1  UNL1        0.0021
     24 C         -26.6530   -4.3661  -17.0559 C.ar    1  UNL1       -0.0222
     25 C         -26.3380   -4.9054  -15.7913 C.ar    1  UNL1        0.0002
     26 C         -27.1960   -4.7721  -14.6959 C.ar    1  UNL1        0.0534
     27 C         -28.4181   -4.1196  -14.8582 C.ar    1  UNL1        0.0091
     28 C         -28.7776   -3.5666  -16.0955 C.ar    1  UNL1        0.0531
     29 C         -25.6136   -4.5779  -18.1649 C.3     1  UNL1        0.0224
     30 C         -26.2414   -4.7820  -19.5514 C.3     1  UNL1        0.0047
     31 C         -24.5538   -5.6334  -17.8147 C.3     1  UNL1        0.0047
     32 C         -32.2999   -2.8465  -15.2859 C.3     1  UNL1        0.2542
     33 O         -30.8850   -2.7842  -15.1505 O.3     1  UNL1       -0.4561
     34 C         -21.6952  -13.9420  -14.7727 C.3     1  UNL1        0.0867
     35 C         -22.4708  -15.2661  -14.6286 C.3     1  UNL1        0.0244
     36 C         -20.3219  -14.0668  -14.0878 C.3     1  UNL1        0.0244
     37 C         -21.4809  -13.6576  -16.2751 C.3     1  UNL1        0.0244
@<TRIPOS>BOND
     1    32    33    1
     2    33    19    1
     3    19    20   ar
     4    20    21   ar
     5    21    22   ar
     6    22    23   ar
     7    23    24   ar
     8    24    29    1
     9    29    30    1
    10    29    31    1
    11    24    25   ar
    12    25    26   ar
    13    26     1    1
    14     1     2    2
    15     1     3   am
    16     3     4    1
    17     4     5    1
    18     5     6    1
    19     6     7    1
    20     7     8    1
    21     6     9    1
    22     9    10    1
    23    10    11   ar
    24    11    12   ar
    25    12    34    1
    26    34    35    1
    27    34    36    1
    28    34    37    1
    29    12    13   ar
    30    13    14   ar
    31    14    15    1
    32    15    16    2
    33    15    17   am
    34    26    27   ar
    35    27    28   ar
    36    28    19   ar
    37    28    23   ar
    38     8     3    1
    39    14    10   ar
    40    17     6    1
    41    17    18    1
@<TRIPOS>MOLECULE
*****
 37 41 0 0 0
SMALL
GASTEIGER

@<TRIPOS>ATOM
      1 C         -28.5254   -5.1528  -15.0192 C.2     1  UNL1        0.2490
      2 O         -29.5847   -4.7318  -14.4787 O.2     1  UNL1       -0.2699
      3 N         -27.7495   -6.1698  -14.3554 N.am    1  UNL1       -0.2760
      4 C         -28.4291   -7.1246  -13.4689 C.3     1  UNL1        0.0954
      5 C         -27.5233   -8.3234  -13.1628 C.3     1  UNL1        0.0399
      6 C         -26.1599   -7.9030  -12.5355 C.3     1  UNL1        0.0645
      7 C         -25.6802   -6.5184  -13.0789 C.3     1  UNL1        0.0399
      8 C         -26.2811   -6.1765  -14.4449 C.3     1  UNL1        0.0954
      9 C         -25.0993   -9.0052  -12.8900 C.3     1  UNL1        0.0477
     10 C         -23.9054   -8.9134  -11.9892 C.ar    1  UNL1        0.0220
     11 C         -22.6371   -9.4290  -12.1198 C.ar    1  UNL1        0.0923
     12 N         -21.9829   -9.2249  -10.9485 N.ar    1  UNL1       -0.2534
     13 N         -22.7990   -8.6373  -10.0776 N.ar    1  UNL1       -0.1651
     14 C         -23.9686   -8.4483  -10.7125 C.ar    1  UNL1        0.1515
     15 C         -25.2032   -7.9006  -10.1744 C.2     1  UNL1        0.2650
     16 O         -25.2963   -7.5550   -8.9672 O.2     1  UNL1       -0.2684
     17 N         -26.3248   -7.7892  -11.0647 N.am    1  UNL1       -0.3023
     18 H         -27.2282   -7.4361  -10.6750 H       1  UNL1        0.1497
     19 C         -29.2519   -1.9948  -18.7315 C.ar    1  UNL1        0.2248
     20 N         -28.8753   -1.4632  -19.9241 N.ar    1  UNL1       -0.2101
     21 C         -27.7766   -1.8948  -20.5868 C.ar    1  UNL1        0.1021
     22 C         -26.9892   -2.9143  -20.0562 C.ar    1  UNL1        0.0206
     23 C         -27.3262   -3.5108  -18.8232 C.ar    1  UNL1        0.0021
     24 C         -26.5625   -4.5666  -18.2300 C.ar    1  UNL1       -0.0222
     25 C         -26.9856   -5.0845  -16.9881 C.ar    1  UNL1        0.0002
     26 C         -28.1116   -4.5885  -16.3249 C.ar    1  UNL1        0.0534
     27 C         -28.8659   -3.5764  -16.9184 C.ar    1  UNL1        0.0091
     28 C         -28.4871   -3.0286  -18.1523 C.ar    1  UNL1        0.0531
     29 C         -25.3031   -5.1984  -18.8382 C.3     1  UNL1        0.0224
     30 C         -25.6130   -6.2567  -19.9068 C.3     1  UNL1        0.0047
     31 C         -24.2896   -5.6734  -17.7861 C.3     1  UNL1        0.0047
     32 C         -31.4811   -2.3529  -17.7038 C.3     1  UNL1        0.2542
     33 O         -30.3967   -1.5136  -18.0830 O.3     1  UNL1       -0.4561
     34 C         -20.6049   -9.6563  -10.6398 C.3     1  UNL1        0.0867
     35 C         -19.6026   -8.8028  -11.4412 C.3     1  UNL1        0.0244
     36 C         -20.4395  -11.1406  -11.0139 C.3     1  UNL1        0.0244
     37 C         -20.3063   -9.4835   -9.1348 C.3     1  UNL1        0.0244
@<TRIPOS>BOND
     1    32    33    1
     2    33    19    1
     3    19    20   ar
     4    20    21   ar
     5    21    22   ar
     6    22    23   ar
     7    23    24   ar
     8    24    29    1
     9    29    30    1
    10    29    31    1
    11    24    25   ar
    12    25    26   ar
    13    26     1    1
    14     1     2    2
    15     1     3   am
    16     3     4    1
    17     4     5    1
    18     5     6    1
    19     6     7    1
    20     7     8    1
    21     6     9    1
    22     9    10    1
    23    10    11   ar
    24    11    12   ar
    25    12    34    1
    26    34    35    1
    27    34    36    1
    28    34    37    1
    29    12    13   ar
    30    13    14   ar
    31    14    15    1
    32    15    16    2
    33    15    17   am
    34    26    27   ar
    35    27    28   ar
    36    28    19   ar
    37    28    23   ar
    38     8     3    1
    39    14    10   ar
    40    17     6    1
    41    17    18    1
@<TRIPOS>MOLECULE
*****
 37 41 0 0 0
SMALL
GASTEIGER

@<TRIPOS>ATOM
      1 C         -24.3466   -9.7052   -8.7867 C.2     1  UNL1        0.2490
      2 O         -24.9163  -10.7506   -8.3692 O.2     1  UNL1       -0.2699
      3 N         -25.1022   -8.7471   -9.5536 N.am    1  UNL1       -0.2760
      4 C         -26.5496   -8.6308   -9.3281 C.3     1  UNL1        0.0954
      5 C         -27.0951   -7.3383   -9.9469 C.3     1  UNL1        0.0399
      6 C         -26.7903   -7.2253  -11.4713 C.3     1  UNL1        0.0645
      7 C         -25.4303   -7.9030  -11.8367 C.3     1  UNL1        0.0399
      8 C         -24.4717   -7.9901  -10.6461 C.3     1  UNL1        0.0954
      9 C         -26.7383   -5.7016  -11.8467 C.3     1  UNL1        0.0477
     10 C         -26.8835   -5.5059  -13.3252 C.ar    1  UNL1        0.0220
     11 C         -26.5858   -4.4267  -14.1241 C.ar    1  UNL1        0.0923
     12 N         -27.0750   -4.6804  -15.3642 N.ar    1  UNL1       -0.2534
     13 N         -27.6988   -5.8555  -15.3667 N.ar    1  UNL1       -0.1651
     14 C         -27.5812   -6.3566  -14.1250 C.ar    1  UNL1        0.1515
     15 C         -28.1459   -7.5881  -13.5974 C.2     1  UNL1        0.2650
     16 O         -28.8715   -8.3338  -14.3067 O.2     1  UNL1       -0.2684
     17 N         -27.8665   -7.9140  -12.2267 N.am    1  UNL1       -0.3023
     18 H         -28.3035   -8.7757  -11.8278 H       1  UNL1        0.1497
     19 C         -20.7870   -8.7355   -5.5201 C.ar    1  UNL1        0.2248
     20 N         -19.4747   -8.5494   -5.2198 N.ar    1  UNL1       -0.2101
     21 C         -18.5066   -8.6168   -6.1635 C.ar    1  UNL1        0.1021
     22 C         -18.8342   -8.8818   -7.4914 C.ar    1  UNL1        0.0206
     23 C         -20.1780   -9.0822   -7.8705 C.ar    1  UNL1        0.0021
     24 C         -20.5793   -9.3502   -9.2185 C.ar    1  UNL1       -0.0222
     25 C         -21.9509   -9.5435   -9.4843 C.ar    1  UNL1        0.0002
     26 C         -22.9145   -9.4931   -8.4730 C.ar    1  UNL1        0.0534
     27 C         -22.5212   -9.2079   -7.1655 C.ar    1  UNL1        0.0091
     28 C         -21.1698   -9.0075   -6.8501 C.ar    1  UNL1        0.0531
     29 C         -19.6321   -9.4444  -10.4223 C.3     1  UNL1        0.0224
     30 C         -20.0959   -8.6080  -11.6237 C.3     1  UNL1        0.0047
     31 C         -19.2575  -10.8873  -10.7927 C.3     1  UNL1        0.0047
     32 C         -21.5012   -9.0578   -3.1665 C.3     1  UNL1        0.2542
     33 O         -21.7527   -8.6572   -4.5083 O.3     1  UNL1       -0.4561
     34 C         -27.0091   -3.7691  -16.5242 C.3     1  UNL1        0.0867
     35 C         -26.1816   -2.5217  -16.1572 C.3     1  UNL1        0.0244
     36 C         -28.4352   -3.3478  -16.9232 C.3     1  UNL1        0.0244
     37 C         -26.3392   -4.4685  -17.7267 C.3     1  UNL1        0.0244
@<TRIPOS>BOND
     1    32    33    1
     2    33    19    1
     3    19    20   ar
     4    20    21   ar
     5    21    22   ar
     6    22    23   ar
     7    23    24   ar
     8    24    29    1
     9    29    30    1
    10    29    31    1
    11    24    25   ar
    12    25    26   ar
    13    26     1    1
    14     1     2    2
    15     1     3   am
    16     3     4    1
    17     4     5    1
    18     5     6    1
    19     6     7    1
    20     7     8    1
    21     6     9    1
    22     9    10    1
    23    10    11   ar
    24    11    12   ar
    25    12    34    1
    26    34    35    1
    27    34    36    1
    28    34    37    1
    29    12    13   ar
    30    13    14   ar
    31    14    15    1
    32    15    16    2
    33    15    17   am
    34    26    27   ar
    35    27    28   ar
    36    28    19   ar
    37    28    23   ar
    38     8     3    1
    39    14    10   ar
    40    17     6    1
    41    17    18    1
@<TRIPOS>MOLECULE
*****
 37 41 0 0 0
SMALL
GASTEIGER

@<TRIPOS>ATOM
      1 C         -23.3303   -8.0784  -14.2726 C.2     1  UNL1        0.2490
      2 O         -23.0803   -8.7790  -15.2916 O.2     1  UNL1       -0.2699
      3 N         -22.3412   -7.9692  -13.2302 N.am    1  UNL1       -0.2760
      4 C         -20.9187   -8.0954  -13.5766 C.3     1  UNL1        0.0954
      5 C         -20.0324   -7.5901  -12.4319 C.3     1  UNL1        0.0399
      6 C         -20.3121   -8.3236  -11.0854 C.3     1  UNL1        0.0645
      7 C         -21.8144   -8.7347  -10.9566 C.3     1  UNL1        0.0399
      8 C         -22.7415   -7.8729  -11.8179 C.3     1  UNL1        0.0954
      9 C         -19.9282   -7.3530   -9.9123 C.3     1  UNL1        0.0477
     10 C         -19.7525   -8.1039   -8.6276 C.ar    1  UNL1        0.0220
     11 C         -19.7375   -7.6664   -7.3238 C.ar    1  UNL1        0.0923
     12 N         -19.3587   -8.7078   -6.5405 N.ar    1  UNL1       -0.2534
     13 N         -19.0997   -9.7680   -7.3013 N.ar    1  UNL1       -0.1651
     14 C         -19.3400   -9.3988   -8.5711 C.ar    1  UNL1        0.1515
     15 C         -19.1468  -10.1775   -9.7836 C.2     1  UNL1        0.2650
     16 O         -18.6762  -11.3449   -9.7456 O.2     1  UNL1       -0.2684
     17 N         -19.4899   -9.5583  -11.0333 N.am    1  UNL1       -0.3023
     18 H         -19.3142  -10.0958  -11.9125 H       1  UNL1        0.1497
     19 C         -26.5764   -4.8248  -16.0502 C.ar    1  UNL1        0.2248
     20 N         -27.7765   -4.1911  -15.9799 N.ar    1  UNL1       -0.2101
     21 C         -28.6613   -4.4391  -14.9859 C.ar    1  UNL1        0.1021
     22 C         -28.3604   -5.3654  -13.9897 C.ar    1  UNL1        0.0206
     23 C         -27.1305   -6.0559  -14.0026 C.ar    1  UNL1        0.0021
     24 C         -26.7598   -7.0129  -13.0042 C.ar    1  UNL1       -0.0222
     25 C         -25.5077   -7.6519  -13.1196 C.ar    1  UNL1        0.0002
     26 C         -24.6365   -7.3857  -14.1797 C.ar    1  UNL1        0.0534
     27 C         -24.9919   -6.4350  -15.1365 C.ar    1  UNL1        0.0091
     28 C         -26.2254   -5.7721  -15.0659 C.ar    1  UNL1        0.0531
     29 C         -27.6185   -7.4100  -11.7959 C.3     1  UNL1        0.0224
     30 C         -26.8227   -8.1333  -10.6998 C.3     1  UNL1        0.0047
     31 C         -28.9186   -8.1316  -12.1817 C.3     1  UNL1        0.0047
     32 C         -25.9750   -4.8563  -18.4566 C.3     1  UNL1        0.2542
     33 O         -25.6943   -4.5353  -17.0993 O.3     1  UNL1       -0.4561
     34 C         -19.1748   -8.6676   -5.0759 C.3     1  UNL1        0.0867
     35 C         -18.5736   -7.3090   -4.6659 C.3     1  UNL1        0.0244
     36 C         -18.2285   -9.8048   -4.6495 C.3     1  UNL1        0.0244
     37 C         -20.5279   -8.8456   -4.3538 C.3     1  UNL1        0.0244
@<TRIPOS>BOND
     1    32    33    1
     2    33    19    1
     3    19    20   ar
     4    20    21   ar
     5    21    22   ar
     6    22    23   ar
     7    23    24   ar
     8    24    29    1
     9    29    30    1
    10    29    31    1
    11    24    25   ar
    12    25    26   ar
    13    26     1    1
    14     1     2    2
    15     1     3   am
    16     3     4    1
    17     4     5    1
    18     5     6    1
    19     6     7    1
    20     7     8    1
    21     6     9    1
    22     9    10    1
    23    10    11   ar
    24    11    12   ar
    25    12    34    1
    26    34    35    1
    27    34    36    1
    28    34    37    1
    29    12    13   ar
    30    13    14   ar
    31    14    15    1
    32    15    16    2
    33    15    17   am
    34    26    27   ar
    35    27    28   ar
    36    28    19   ar
    37    28    23   ar
    38     8     3    1
    39    14    10   ar
    40    17     6    1
    41    17    18    1
