@<TRIPOS>MOLECULE
*****
 50 55 0 0 0
SMALL
GASTEIGER

@<TRIPOS>ATOM
      1 O         -60.9433  -46.2572  -26.6618 O.2     1  UNL1       -0.2701
      2 C         -62.1002  -45.8290  -26.3972 C.2     1  UNL1        0.2484
      3 N         -63.2285  -46.3067  -27.1477 N.am    1  UNL1       -0.2945
      4 H         -64.0984  -45.7270  -27.1482 H       1  UNL1        0.1501
      5 C         -62.2706  -44.8088  -25.3369 C.ar    1  UNL1        0.0813
      6 C         -62.1330  -45.1800  -23.9877 C.ar    1  UNL1        0.0147
      7 C         -62.2846  -44.2347  -22.9677 C.ar    1  UNL1        0.0481
      8 BR        -62.0900  -44.7930  -21.1459 Br      1  UNL1       -0.0477
      9 C         -62.5849  -42.9018  -23.2887 C.ar    1  UNL1        0.0565
     10 C         -62.7440  -42.5299  -24.6282 C.ar    1  UNL1        0.0448
     11 C         -62.5917  -43.4727  -25.6489 C.ar    1  UNL1        0.1457
     12 F         -62.8059  -43.0844  -26.9315 F       1  UNL1       -0.2040
     13 N         -62.7460  -41.9216  -22.2572 N.pl3   1  UNL1       -0.3036
     14 C         -64.0109  -41.8647  -21.5177 C.3     1  UNL1        0.1123
     15 C         -63.9054  -40.9505  -20.2914 C.3     1  UNL1        0.1136
     16 N         -63.2481  -39.6799  -20.6401 N.pl3   1  UNL1       -0.2897
     17 C         -62.0696  -39.6832  -21.5265 C.3     1  UNL1        0.1136
     18 C         -61.6020  -41.1045  -21.8509 C.3     1  UNL1        0.1123
     19 C         -63.6551  -38.4604  -19.9768 C.ar    1  UNL1        0.1318
     20 C         -64.7663  -38.4292  -19.1154 C.ar    1  UNL1        0.0343
     21 C         -65.1276  -37.2319  -18.4957 C.ar    1  UNL1        0.0083
     22 C         -64.3760  -36.0679  -18.7122 C.ar    1  UNL1        0.0906
     23 C         -63.2886  -36.1328  -19.5959 C.ar    1  UNL1        0.1041
     24 N         -62.9570  -37.3093  -20.1900 N.ar    1  UNL1       -0.2292
     25 C         -64.7858  -34.7583  -18.0881 C.3     1  UNL1        0.4200
     26 F         -65.1272  -34.9366  -16.7586 F       1  UNL1       -0.1658
     27 F         -63.7320  -33.8671  -18.1672 F       1  UNL1       -0.1658
     28 F         -65.8789  -34.2242  -18.7481 F       1  UNL1       -0.1658
     29 C         -63.1206  -47.3978  -28.1222 C.3     1  UNL1        0.1535
     30 C         -63.3700  -48.7301  -27.4530 C.2     1  UNL1        0.2443
     31 O         -63.3693  -49.7887  -28.1384 O.2     1  UNL1       -0.2730
     32 N         -63.5908  -48.7810  -26.0329 N.am    1  UNL1       -0.2825
     33 H         -63.8422  -47.8876  -25.5521 H       1  UNL1        0.1549
     34 C         -63.5297  -49.9735  -25.2286 C.ar    1  UNL1        0.0535
     35 C         -62.5766  -50.0575  -24.2034 C.ar    1  UNL1        0.0353
     36 C         -62.4776  -51.2237  -23.4413 C.ar    1  UNL1        0.1002
     37 N         -63.2912  -52.2801  -23.7029 N.ar    1  UNL1       -0.2422
     38 C         -64.2132  -52.2375  -24.7001 C.ar    1  UNL1        0.1002
     39 C         -64.3476  -51.0889  -25.4839 C.ar    1  UNL1        0.0353
     40 C         -64.1140  -47.1599  -29.2721 C.3     1  UNL1        0.0569
     41 C         -64.2931  -45.6948  -29.5554 C.ar    1  UNL1       -0.0017
     42 C         -65.4457  -44.9480  -29.3291 C.ar    1  UNL1        0.0681
     43 N         -65.2140  -43.6371  -29.5679 N.ar    1  UNL1       -0.3523
     44 C         -63.9230  -43.5480  -29.9316 C.ar    1  UNL1        0.0563
     45 C         -63.2100  -42.3893  -30.2365 C.ar    1  UNL1        0.0170
     46 C         -61.8465  -42.5210  -30.5562 C.ar    1  UNL1        0.0015
     47 C         -61.2330  -43.7930  -30.5632 C.ar    1  UNL1        0.0001
     48 C         -61.9769  -44.9448  -30.2499 C.ar    1  UNL1        0.0012
     49 C         -63.3267  -44.7832  -29.9362 C.ar    1  UNL1        0.0131
     50 H         -65.8954  -42.8529  -29.4625 H       1  UNL1        0.1660
@<TRIPOS>BOND
     1     1     2    2
     2     2     3   am
     3     3    29    1
     4    29    40    1
     5    40    41    1
     6    41    42   ar
     7    42    43   ar
     8    43    44   ar
     9    44    45   ar
    10    45    46   ar
    11    46    47   ar
    12    47    48   ar
    13    48    49   ar
    14    29    30    1
    15    30    31    2
    16    30    32   am
    17    32    34    1
    18    34    35   ar
    19    35    36   ar
    20    36    37   ar
    21    37    38   ar
    22    38    39   ar
    23     2     5    1
    24     5     6   ar
    25     6     7   ar
    26     7     8    1
    27     7     9   ar
    28     9    13    1
    29    13    14    1
    30    14    15    1
    31    15    16    1
    32    16    19    1
    33    19    20   ar
    34    20    21   ar
    35    21    22   ar
    36    22    25    1
    37    25    26    1
    38    25    27    1
    39    25    28    1
    40    22    23   ar
    41    23    24   ar
    42    16    17    1
    43    17    18    1
    44     9    10   ar
    45    10    11   ar
    46    11    12    1
    47    49    41   ar
    48    39    34   ar
    49    11     5   ar
    50    49    44   ar
    51    18    13    1
    52    24    19   ar
    53     3     4    1
    54    43    50    1
    55    32    33    1
@<TRIPOS>MOLECULE
*****
 50 55 0 0 0
SMALL
GASTEIGER

@<TRIPOS>ATOM
      1 O         -60.3458  -47.1271  -24.7900 O.2     1  UNL1       -0.2701
      2 C         -61.4250  -46.4788  -24.8730 C.2     1  UNL1        0.2484
      3 N         -62.4057  -46.8456  -25.8570 N.am    1  UNL1       -0.2945
      4 H         -63.1175  -46.1307  -26.1305 H       1  UNL1        0.1501
      5 C         -61.6466  -45.3222  -23.9748 C.ar    1  UNL1        0.0813
      6 C         -62.3149  -44.1842  -24.4601 C.ar    1  UNL1        0.0147
      7 C         -62.5408  -43.0805  -23.6307 C.ar    1  UNL1        0.0481
      8 BR        -63.4532  -41.5540  -24.3421 Br      1  UNL1       -0.0477
      9 C         -62.0909  -43.1010  -22.3015 C.ar    1  UNL1        0.0565
     10 C         -61.4066  -44.2217  -21.8180 C.ar    1  UNL1        0.0448
     11 C         -61.1811  -45.3260  -22.6447 C.ar    1  UNL1        0.1457
     12 F         -60.4679  -46.3715  -22.1548 F       1  UNL1       -0.2040
     13 N         -62.3114  -41.9790  -21.4393 N.pl3   1  UNL1       -0.3036
     14 C         -63.4395  -42.0089  -20.5030 C.3     1  UNL1        0.1123
     15 C         -63.3601  -40.8614  -19.4893 C.3     1  UNL1        0.1136
     16 N         -63.0506  -39.5886  -20.1619 N.pl3   1  UNL1       -0.2897
     17 C         -62.0385  -39.5531  -21.2339 C.3     1  UNL1        0.1136
     18 C         -61.3255  -40.8986  -21.3920 C.3     1  UNL1        0.1123
     19 C         -63.6129  -38.3571  -19.6523 C.ar    1  UNL1        0.1318
     20 C         -64.7539  -38.3562  -18.8301 C.ar    1  UNL1        0.0343
     21 C         -65.2667  -37.1461  -18.3600 C.ar    1  UNL1        0.0083
     22 C         -64.6377  -35.9362  -18.6869 C.ar    1  UNL1        0.0906
     23 C         -63.5159  -35.9754  -19.5280 C.ar    1  UNL1        0.1041
     24 N         -63.0358  -37.1653  -19.9758 N.ar    1  UNL1       -0.2292
     25 C         -65.2111  -34.6202  -18.2265 C.3     1  UNL1        0.4200
     26 F         -64.2955  -33.5982  -18.4087 F       1  UNL1       -0.1658
     27 F         -66.3507  -34.3399  -18.9570 F       1  UNL1       -0.1658
     28 F         -65.5384  -34.6739  -16.8827 F       1  UNL1       -0.1658
     29 C         -62.2782  -48.0505  -26.6840 C.3     1  UNL1        0.1535
     30 C         -62.6008  -49.2845  -25.8727 C.2     1  UNL1        0.2443
     31 O         -63.4841  -50.0895  -26.2753 O.2     1  UNL1       -0.2730
     32 N         -61.8838  -49.5393  -24.6524 N.am    1  UNL1       -0.2825
     33 H         -61.3628  -48.7408  -24.2240 H       1  UNL1        0.1549
     34 C         -61.8591  -50.7986  -23.9551 C.ar    1  UNL1        0.0535
     35 C         -63.0664  -51.4707  -23.7165 C.ar    1  UNL1        0.0353
     36 C         -63.0631  -52.6728  -23.0055 C.ar    1  UNL1        0.1002
     37 N         -61.8954  -53.1816  -22.5321 N.ar    1  UNL1       -0.2422
     38 C         -60.7108  -52.5465  -22.7310 C.ar    1  UNL1        0.1002
     39 C         -60.6691  -51.3436  -23.4401 C.ar    1  UNL1        0.0353
     40 C         -63.2027  -47.9339  -27.9078 C.3     1  UNL1        0.0569
     41 C         -63.1806  -46.5479  -28.4888 C.ar    1  UNL1       -0.0017
     42 C         -64.2837  -45.7241  -28.6937 C.ar    1  UNL1        0.0681
     43 N         -63.8879  -44.4973  -29.1029 N.ar    1  UNL1       -0.3523
     44 C         -62.5450  -44.5355  -29.1471 C.ar    1  UNL1        0.0563
     45 C         -61.6811  -43.4908  -29.4729 C.ar    1  UNL1        0.0170
     46 C         -60.2977  -43.7394  -29.4171 C.ar    1  UNL1        0.0015
     47 C         -59.8142  -45.0118  -29.0406 C.ar    1  UNL1        0.0001
     48 C         -60.7094  -46.0469  -28.7157 C.ar    1  UNL1        0.0012
     49 C         -62.0755  -45.7706  -28.7793 C.ar    1  UNL1        0.0131
     50 H         -64.5032  -43.6803  -29.3135 H       1  UNL1        0.1660
@<TRIPOS>BOND
     1     1     2    2
     2     2     3   am
     3     3    29    1
     4    29    40    1
     5    40    41    1
     6    41    42   ar
     7    42    43   ar
     8    43    44   ar
     9    44    45   ar
    10    45    46   ar
    11    46    47   ar
    12    47    48   ar
    13    48    49   ar
    14    29    30    1
    15    30    31    2
    16    30    32   am
    17    32    34    1
    18    34    35   ar
    19    35    36   ar
    20    36    37   ar
    21    37    38   ar
    22    38    39   ar
    23     2     5    1
    24     5     6   ar
    25     6     7   ar
    26     7     8    1
    27     7     9   ar
    28     9    13    1
    29    13    14    1
    30    14    15    1
    31    15    16    1
    32    16    19    1
    33    19    20   ar
    34    20    21   ar
    35    21    22   ar
    36    22    25    1
    37    25    26    1
    38    25    27    1
    39    25    28    1
    40    22    23   ar
    41    23    24   ar
    42    16    17    1
    43    17    18    1
    44     9    10   ar
    45    10    11   ar
    46    11    12    1
    47    49    41   ar
    48    39    34   ar
    49    11     5   ar
    50    49    44   ar
    51    18    13    1
    52    24    19   ar
    53     3     4    1
    54    43    50    1
    55    32    33    1
@<TRIPOS>MOLECULE
*****
 50 55 0 0 0
SMALL
GASTEIGER

@<TRIPOS>ATOM
      1 O         -59.6118  -46.7431  -24.0435 O.2     1  UNL1       -0.2701
      2 C         -60.6564  -46.0943  -24.3262 C.2     1  UNL1        0.2484
      3 N         -61.4400  -46.4647  -25.4722 N.am    1  UNL1       -0.2945
      4 H         -62.0884  -45.7504  -25.8749 H       1  UNL1        0.1501
      5 C         -61.0376  -44.9336  -23.4889 C.ar    1  UNL1        0.0813
      6 C         -61.9028  -43.9555  -24.0104 C.ar    1  UNL1        0.0147
      7 C         -62.2817  -42.8521  -23.2384 C.ar    1  UNL1        0.0481
      8 BR        -63.4601  -41.5468  -23.9974 Br      1  UNL1       -0.0477
      9 C         -61.7898  -42.7110  -21.9316 C.ar    1  UNL1        0.0565
     10 C         -60.9117  -43.6695  -21.4137 C.ar    1  UNL1        0.0448
     11 C         -60.5330  -44.7734  -22.1829 C.ar    1  UNL1        0.1457
     12 F         -59.6388  -45.6527  -21.6643 F       1  UNL1       -0.2040
     13 N         -62.1652  -41.5864  -21.1283 N.pl3   1  UNL1       -0.3036
     14 C         -63.3729  -41.6716  -20.3009 C.3     1  UNL1        0.1123
     15 C         -63.4667  -40.4973  -19.3196 C.3     1  UNL1        0.1136
     16 N         -63.1797  -39.2227  -19.9986 N.pl3   1  UNL1       -0.2897
     17 C         -62.0747  -39.1433  -20.9720 C.3     1  UNL1        0.1136
     18 C         -61.2622  -40.4399  -21.0220 C.3     1  UNL1        0.1123
     19 C         -63.8684  -38.0210  -19.5814 C.ar    1  UNL1        0.1318
     20 C         -65.2363  -37.8296  -19.8460 C.ar    1  UNL1        0.0343
     21 C         -65.8638  -36.6550  -19.4280 C.ar    1  UNL1        0.0083
     22 C         -65.1419  -35.6769  -18.7290 C.ar    1  UNL1        0.0906
     23 C         -63.7743  -35.8931  -18.5042 C.ar    1  UNL1        0.1041
     24 N         -63.1839  -37.0434  -18.9226 N.ar    1  UNL1       -0.2292
     25 C         -65.7964  -34.3831  -18.3166 C.3     1  UNL1        0.4200
     26 F         -65.8365  -34.2740  -16.9373 F       1  UNL1       -0.1658
     27 F         -65.0737  -33.3232  -18.8317 F       1  UNL1       -0.1658
     28 F         -67.0939  -34.3188  -18.7941 F       1  UNL1       -0.1658
     29 C         -61.1646  -47.6733  -26.2566 C.3     1  UNL1        0.1535
     30 C         -61.7435  -48.8904  -25.5722 C.2     1  UNL1        0.2443
     31 O         -62.7111  -49.5066  -26.0961 O.2     1  UNL1       -0.2730
     32 N         -61.1735  -49.3466  -24.3332 N.am    1  UNL1       -0.2825
     33 H         -60.5655  -48.6782  -23.8077 H       1  UNL1        0.1549
     34 C         -61.4060  -50.6384  -23.7418 C.ar    1  UNL1        0.0535
     35 C         -60.3076  -51.4376  -23.3938 C.ar    1  UNL1        0.0353
     36 C         -60.5171  -52.7100  -22.8571 C.ar    1  UNL1        0.1002
     37 N         -61.7811  -53.1788  -22.6878 N.ar    1  UNL1       -0.2422
     38 C         -62.8665  -52.4367  -23.0309 C.ar    1  UNL1        0.1002
     39 C         -62.7016  -51.1575  -23.5675 C.ar    1  UNL1        0.0353
     40 C         -61.7391  -47.5080  -27.6739 C.3     1  UNL1        0.0569
     41 C         -60.9865  -46.4708  -28.4593 C.ar    1  UNL1       -0.0017
     42 C         -59.6027  -46.3424  -28.5380 C.ar    1  UNL1        0.0681
     43 N         -59.2668  -45.3915  -29.4391 N.ar    1  UNL1       -0.3523
     44 C         -60.4252  -44.9267  -29.9383 C.ar    1  UNL1        0.0563
     45 C         -60.5895  -43.9635  -30.9328 C.ar    1  UNL1        0.0170
     46 C         -61.9005  -43.6519  -31.3365 C.ar    1  UNL1        0.0015
     47 C         -63.0051  -44.3030  -30.7446 C.ar    1  UNL1        0.0001
     48 C         -62.8090  -45.2721  -29.7442 C.ar    1  UNL1        0.0012
     49 C         -61.4977  -45.5607  -29.3649 C.ar    1  UNL1        0.0131
     50 H         -58.3012  -45.1005  -29.7098 H       1  UNL1        0.1660
@<TRIPOS>BOND
     1     1     2    2
     2     2     3   am
     3     3    29    1
     4    29    40    1
     5    40    41    1
     6    41    42   ar
     7    42    43   ar
     8    43    44   ar
     9    44    45   ar
    10    45    46   ar
    11    46    47   ar
    12    47    48   ar
    13    48    49   ar
    14    29    30    1
    15    30    31    2
    16    30    32   am
    17    32    34    1
    18    34    35   ar
    19    35    36   ar
    20    36    37   ar
    21    37    38   ar
    22    38    39   ar
    23     2     5    1
    24     5     6   ar
    25     6     7   ar
    26     7     8    1
    27     7     9   ar
    28     9    13    1
    29    13    14    1
    30    14    15    1
    31    15    16    1
    32    16    19    1
    33    19    20   ar
    34    20    21   ar
    35    21    22   ar
    36    22    25    1
    37    25    26    1
    38    25    27    1
    39    25    28    1
    40    22    23   ar
    41    23    24   ar
    42    16    17    1
    43    17    18    1
    44     9    10   ar
    45    10    11   ar
    46    11    12    1
    47    49    41   ar
    48    39    34   ar
    49    11     5   ar
    50    49    44   ar
    51    18    13    1
    52    24    19   ar
    53     3     4    1
    54    43    50    1
    55    32    33    1
@<TRIPOS>MOLECULE
*****
 50 55 0 0 0
SMALL
GASTEIGER

@<TRIPOS>ATOM
      1 O         -65.6373  -39.9475  -20.7767 O.2     1  UNL1       -0.2701
      2 C         -64.4951  -40.3471  -21.1340 C.2     1  UNL1        0.2484
      3 N         -63.4121  -40.3535  -20.1898 N.am    1  UNL1       -0.2945
      4 H         -62.4358  -40.3685  -20.5631 H       1  UNL1        0.1501
      5 C         -64.2813  -40.7696  -22.5374 C.ar    1  UNL1        0.0813
      6 C         -63.0544  -41.3470  -22.9094 C.ar    1  UNL1        0.0147
      7 C         -62.8290  -41.7587  -24.2272 C.ar    1  UNL1        0.0481
      8 BR        -61.1390  -42.5366  -24.6824 Br      1  UNL1       -0.0477
      9 C         -63.8320  -41.5886  -25.1941 C.ar    1  UNL1        0.0565
     10 C         -65.0476  -40.9954  -24.8356 C.ar    1  UNL1        0.0448
     11 C         -65.2752  -40.5847  -23.5191 C.ar    1  UNL1        0.1457
     12 F         -66.4463  -39.9660  -23.2231 F       1  UNL1       -0.2040
     13 N         -63.6174  -42.0019  -26.5483 N.pl3   1  UNL1       -0.3036
     14 C         -63.0891  -43.3445  -26.8098 C.3     1  UNL1        0.1123
     15 C         -63.1793  -43.7050  -28.2973 C.3     1  UNL1        0.1136
     16 N         -62.6974  -42.5947  -29.1357 N.pl3   1  UNL1       -0.2897
     17 C         -63.0693  -41.2077  -28.8001 C.3     1  UNL1        0.1136
     18 C         -64.0733  -41.1481  -27.6459 C.3     1  UNL1        0.1123
     19 C         -62.0091  -42.8829  -30.3750 C.ar    1  UNL1        0.1318
     20 C         -62.5904  -42.5922  -31.6221 C.ar    1  UNL1        0.0343
     21 C         -61.8942  -42.8873  -32.7953 C.ar    1  UNL1        0.0083
     22 C         -60.6121  -43.4520  -32.7345 C.ar    1  UNL1        0.0906
     23 C         -60.0751  -43.7492  -31.4732 C.ar    1  UNL1        0.1041
     24 N         -60.7724  -43.4553  -30.3444 N.ar    1  UNL1       -0.2292
     25 C         -59.8715  -43.8210  -33.9946 C.3     1  UNL1        0.4200
     26 F         -59.1390  -44.9807  -33.8088 F       1  UNL1       -0.1658
     27 F         -60.7820  -44.0218  -35.0153 F       1  UNL1       -0.1658
     28 F         -58.9986  -42.8113  -34.3609 F       1  UNL1       -0.1658
     29 C         -63.6069  -40.0556  -18.7667 C.3     1  UNL1        0.1535
     30 C         -64.5624  -38.8968  -18.5957 C.2     1  UNL1        0.2443
     31 O         -65.4163  -38.9167  -17.6679 O.2     1  UNL1       -0.2730
     32 N         -64.4786  -37.7703  -19.4856 N.am    1  UNL1       -0.2825
     33 H         -63.9537  -37.9009  -20.3800 H       1  UNL1        0.1549
     34 C         -65.0936  -36.4887  -19.2577 C.ar    1  UNL1        0.0535
     35 C         -64.4388  -35.5519  -18.4454 C.ar    1  UNL1        0.0353
     36 C         -65.0416  -34.3200  -18.1815 C.ar    1  UNL1        0.1002
     37 N         -66.2664  -34.0361  -18.6969 N.ar    1  UNL1       -0.2422
     38 C         -66.9351  -34.9284  -19.4734 C.ar    1  UNL1        0.1002
     39 C         -66.3665  -36.1707  -19.7648 C.ar    1  UNL1        0.0353
     40 C         -64.1235  -41.3118  -18.0448 C.3     1  UNL1        0.0569
     41 C         -64.0931  -42.5178  -18.9412 C.ar    1  UNL1       -0.0017
     42 C         -65.1780  -43.3248  -19.2718 C.ar    1  UNL1        0.0681
     43 N         -64.8224  -44.2354  -20.2063 N.ar    1  UNL1       -0.3523
     44 C         -63.5263  -44.0033  -20.4773 C.ar    1  UNL1        0.0563
     45 C         -62.7282  -44.6623  -21.4113 C.ar    1  UNL1        0.0170
     46 C         -61.3984  -44.2291  -21.5624 C.ar    1  UNL1        0.0015
     47 C         -60.9020  -43.1590  -20.7860 C.ar    1  UNL1        0.0001
     48 C         -61.7309  -42.5116  -19.8521 C.ar    1  UNL1        0.0012
     49 C         -63.0451  -42.9624  -19.7248 C.ar    1  UNL1        0.0131
     50 H         -65.4402  -44.9531  -20.6462 H       1  UNL1        0.1660
@<TRIPOS>BOND
     1     1     2    2
     2     2     3   am
     3     3    29    1
     4    29    40    1
     5    40    41    1
     6    41    42   ar
     7    42    43   ar
     8    43    44   ar
     9    44    45   ar
    10    45    46   ar
    11    46    47   ar
    12    47    48   ar
    13    48    49   ar
    14    29    30    1
    15    30    31    2
    16    30    32   am
    17    32    34    1
    18    34    35   ar
    19    35    36   ar
    20    36    37   ar
    21    37    38   ar
    22    38    39   ar
    23     2     5    1
    24     5     6   ar
    25     6     7   ar
    26     7     8    1
    27     7     9   ar
    28     9    13    1
    29    13    14    1
    30    14    15    1
    31    15    16    1
    32    16    19    1
    33    19    20   ar
    34    20    21   ar
    35    21    22   ar
    36    22    25    1
    37    25    26    1
    38    25    27    1
    39    25    28    1
    40    22    23   ar
    41    23    24   ar
    42    16    17    1
    43    17    18    1
    44     9    10   ar
    45    10    11   ar
    46    11    12    1
    47    49    41   ar
    48    39    34   ar
    49    11     5   ar
    50    49    44   ar
    51    18    13    1
    52    24    19   ar
    53     3     4    1
    54    43    50    1
    55    32    33    1
@<TRIPOS>MOLECULE
*****
 50 55 0 0 0
SMALL
GASTEIGER

@<TRIPOS>ATOM
      1 O         -61.1644  -46.2468  -26.5201 O.2     1  UNL1       -0.2701
      2 C         -61.9520  -45.2756  -26.6885 C.2     1  UNL1        0.2484
      3 N         -62.5714  -45.0709  -27.9687 N.am    1  UNL1       -0.2945
      4 H         -62.9433  -44.1187  -28.1872 H       1  UNL1        0.1501
      5 C         -62.1962  -44.3378  -25.5684 C.ar    1  UNL1        0.0813
      6 C         -61.8319  -44.7073  -24.2615 C.ar    1  UNL1        0.0147
      7 C         -62.0477  -43.8380  -23.1870 C.ar    1  UNL1        0.0481
      8 BR        -61.5359  -44.3910  -21.4261 Br      1  UNL1       -0.0477
      9 C         -62.6410  -42.5856  -23.4090 C.ar    1  UNL1        0.0565
     10 C         -63.0254  -42.2200  -24.7039 C.ar    1  UNL1        0.0448
     11 C         -62.8094  -43.0866  -25.7791 C.ar    1  UNL1        0.1457
     12 F         -63.2439  -42.7175  -27.0106 F       1  UNL1       -0.2040
     13 N         -62.8717  -41.6843  -22.3203 N.pl3   1  UNL1       -0.3036
     14 C         -64.2278  -41.5518  -21.7783 C.3     1  UNL1        0.1123
     15 C         -64.2340  -40.7617  -20.4645 C.3     1  UNL1        0.1136
     16 N         -63.4116  -39.5458  -20.5803 N.pl3   1  UNL1       -0.2897
     17 C         -62.1117  -39.6034  -21.2744 C.3     1  UNL1        0.1136
     18 C         -61.7354  -41.0348  -21.6659 C.3     1  UNL1        0.1123
     19 C         -63.8020  -38.3496  -19.8667 C.ar    1  UNL1        0.1318
     20 C         -64.9490  -38.3215  -19.0534 C.ar    1  UNL1        0.0343
     21 C         -65.2925  -37.1468  -18.3825 C.ar    1  UNL1        0.0083
     22 C         -64.4889  -36.0037  -18.5000 C.ar    1  UNL1        0.0906
     23 C         -63.3660  -36.0631  -19.3385 C.ar    1  UNL1        0.1041
     24 N         -63.0523  -37.2172  -19.9839 N.ar    1  UNL1       -0.2292
     25 C         -64.8769  -34.7152  -17.8206 C.3     1  UNL1        0.4200
     26 F         -65.0221  -34.9064  -16.4574 F       1  UNL1       -0.1658
     27 F         -63.8923  -33.7702  -18.0408 F       1  UNL1       -0.1658
     28 F         -66.0770  -34.2415  -18.3217 F       1  UNL1       -0.1658
     29 C         -62.4493  -46.0373  -29.0656 C.3     1  UNL1        0.1535
     30 C         -63.8033  -46.3158  -29.6772 C.2     1  UNL1        0.2443
     31 O         -64.6445  -45.3837  -29.7952 O.2     1  UNL1       -0.2730
     32 N         -64.1159  -47.6426  -30.1357 N.am    1  UNL1       -0.2825
     33 H         -63.5157  -48.4255  -29.7903 H       1  UNL1        0.1549
     34 C         -65.2143  -47.9806  -31.0028 C.ar    1  UNL1        0.0535
     35 C         -66.0633  -49.0389  -30.6483 C.ar    1  UNL1        0.0353
     36 C         -67.1084  -49.4054  -31.4993 C.ar    1  UNL1        0.1002
     37 N         -67.2922  -48.7495  -32.6750 N.ar    1  UNL1       -0.2422
     38 C         -66.4769  -47.7314  -33.0561 C.ar    1  UNL1        0.1002
     39 C         -65.4219  -47.3307  -32.2328 C.ar    1  UNL1        0.0353
     40 C         -61.4654  -45.4984  -30.1180 C.3     1  UNL1        0.0569
     41 C         -61.7897  -44.0831  -30.5063 C.ar    1  UNL1       -0.0017
     42 C         -62.6379  -43.6863  -31.5362 C.ar    1  UNL1        0.0681
     43 N         -62.8083  -42.3448  -31.5178 N.ar    1  UNL1       -0.3523
     44 C         -62.0851  -41.8924  -30.4789 C.ar    1  UNL1        0.0563
     45 C         -61.9820  -40.5758  -30.0319 C.ar    1  UNL1        0.0170
     46 C         -61.1956  -40.3278  -28.8922 C.ar    1  UNL1        0.0015
     47 C         -60.5381  -41.3891  -28.2320 C.ar    1  UNL1        0.0001
     48 C         -60.6614  -42.7080  -28.7047 C.ar    1  UNL1        0.0012
     49 C         -61.4484  -42.9235  -29.8365 C.ar    1  UNL1        0.0131
     50 H         -63.4046  -41.7818  -32.1643 H       1  UNL1        0.1660
@<TRIPOS>BOND
     1     1     2    2
     2     2     3   am
     3     3    29    1
     4    29    40    1
     5    40    41    1
     6    41    42   ar
     7    42    43   ar
     8    43    44   ar
     9    44    45   ar
    10    45    46   ar
    11    46    47   ar
    12    47    48   ar
    13    48    49   ar
    14    29    30    1
    15    30    31    2
    16    30    32   am
    17    32    34    1
    18    34    35   ar
    19    35    36   ar
    20    36    37   ar
    21    37    38   ar
    22    38    39   ar
    23     2     5    1
    24     5     6   ar
    25     6     7   ar
    26     7     8    1
    27     7     9   ar
    28     9    13    1
    29    13    14    1
    30    14    15    1
    31    15    16    1
    32    16    19    1
    33    19    20   ar
    34    20    21   ar
    35    21    22   ar
    36    22    25    1
    37    25    26    1
    38    25    27    1
    39    25    28    1
    40    22    23   ar
    41    23    24   ar
    42    16    17    1
    43    17    18    1
    44     9    10   ar
    45    10    11   ar
    46    11    12    1
    47    49    41   ar
    48    39    34   ar
    49    11     5   ar
    50    49    44   ar
    51    18    13    1
    52    24    19   ar
    53     3     4    1
    54    43    50    1
    55    32    33    1
@<TRIPOS>MOLECULE
*****
 50 55 0 0 0
SMALL
GASTEIGER

@<TRIPOS>ATOM
      1 O         -61.1759  -45.7339  -26.6063 O.2     1  UNL1       -0.2701
      2 C         -62.3346  -45.3803  -26.2541 C.2     1  UNL1        0.2484
      3 N         -63.4832  -45.9257  -26.9234 N.am    1  UNL1       -0.2945
      4 H         -64.3853  -45.4019  -26.8555 H       1  UNL1        0.1501
      5 C         -62.4898  -44.3762  -25.1763 C.ar    1  UNL1        0.0813
      6 C         -63.1544  -43.1665  -25.4448 C.ar    1  UNL1        0.0147
      7 C         -63.3181  -42.2038  -24.4431 C.ar    1  UNL1        0.0481
      8 BR        -64.2284  -40.5715  -24.8619 Br      1  UNL1       -0.0477
      9 C         -62.8086  -42.4396  -23.1568 C.ar    1  UNL1        0.0565
     10 C         -62.1277  -43.6321  -22.8882 C.ar    1  UNL1        0.0448
     11 C         -61.9642  -44.5959  -23.8874 C.ar    1  UNL1        0.1457
     12 F         -61.2525  -45.7155  -23.6021 F       1  UNL1       -0.2040
     13 N         -62.9649  -41.4640  -22.1201 N.pl3   1  UNL1       -0.3036
     14 C         -64.2236  -41.4154  -21.3694 C.3     1  UNL1        0.1123
     15 C         -64.1112  -40.5055  -20.1405 C.3     1  UNL1        0.1136
     16 N         -63.4624  -39.2307  -20.4900 N.pl3   1  UNL1       -0.2897
     17 C         -62.2917  -39.2256  -21.3866 C.3     1  UNL1        0.1136
     18 C         -61.8209  -40.6435  -21.7207 C.3     1  UNL1        0.1123
     19 C         -63.8688  -38.0156  -19.8183 C.ar    1  UNL1        0.1318
     20 C         -63.0120  -36.9039  -19.7304 C.ar    1  UNL1        0.0343
     21 C         -63.4412  -35.7503  -19.0723 C.ar    1  UNL1        0.0083
     22 C         -64.7278  -35.6888  -18.5180 C.ar    1  UNL1        0.0906
     23 C         -65.5449  -36.8256  -18.6053 C.ar    1  UNL1        0.1041
     24 N         -65.1048  -37.9387  -19.2488 N.ar    1  UNL1       -0.2292
     25 C         -65.1839  -34.4671  -17.7617 C.3     1  UNL1        0.4200
     26 F         -65.1386  -34.6926  -16.3968 F       1  UNL1       -0.1658
     27 F         -64.3551  -33.4048  -18.0708 F       1  UNL1       -0.1658
     28 F         -66.4844  -34.1391  -18.1036 F       1  UNL1       -0.1658
     29 C         -63.3794  -47.0048  -27.9116 C.3     1  UNL1        0.1535
     30 C         -62.9895  -46.4485  -29.2620 C.2     1  UNL1        0.2443
     31 O         -63.6565  -46.7578  -30.2866 O.2     1  UNL1       -0.2730
     32 N         -61.8671  -45.5554  -29.3647 N.am    1  UNL1       -0.2825
     33 H         -61.1953  -45.5319  -28.5643 H       1  UNL1        0.1549
     34 C         -61.5765  -44.7194  -30.5002 C.ar    1  UNL1        0.0535
     35 C         -62.6055  -43.9513  -31.0637 C.ar    1  UNL1        0.0353
     36 C         -62.3491  -43.1670  -32.1905 C.ar    1  UNL1        0.1002
     37 N         -61.1105  -43.1607  -32.7493 N.ar    1  UNL1       -0.2422
     38 C         -60.0963  -43.9068  -32.2383 C.ar    1  UNL1        0.1002
     39 C         -60.3091  -44.7025  -31.1100 C.ar    1  UNL1        0.0353
     40 C         -62.3599  -48.0495  -27.4265 C.3     1  UNL1        0.0569
     41 C         -62.8388  -48.7589  -26.1910 C.ar    1  UNL1       -0.0017
     42 C         -64.0705  -49.3863  -26.0279 C.ar    1  UNL1        0.0681
     43 N         -64.1151  -50.0397  -24.8447 N.ar    1  UNL1       -0.3523
     44 C         -62.9190  -49.8403  -24.2646 C.ar    1  UNL1        0.0563
     45 C         -62.4749  -50.3553  -23.0475 C.ar    1  UNL1        0.0170
     46 C         -61.1620  -50.0509  -22.6443 C.ar    1  UNL1        0.0015
     47 C         -60.3318  -49.2485  -23.4575 C.ar    1  UNL1        0.0001
     48 C         -60.8063  -48.7439  -24.6817 C.ar    1  UNL1        0.0012
     49 C         -62.1120  -49.0630  -25.0556 C.ar    1  UNL1        0.0131
     50 H         -64.9097  -50.6066  -24.4736 H       1  UNL1        0.1660
@<TRIPOS>BOND
     1     1     2    2
     2     2     3   am
     3     3    29    1
     4    29    40    1
     5    40    41    1
     6    41    42   ar
     7    42    43   ar
     8    43    44   ar
     9    44    45   ar
    10    45    46   ar
    11    46    47   ar
    12    47    48   ar
    13    48    49   ar
    14    29    30    1
    15    30    31    2
    16    30    32   am
    17    32    34    1
    18    34    35   ar
    19    35    36   ar
    20    36    37   ar
    21    37    38   ar
    22    38    39   ar
    23     2     5    1
    24     5     6   ar
    25     6     7   ar
    26     7     8    1
    27     7     9   ar
    28     9    13    1
    29    13    14    1
    30    14    15    1
    31    15    16    1
    32    16    19    1
    33    19    20   ar
    34    20    21   ar
    35    21    22   ar
    36    22    25    1
    37    25    26    1
    38    25    27    1
    39    25    28    1
    40    22    23   ar
    41    23    24   ar
    42    16    17    1
    43    17    18    1
    44     9    10   ar
    45    10    11   ar
    46    11    12    1
    47    49    41   ar
    48    39    34   ar
    49    11     5   ar
    50    49    44   ar
    51    18    13    1
    52    24    19   ar
    53     3     4    1
    54    43    50    1
    55    32    33    1
@<TRIPOS>MOLECULE
*****
 50 55 0 0 0
SMALL
GASTEIGER

@<TRIPOS>ATOM
      1 O         -60.4508  -45.6485  -26.5134 O.2     1  UNL1       -0.2701
      2 C         -60.7148  -44.4339  -26.7302 C.2     1  UNL1        0.2484
      3 N         -60.5335  -43.8866  -28.0464 N.am    1  UNL1       -0.2945
      4 H         -60.4391  -42.8496  -28.1378 H       1  UNL1        0.1501
      5 C         -61.1739  -43.5808  -25.6099 C.ar    1  UNL1        0.0813
      6 C         -60.4966  -43.6278  -24.3786 C.ar    1  UNL1        0.0147
      7 C         -60.9074  -42.8288  -23.3064 C.ar    1  UNL1        0.0481
      8 BR        -59.9523  -42.9330  -21.6494 Br      1  UNL1       -0.0477
      9 C         -62.0116  -41.9751  -23.4534 C.ar    1  UNL1        0.0565
     10 C         -62.7033  -41.9387  -24.6692 C.ar    1  UNL1        0.0448
     11 C         -62.2936  -42.7354  -25.7422 C.ar    1  UNL1        0.1457
     12 F         -63.0219  -42.7108  -26.8870 F       1  UNL1       -0.2040
     13 N         -62.4475  -41.1521  -22.3654 N.pl3   1  UNL1       -0.3036
     14 C         -63.8814  -41.0536  -22.0748 C.3     1  UNL1        0.1123
     15 C         -64.1370  -40.3582  -20.7325 C.3     1  UNL1        0.1136
     16 N         -63.3191  -39.1400  -20.6092 N.pl3   1  UNL1       -0.2897
     17 C         -61.9132  -39.1529  -21.0541 C.3     1  UNL1        0.1136
     18 C         -61.4574  -40.5544  -21.4689 C.3     1  UNL1        0.1123
     19 C         -63.8457  -37.9959  -19.8978 C.ar    1  UNL1        0.1318
     20 C         -65.1853  -37.9491  -19.4723 C.ar    1  UNL1        0.0343
     21 C         -65.6554  -36.8259  -18.7899 C.ar    1  UNL1        0.0083
     22 C         -64.7936  -35.7558  -18.5098 C.ar    1  UNL1        0.0906
     23 C         -63.4706  -35.8287  -18.9704 C.ar    1  UNL1        0.1041
     24 N         -63.0357  -36.9314  -19.6351 N.ar    1  UNL1       -0.2292
     25 C         -65.3023  -34.5168  -17.8179 C.3     1  UNL1        0.4200
     26 F         -64.5232  -33.4203  -18.1446 F       1  UNL1       -0.1658
     27 F         -66.6053  -34.2777  -18.2128 F       1  UNL1       -0.1658
     28 F         -65.2696  -34.6773  -16.4435 F       1  UNL1       -0.1658
     29 C         -60.1944  -44.7196  -29.2052 C.3     1  UNL1        0.1535
     30 C         -60.7994  -46.0973  -29.0605 C.2     1  UNL1        0.2443
     31 O         -60.0663  -47.1195  -29.1510 O.2     1  UNL1       -0.2730
     32 N         -62.2081  -46.2307  -28.8038 N.am    1  UNL1       -0.2825
     33 H         -62.8133  -45.4000  -28.9943 H       1  UNL1        0.1549
     34 C         -62.8545  -47.4310  -28.3411 C.ar    1  UNL1        0.0535
     35 C         -63.6270  -48.1804  -29.2401 C.ar    1  UNL1        0.0353
     36 C         -64.2937  -49.3246  -28.7963 C.ar    1  UNL1        0.1002
     37 N         -64.2075  -49.7017  -27.4938 N.ar    1  UNL1       -0.2422
     38 C         -63.4817  -48.9882  -26.5936 C.ar    1  UNL1        0.1002
     39 C         -62.7965  -47.8393  -26.9964 C.ar    1  UNL1        0.0353
     40 C         -60.6813  -44.0323  -30.4923 C.3     1  UNL1        0.0569
     41 C         -61.7751  -43.0406  -30.2109 C.ar    1  UNL1       -0.0017
     42 C         -61.6107  -41.6776  -29.9811 C.ar    1  UNL1        0.0681
     43 N         -62.8130  -41.0636  -29.8999 N.ar    1  UNL1       -0.3523
     44 C         -63.7344  -42.0241  -30.0880 C.ar    1  UNL1        0.0563
     45 C         -65.1191  -41.8679  -30.1343 C.ar    1  UNL1        0.0170
     46 C         -65.9018  -43.0097  -30.3841 C.ar    1  UNL1        0.0015
     47 C         -65.2901  -44.2674  -30.5806 C.ar    1  UNL1        0.0001
     48 C         -63.8903  -44.3948  -30.5298 C.ar    1  UNL1        0.0012
     49 C         -63.1401  -43.2451  -30.2810 C.ar    1  UNL1        0.0131
     50 H         -62.9853  -40.0447  -29.7498 H       1  UNL1        0.1660
@<TRIPOS>BOND
     1     1     2    2
     2     2     3   am
     3     3    29    1
     4    29    40    1
     5    40    41    1
     6    41    42   ar
     7    42    43   ar
     8    43    44   ar
     9    44    45   ar
    10    45    46   ar
    11    46    47   ar
    12    47    48   ar
    13    48    49   ar
    14    29    30    1
    15    30    31    2
    16    30    32   am
    17    32    34    1
    18    34    35   ar
    19    35    36   ar
    20    36    37   ar
    21    37    38   ar
    22    38    39   ar
    23     2     5    1
    24     5     6   ar
    25     6     7   ar
    26     7     8    1
    27     7     9   ar
    28     9    13    1
    29    13    14    1
    30    14    15    1
    31    15    16    1
    32    16    19    1
    33    19    20   ar
    34    20    21   ar
    35    21    22   ar
    36    22    25    1
    37    25    26    1
    38    25    27    1
    39    25    28    1
    40    22    23   ar
    41    23    24   ar
    42    16    17    1
    43    17    18    1
    44     9    10   ar
    45    10    11   ar
    46    11    12    1
    47    49    41   ar
    48    39    34   ar
    49    11     5   ar
    50    49    44   ar
    51    18    13    1
    52    24    19   ar
    53     3     4    1
    54    43    50    1
    55    32    33    1
@<TRIPOS>MOLECULE
*****
 50 55 0 0 0
SMALL
GASTEIGER

@<TRIPOS>ATOM
      1 O         -63.0085  -54.5256  -22.4697 O.2     1  UNL1       -0.2701
      2 C         -63.9103  -53.6978  -22.7752 C.2     1  UNL1        0.2484
      3 N         -65.2929  -54.0566  -22.6195 N.am    1  UNL1       -0.2945
      4 H         -66.0041  -53.5165  -23.1627 H       1  UNL1        0.1501
      5 C         -63.5260  -52.3778  -23.3263 C.ar    1  UNL1        0.0813
      6 C         -62.5177  -51.6285  -22.6945 C.ar    1  UNL1        0.0147
      7 C         -62.1332  -50.3812  -23.1978 C.ar    1  UNL1        0.0481
      8 BR        -60.7565  -49.3995  -22.2978 Br      1  UNL1       -0.0477
      9 C         -62.7626  -49.8640  -24.3405 C.ar    1  UNL1        0.0565
     10 C         -63.7814  -50.5947  -24.9620 C.ar    1  UNL1        0.0448
     11 C         -64.1661  -51.8418  -24.4615 C.ar    1  UNL1        0.1457
     12 F         -65.1936  -52.4953  -25.0607 F       1  UNL1       -0.2040
     13 N         -62.3833  -48.5876  -24.8678 N.pl3   1  UNL1       -0.3036
     14 C         -63.0361  -47.3799  -24.3525 C.3     1  UNL1        0.1123
     15 C         -62.3239  -46.1084  -24.8289 C.3     1  UNL1        0.1136
     16 N         -62.0345  -46.1790  -26.2709 N.pl3   1  UNL1       -0.2897
     17 C         -61.5373  -47.4370  -26.8582 C.3     1  UNL1        0.1136
     18 C         -61.2495  -48.4932  -25.7880 C.3     1  UNL1        0.1123
     19 C         -62.0751  -44.9716  -27.0667 C.ar    1  UNL1        0.1318
     20 C         -63.2018  -44.6400  -27.8403 C.ar    1  UNL1        0.0343
     21 C         -63.2008  -43.4664  -28.5958 C.ar    1  UNL1        0.0083
     22 C         -62.0916  -42.6089  -28.5702 C.ar    1  UNL1        0.0906
     23 C         -60.9775  -42.9849  -27.8053 C.ar    1  UNL1        0.1041
     24 N         -61.0000  -44.1336  -27.0795 N.ar    1  UNL1       -0.2292
     25 C         -62.0590  -41.3646  -29.4205 C.3     1  UNL1        0.4200
     26 F         -61.1596  -40.4460  -28.9076 F       1  UNL1       -0.1658
     27 F         -61.6760  -41.7014  -30.7054 F       1  UNL1       -0.1658
     28 F         -63.3083  -40.7701  -29.4633 F       1  UNL1       -0.1658
     29 C         -65.7143  -55.3031  -21.9709 C.3     1  UNL1        0.1535
     30 C         -66.7482  -55.0204  -20.9050 C.2     1  UNL1        0.2443
     31 O         -67.3219  -53.8980  -20.8664 O.2     1  UNL1       -0.2730
     32 N         -67.0817  -56.0430  -19.9504 N.am    1  UNL1       -0.2825
     33 H         -66.4164  -56.8428  -19.8491 H       1  UNL1        0.1549
     34 C         -68.2409  -56.0313  -19.0969 C.ar    1  UNL1        0.0535
     35 C         -68.2019  -55.2978  -17.9024 C.ar    1  UNL1        0.0353
     36 C         -69.3035  -55.3099  -17.0439 C.ar    1  UNL1        0.1002
     37 N         -70.4038  -56.0432  -17.3571 N.ar    1  UNL1       -0.2422
     38 C         -70.4670  -56.7786  -18.4980 C.ar    1  UNL1        0.1002
     39 C         -69.3885  -56.7915  -19.3859 C.ar    1  UNL1        0.0353
     40 C         -66.2613  -56.2744  -23.0308 C.3     1  UNL1        0.0569
     41 C         -67.2653  -55.6069  -23.9283 C.ar    1  UNL1       -0.0017
     42 C         -66.9971  -54.9883  -25.1460 C.ar    1  UNL1        0.0681
     43 N         -68.1481  -54.6160  -25.7507 N.ar    1  UNL1       -0.3523
     44 C         -69.1407  -55.0042  -24.9316 C.ar    1  UNL1        0.0563
     45 C         -70.5121  -54.8759  -25.1477 C.ar    1  UNL1        0.0170
     46 C         -71.3830  -55.3905  -24.1701 C.ar    1  UNL1        0.0015
     47 C         -70.8696  -56.0152  -23.0122 C.ar    1  UNL1        0.0001
     48 C         -69.4809  -56.1318  -22.8215 C.ar    1  UNL1        0.0012
     49 C         -68.6420  -55.6129  -23.8082 C.ar    1  UNL1        0.0131
     50 H         -68.2429  -54.1475  -26.6791 H       1  UNL1        0.1660
@<TRIPOS>BOND
     1     1     2    2
     2     2     3   am
     3     3    29    1
     4    29    40    1
     5    40    41    1
     6    41    42   ar
     7    42    43   ar
     8    43    44   ar
     9    44    45   ar
    10    45    46   ar
    11    46    47   ar
    12    47    48   ar
    13    48    49   ar
    14    29    30    1
    15    30    31    2
    16    30    32   am
    17    32    34    1
    18    34    35   ar
    19    35    36   ar
    20    36    37   ar
    21    37    38   ar
    22    38    39   ar
    23     2     5    1
    24     5     6   ar
    25     6     7   ar
    26     7     8    1
    27     7     9   ar
    28     9    13    1
    29    13    14    1
    30    14    15    1
    31    15    16    1
    32    16    19    1
    33    19    20   ar
    34    20    21   ar
    35    21    22   ar
    36    22    25    1
    37    25    26    1
    38    25    27    1
    39    25    28    1
    40    22    23   ar
    41    23    24   ar
    42    16    17    1
    43    17    18    1
    44     9    10   ar
    45    10    11   ar
    46    11    12    1
    47    49    41   ar
    48    39    34   ar
    49    11     5   ar
    50    49    44   ar
    51    18    13    1
    52    24    19   ar
    53     3     4    1
    54    43    50    1
    55    32    33    1
@<TRIPOS>MOLECULE
*****
 50 55 0 0 0
SMALL
GASTEIGER

@<TRIPOS>ATOM
      1 O         -60.5726  -41.3767  -21.5990 O.2     1  UNL1       -0.2701
      2 C         -61.7489  -41.4176  -22.0535 C.2     1  UNL1        0.2484
      3 N         -62.8092  -40.7449  -21.3551 N.am    1  UNL1       -0.2945
      4 H         -63.7915  -41.0473  -21.5457 H       1  UNL1        0.1501
      5 C         -62.0235  -42.1931  -23.2852 C.ar    1  UNL1        0.0813
      6 C         -61.2497  -43.3304  -23.5766 C.ar    1  UNL1        0.0147
      7 C         -61.4919  -44.0826  -24.7309 C.ar    1  UNL1        0.0481
      8 BR        -60.4070  -45.6214  -25.0828 Br      1  UNL1       -0.0477
      9 C         -62.5117  -43.6978  -25.6150 C.ar    1  UNL1        0.0565
     10 C         -63.2717  -42.5551  -25.3421 C.ar    1  UNL1        0.0448
     11 C         -63.0322  -41.8029  -24.1885 C.ar    1  UNL1        0.1457
     12 F         -63.7551  -40.6723  -23.9864 F       1  UNL1       -0.2040
     13 N         -62.7716  -44.4547  -26.8027 N.pl3   1  UNL1       -0.3036
     14 C         -62.9983  -43.7453  -28.0658 C.3     1  UNL1        0.1123
     15 C         -62.9906  -44.7066  -29.2603 C.3     1  UNL1        0.1136
     16 N         -63.8069  -45.8992  -28.9784 N.pl3   1  UNL1       -0.2897
     17 C         -63.7334  -46.5412  -27.6529 C.3     1  UNL1        0.1136
     18 C         -62.6504  -45.9126  -26.7722 C.3     1  UNL1        0.1123
     19 C         -64.5409  -46.5316  -30.0525 C.ar    1  UNL1        0.1318
     20 C         -64.9922  -45.7982  -31.1644 C.ar    1  UNL1        0.0343
     21 C         -65.6987  -46.4454  -32.1794 C.ar    1  UNL1        0.0083
     22 C         -65.9416  -47.8244  -32.1043 C.ar    1  UNL1        0.0906
     23 C         -65.4964  -48.5176  -30.9691 C.ar    1  UNL1        0.1041
     24 N         -64.8125  -47.8660  -29.9920 N.ar    1  UNL1       -0.2292
     25 C         -66.7464  -48.5247  -33.1694 C.3     1  UNL1        0.4200
     26 F         -67.9254  -47.8432  -33.4177 F       1  UNL1       -0.1658
     27 F         -66.0055  -48.5830  -34.3350 F       1  UNL1       -0.1658
     28 F         -67.0654  -49.8118  -32.7727 F       1  UNL1       -0.1658
     29 C         -62.5625  -39.8726  -20.2017 C.3     1  UNL1        0.1535
     30 C         -63.6213  -38.7971  -20.1170 C.2     1  UNL1        0.2443
     31 O         -64.8238  -39.0758  -20.3753 O.2     1  UNL1       -0.2730
     32 N         -63.2497  -37.4641  -19.7256 N.am    1  UNL1       -0.2825
     33 H         -62.2365  -37.2120  -19.7762 H       1  UNL1        0.1549
     34 C         -64.1689  -36.4387  -19.3058 C.ar    1  UNL1        0.0535
     35 C         -63.7547  -35.5001  -18.3500 C.ar    1  UNL1        0.0353
     36 C         -64.6482  -34.5244  -17.9024 C.ar    1  UNL1        0.1002
     37 N         -65.9201  -34.4945  -18.3794 N.ar    1  UNL1       -0.2422
     38 C         -66.3582  -35.3999  -19.2930 C.ar    1  UNL1        0.1002
     39 C         -65.4958  -36.3902  -19.7697 C.ar    1  UNL1        0.0353
     40 C         -62.5260  -40.7176  -18.9169 C.3     1  UNL1        0.0569
     41 C         -63.7617  -41.5610  -18.7732 C.ar    1  UNL1       -0.0017
     42 C         -64.9362  -41.1953  -18.1220 C.ar    1  UNL1        0.0681
     43 N         -65.8898  -42.1371  -18.3026 N.ar    1  UNL1       -0.3523
     44 C         -65.3319  -43.0883  -19.0714 C.ar    1  UNL1        0.0563
     45 C         -65.9412  -44.2429  -19.5608 C.ar    1  UNL1        0.0170
     46 C         -65.1793  -45.0890  -20.3869 C.ar    1  UNL1        0.0015
     47 C         -63.8413  -44.7656  -20.7023 C.ar    1  UNL1        0.0001
     48 C         -63.2530  -43.5928  -20.1953 C.ar    1  UNL1        0.0012
     49 C         -64.0332  -42.7729  -19.3795 C.ar    1  UNL1        0.0131
     50 H         -66.8688  -42.1126  -17.9401 H       1  UNL1        0.1660
@<TRIPOS>BOND
     1     1     2    2
     2     2     3   am
     3     3    29    1
     4    29    40    1
     5    40    41    1
     6    41    42   ar
     7    42    43   ar
     8    43    44   ar
     9    44    45   ar
    10    45    46   ar
    11    46    47   ar
    12    47    48   ar
    13    48    49   ar
    14    29    30    1
    15    30    31    2
    16    30    32   am
    17    32    34    1
    18    34    35   ar
    19    35    36   ar
    20    36    37   ar
    21    37    38   ar
    22    38    39   ar
    23     2     5    1
    24     5     6   ar
    25     6     7   ar
    26     7     8    1
    27     7     9   ar
    28     9    13    1
    29    13    14    1
    30    14    15    1
    31    15    16    1
    32    16    19    1
    33    19    20   ar
    34    20    21   ar
    35    21    22   ar
    36    22    25    1
    37    25    26    1
    38    25    27    1
    39    25    28    1
    40    22    23   ar
    41    23    24   ar
    42    16    17    1
    43    17    18    1
    44     9    10   ar
    45    10    11   ar
    46    11    12    1
    47    49    41   ar
    48    39    34   ar
    49    11     5   ar
    50    49    44   ar
    51    18    13    1
    52    24    19   ar
    53     3     4    1
    54    43    50    1
    55    32    33    1
