@<TRIPOS>MOLECULE
*****
 59 63 0 0 0
SMALL
GASTEIGER

@<TRIPOS>ATOM
      1 C          49.8490   12.5097  -17.7269 C.ar    1  UNL1        0.0548
      2 C          51.2086   12.5557  -18.0778 C.ar    1  UNL1        0.0077
      3 C          51.5916   12.6059  -19.4197 C.ar    1  UNL1        0.0390
      4 C          50.6318   12.6069  -20.4364 C.ar    1  UNL1        0.1598
      5 C          49.2627   12.6291  -20.0932 C.ar    1  UNL1        0.0993
      6 C          48.8829   12.5591  -18.7459 C.ar    1  UNL1        0.0235
      7 N          49.8398   11.3635  -15.4570 N.am    1  UNL1       -0.3040
      8 C          49.4281   12.4532  -16.3065 C.2     1  UNL1        0.2458
      9 O          48.6847   13.3644  -15.8523 O.2     1  UNL1       -0.2701
     10 H          50.2527   10.5242  -15.9236 H       1  UNL1        0.1496
     11 C          50.2677   12.6599  -13.4124 C.3     1  UNL1        0.0196
     12 C          49.7057   11.3428  -13.9865 C.3     1  UNL1        0.0572
     13 C          48.2209   11.2313  -13.5882 C.3     1  UNL1        0.0196
     14 C          50.5095   10.1692  -13.3929 C.3     1  UNL1        0.0196
     15 N          48.2481   12.7455  -21.0915 N.pl3   1  UNL1       -0.2120
     16 H          48.2367   13.6122  -21.6714 H       1  UNL1        0.1738
     17 S          47.5803   11.3216  -21.8134 S.O2    1  UNL1        0.0745
     18 O          46.2322   11.6311  -22.4003 O.2     1  UNL1       -0.1499
     19 O          47.4138   10.2534  -20.7692 O.2     1  UNL1       -0.1499
     20 C          48.6716   10.7455  -23.0792 C.ar    1  UNL1        0.1356
     21 C          48.5650   11.2692  -24.3744 C.ar    1  UNL1        0.0207
     22 C          49.3816   10.7926  -25.4018 C.ar    1  UNL1       -0.0028
     23 C          50.3274    9.7850  -25.1601 C.ar    1  UNL1       -0.0207
     24 C          50.4562    9.2818  -23.8490 C.ar    1  UNL1        0.0085
     25 C          49.6424    9.7590  -22.8147 C.ar    1  UNL1        0.0762
     26 CL         49.8740    9.0881  -21.2030 Cl      1  UNL1       -0.0809
     27 C          51.1535    9.2939  -26.3380 C.3     1  UNL1        0.0338
     28 C          50.4066    8.8364  -27.5859 C.3     1  UNL1        0.0169
     29 C          51.1525   10.1662  -27.5874 C.3     1  UNL1        0.0615
     30 BR         52.8204   10.1194  -28.5777 Br      1  UNL1       -0.0813
     31 O          51.0792   12.6003  -21.7654 O.3     1  UNL1       -0.4513
     32 C          50.7789   13.5598  -22.7468 C.ar    1  UNL1        0.1580
     33 C          49.9508   14.6264  -22.3781 C.ar    1  UNL1        0.0677
     34 C          49.6311   15.6347  -23.2891 C.ar    1  UNL1        0.1398
     35 F          48.8193   16.6494  -22.8974 F       1  UNL1       -0.2044
     36 C          50.1566   15.6026  -24.5902 C.ar    1  UNL1        0.0175
     37 C          50.9903   14.5384  -24.9665 C.ar    1  UNL1        0.0130
     38 C          51.3173   13.5266  -24.0548 C.ar    1  UNL1        0.0919
     39 CL         52.4941   12.3215  -24.5645 Cl      1  UNL1       -0.0791
     40 C          49.8416   16.7028  -25.5690 C.3     1  UNL1        0.1382
     41 C          49.0110   16.1772  -26.6936 C.2     1  UNL1        0.3234
     42 O          49.2191   16.5814  -27.8703 O.2     1  UNL1       -0.2497
     43 O          47.9921   15.2589  -26.4217 O.3     1  UNL1       -0.4215
     44 C          46.7977   15.1542  -27.2018 C.3     1  UNL1        0.3207
     45 O          45.6548   15.3334  -26.3808 O.3     1  UNL1       -0.3070
     46 C          45.5661   14.3891  -25.3147 C.3     1  UNL1        0.2456
     47 C          46.1343   12.9821  -25.6519 C.3     1  UNL1        0.1781
     48 O          45.4308   12.0061  -24.9251 O.3     1  UNL1       -0.3790
     49 C          45.9863   12.7283  -27.1607 C.3     1  UNL1        0.1733
     50 O          46.4327   11.4414  -27.5112 O.3     1  UNL1       -0.3793
     51 C          46.7394   13.8102  -27.9702 C.3     1  UNL1        0.2106
     52 O          46.0973   14.0086  -29.2036 O.3     1  UNL1       -0.3766
     53 H          46.0146   11.2046  -24.8760 H       1  UNL1        0.2106
     54 H          47.3808   11.3629  -27.2261 H       1  UNL1        0.2105
     55 H          46.3015   13.2150  -29.7644 H       1  UNL1        0.2107
     56 C          46.1703   14.9476  -24.0539 C.2     1  UNL1        0.3439
     57 O          46.2196   16.1948  -23.8779 O.2     1  UNL1       -0.2475
     58 O          46.7104   14.0965  -23.0949 O.3     1  UNL1       -0.4785
     59 H          47.1128   14.4703  -22.2448 H       1  UNL1        0.2951
@<TRIPOS>BOND
     1    11    12    1
     2    12    13    1
     3    12    14    1
     4    12     7    1
     5     7     8   am
     6     8     9    2
     7     8     1    1
     8     1     2   ar
     9     2     3   ar
    10     3     4   ar
    11     4    31    1
    12    31    32    1
    13    32    33   ar
    14    33    34   ar
    15    34    35    1
    16    34    36   ar
    17    36    40    1
    18    40    41    1
    19    41    42    2
    20    41    43    1
    21    43    44    1
    22    44    45    1
    23    45    46    1
    24    46    56    1
    25    56    57    2
    26    56    58    1
    27    46    47    1
    28    47    48    1
    29    47    49    1
    30    49    50    1
    31    49    51    1
    32    51    52    1
    33    36    37   ar
    34    37    38   ar
    35    38    39    1
    36     4     5   ar
    37     5    15    1
    38    15    17    1
    39    17    18    2
    40    17    19    2
    41    17    20    1
    42    20    21   ar
    43    21    22   ar
    44    22    23   ar
    45    23    27    1
    46    27    28    1
    47    28    29    1
    48    29    30    1
    49    23    24   ar
    50    24    25   ar
    51    25    26    1
    52     5     6   ar
    53     6     1   ar
    54    38    32   ar
    55    25    20   ar
    56    51    44    1
    57    29    27    1
    58     7    10    1
    59    58    59    1
    60    48    53    1
    61    50    54    1
    62    52    55    1
    63    15    16    1
@<TRIPOS>MOLECULE
*****
 59 63 0 0 0
SMALL
GASTEIGER

@<TRIPOS>ATOM
      1 C          47.6790   12.6276  -18.8783 C.ar    1  UNL1        0.0548
      2 C          46.6840   11.6939  -19.2128 C.ar    1  UNL1        0.0077
      3 C          46.4757   11.3282  -20.5443 C.ar    1  UNL1        0.0390
      4 C          47.2487   11.8863  -21.5670 C.ar    1  UNL1        0.1598
      5 C          48.2952   12.7738  -21.2355 C.ar    1  UNL1        0.0993
      6 C          48.4880   13.1528  -19.9001 C.ar    1  UNL1        0.0235
      7 N          48.6395   12.1705  -16.5686 N.am    1  UNL1       -0.3040
      8 C          47.9092   13.0273  -17.4693 C.2     1  UNL1        0.2458
      9 O          47.4388   14.1228  -17.0598 O.2     1  UNL1       -0.2701
     10 H          48.8066   11.1858  -16.8767 H       1  UNL1        0.1496
     11 C          48.7373   11.5212  -14.1995 C.3     1  UNL1        0.0196
     12 C          49.1504   12.5783  -15.2444 C.3     1  UNL1        0.0572
     13 C          50.6892   12.6636  -15.2700 C.3     1  UNL1        0.0196
     14 C          48.5451   13.9346  -14.8324 C.3     1  UNL1        0.0196
     15 N          49.1836   13.2805  -22.2323 N.pl3   1  UNL1       -0.2120
     16 H          48.9565   14.2050  -22.6583 H       1  UNL1        0.1738
     17 S          50.8533   12.8263  -22.2116 S.O2    1  UNL1        0.0745
     18 O          51.1746   12.1217  -20.9239 O.2     1  UNL1       -0.1499
     19 O          51.7145   14.0538  -22.3132 O.2     1  UNL1       -0.1499
     20 C          51.1820   11.7588  -23.5818 C.ar    1  UNL1        0.1356
     21 C          51.8955   12.2486  -24.6837 C.ar    1  UNL1        0.0207
     22 C          52.1224   11.4393  -25.7986 C.ar    1  UNL1       -0.0028
     23 C          51.6465   10.1202  -25.8387 C.ar    1  UNL1       -0.0207
     24 C          50.9568    9.6180  -24.7158 C.ar    1  UNL1        0.0085
     25 C          50.7300   10.4242  -23.5941 C.ar    1  UNL1        0.0762
     26 CL         49.8718    9.7185  -22.2277 Cl      1  UNL1       -0.0809
     27 C          51.9024    9.3146  -27.1022 C.3     1  UNL1        0.0338
     28 C          50.8449    9.3621  -28.1995 C.3     1  UNL1        0.0169
     29 C          52.1643   10.1052  -28.3783 C.3     1  UNL1        0.0615
     30 BR         53.3873    9.2312  -29.6051 Br      1  UNL1       -0.0813
     31 O          46.9541   11.5231  -22.8891 O.3     1  UNL1       -0.4513
     32 C          46.8912   12.3896  -23.9932 C.ar    1  UNL1        0.1580
     33 C          48.0572   12.5628  -24.7480 C.ar    1  UNL1        0.0677
     34 C          48.0659   13.3846  -25.8765 C.ar    1  UNL1        0.1398
     35 F          49.2172   13.5338  -26.5795 F       1  UNL1       -0.2044
     36 C          46.8914   14.0363  -26.2838 C.ar    1  UNL1        0.0175
     37 C          45.7175   13.8651  -25.5343 C.ar    1  UNL1        0.0130
     38 C          45.7027   13.0383  -24.4037 C.ar    1  UNL1        0.0919
     39 CL         44.1516   12.7576  -23.6213 Cl      1  UNL1       -0.0791
     40 C          46.8849   14.8995  -27.5176 C.3     1  UNL1        0.1382
     41 C          46.5407   16.3095  -27.1649 C.2     1  UNL1        0.3234
     42 O          45.3431   16.6998  -27.2343 O.2     1  UNL1       -0.2497
     43 O          47.5595   17.1889  -26.7853 O.3     1  UNL1       -0.4215
     44 C          47.4860   18.0266  -25.6282 C.3     1  UNL1        0.3207
     45 O          48.7545   18.5977  -25.3510 O.3     1  UNL1       -0.3070
     46 C          49.7781   17.6292  -25.1266 C.3     1  UNL1        0.2456
     47 C          49.2886   16.3217  -24.4430 C.3     1  UNL1        0.1781
     48 O          50.3268   15.7836  -23.6631 O.3     1  UNL1       -0.3790
     49 C          48.0725   16.6414  -23.5589 C.3     1  UNL1        0.1733
     50 O          47.6250   15.5002  -22.8692 O.3     1  UNL1       -0.3793
     51 C          46.9317   17.2545  -24.4047 C.3     1  UNL1        0.2106
     52 O          46.1726   18.1288  -23.6095 O.3     1  UNL1       -0.3766
     53 H          50.1269   14.8189  -23.5406 H       1  UNL1        0.2106
     54 H          47.4041   14.8066  -23.5449 H       1  UNL1        0.2105
     55 H          45.6339   17.5640  -22.9958 H       1  UNL1        0.2107
     56 C          50.5339   17.3455  -26.3973 C.2     1  UNL1        0.3439
     57 O          51.5082   18.0743  -26.7267 O.2     1  UNL1       -0.2475
     58 O          50.1411   16.3047  -27.2328 O.3     1  UNL1       -0.4785
     59 H          50.6511   16.1099  -28.0851 H       1  UNL1        0.2951
@<TRIPOS>BOND
     1    11    12    1
     2    12    13    1
     3    12    14    1
     4    12     7    1
     5     7     8   am
     6     8     9    2
     7     8     1    1
     8     1     2   ar
     9     2     3   ar
    10     3     4   ar
    11     4    31    1
    12    31    32    1
    13    32    33   ar
    14    33    34   ar
    15    34    35    1
    16    34    36   ar
    17    36    40    1
    18    40    41    1
    19    41    42    2
    20    41    43    1
    21    43    44    1
    22    44    45    1
    23    45    46    1
    24    46    56    1
    25    56    57    2
    26    56    58    1
    27    46    47    1
    28    47    48    1
    29    47    49    1
    30    49    50    1
    31    49    51    1
    32    51    52    1
    33    36    37   ar
    34    37    38   ar
    35    38    39    1
    36     4     5   ar
    37     5    15    1
    38    15    17    1
    39    17    18    2
    40    17    19    2
    41    17    20    1
    42    20    21   ar
    43    21    22   ar
    44    22    23   ar
    45    23    27    1
    46    27    28    1
    47    28    29    1
    48    29    30    1
    49    23    24   ar
    50    24    25   ar
    51    25    26    1
    52     5     6   ar
    53     6     1   ar
    54    38    32   ar
    55    25    20   ar
    56    51    44    1
    57    29    27    1
    58     7    10    1
    59    58    59    1
    60    48    53    1
    61    50    54    1
    62    52    55    1
    63    15    16    1
@<TRIPOS>MOLECULE
*****
 59 63 0 0 0
SMALL
GASTEIGER

@<TRIPOS>ATOM
      1 C          50.7161    8.1399  -30.0085 C.ar    1  UNL1        0.0548
      2 C          49.5123    7.9573  -30.7095 C.ar    1  UNL1        0.0077
      3 C          48.3186    8.4879  -30.2160 C.ar    1  UNL1        0.0390
      4 C          48.2986    9.2053  -29.0160 C.ar    1  UNL1        0.1598
      5 C          49.5125    9.4521  -28.3390 C.ar    1  UNL1        0.0993
      6 C          50.7050    8.9013  -28.8276 C.ar    1  UNL1        0.0235
      7 N          53.2532    8.1829  -30.1734 N.am    1  UNL1       -0.3040
      8 C          51.9902    7.5798  -30.5192 C.2     1  UNL1        0.2458
      9 O          51.9551    6.5754  -31.2803 O.2     1  UNL1       -0.2701
     10 H          53.2254    9.1339  -29.7405 H       1  UNL1        0.1496
     11 C          54.8063    6.4708  -29.3364 C.3     1  UNL1        0.0196
     12 C          54.5744    7.5635  -30.4005 C.3     1  UNL1        0.0572
     13 C          54.6221    6.9057  -31.7936 C.3     1  UNL1        0.0196
     14 C          55.6896    8.6190  -30.2676 C.3     1  UNL1        0.0196
     15 N          49.5589   10.2748  -27.1726 N.pl3   1  UNL1       -0.2120
     16 H          48.7159   10.8472  -26.9500 H       1  UNL1        0.1738
     17 S          50.5633    9.8236  -25.8376 S.O2    1  UNL1        0.0745
     18 O          51.8571   10.5857  -25.8918 O.2     1  UNL1       -0.1499
     19 O          50.8703    8.3539  -25.9074 O.2     1  UNL1       -0.1499
     20 C          49.7164   10.1792  -24.3271 C.ar    1  UNL1        0.1356
     21 C          49.5920    9.1799  -23.3529 C.ar    1  UNL1        0.0207
     22 C          48.8834    9.4221  -22.1746 C.ar    1  UNL1       -0.0028
     23 C          48.2857   10.6691  -21.9382 C.ar    1  UNL1       -0.0207
     24 C          48.4393   11.6844  -22.9048 C.ar    1  UNL1        0.0085
     25 C          49.1520   11.4476  -24.0862 C.ar    1  UNL1        0.0762
     26 CL         49.3091   12.7712  -25.2373 Cl      1  UNL1       -0.0809
     27 C          47.5006   10.8434  -20.6481 C.3     1  UNL1        0.0338
     28 C          48.0134   11.8645  -19.6387 C.3     1  UNL1        0.0169
     29 C          46.7679   12.1669  -20.4647 C.3     1  UNL1        0.0615
     30 BR         45.1148   12.0153  -19.4601 Br      1  UNL1       -0.0813
     31 O          47.0609    9.6638  -28.5426 O.3     1  UNL1       -0.4513
     32 C          46.6814   11.0064  -28.3775 C.ar    1  UNL1        0.1580
     33 C          46.6139   11.5047  -27.0712 C.ar    1  UNL1        0.0677
     34 C          46.2730   12.8363  -26.8279 C.ar    1  UNL1        0.1398
     35 F          46.2109   13.2818  -25.5473 F       1  UNL1       -0.2044
     36 C          46.0116   13.7047  -27.8991 C.ar    1  UNL1        0.0175
     37 C          46.0804   13.2138  -29.2119 C.ar    1  UNL1        0.0130
     38 C          46.4262   11.8795  -29.4612 C.ar    1  UNL1        0.0919
     39 CL         46.6433   11.3953  -31.1392 Cl      1  UNL1       -0.0791
     40 C          45.6736   15.1503  -27.6463 C.3     1  UNL1        0.1382
     41 C          46.9206   15.9538  -27.4720 C.2     1  UNL1        0.3234
     42 O          47.3552   16.6539  -28.4272 O.2     1  UNL1       -0.2497
     43 O          47.6065   15.8987  -26.2547 O.3     1  UNL1       -0.4215
     44 C          47.4124   16.8432  -25.1982 C.3     1  UNL1        0.3207
     45 O          48.4828   17.7735  -25.1650 O.3     1  UNL1       -0.3070
     46 C          49.7601   17.1652  -24.9798 C.3     1  UNL1        0.2456
     47 C          49.7425   15.8874  -24.0948 C.3     1  UNL1        0.1781
     48 O          50.9660   15.7730  -23.4124 O.3     1  UNL1       -0.3790
     49 C          48.5830   15.9872  -23.0906 C.3     1  UNL1        0.1733
     50 O          48.5577   14.8798  -22.2238 O.3     1  UNL1       -0.3793
     51 C          47.2333   16.1352  -23.8318 C.3     1  UNL1        0.2106
     52 O          46.3391   16.8745  -23.0400 O.3     1  UNL1       -0.3766
     53 H          51.0675   14.8189  -23.1576 H       1  UNL1        0.2106
     54 H          48.4792   14.0618  -22.7814 H       1  UNL1        0.2105
     55 H          46.0526   16.2792  -22.2987 H       1  UNL1        0.2107
     56 C          50.4317   16.9176  -26.3043 C.2     1  UNL1        0.3439
     57 O          51.1875   17.7956  -26.8012 O.2     1  UNL1       -0.2475
     58 O          50.1947   15.7389  -27.0045 O.3     1  UNL1       -0.4785
     59 H          50.6491   15.5691  -27.8928 H       1  UNL1        0.2951
@<TRIPOS>BOND
     1    11    12    1
     2    12    13    1
     3    12    14    1
     4    12     7    1
     5     7     8   am
     6     8     9    2
     7     8     1    1
     8     1     2   ar
     9     2     3   ar
    10     3     4   ar
    11     4    31    1
    12    31    32    1
    13    32    33   ar
    14    33    34   ar
    15    34    35    1
    16    34    36   ar
    17    36    40    1
    18    40    41    1
    19    41    42    2
    20    41    43    1
    21    43    44    1
    22    44    45    1
    23    45    46    1
    24    46    56    1
    25    56    57    2
    26    56    58    1
    27    46    47    1
    28    47    48    1
    29    47    49    1
    30    49    50    1
    31    49    51    1
    32    51    52    1
    33    36    37   ar
    34    37    38   ar
    35    38    39    1
    36     4     5   ar
    37     5    15    1
    38    15    17    1
    39    17    18    2
    40    17    19    2
    41    17    20    1
    42    20    21   ar
    43    21    22   ar
    44    22    23   ar
    45    23    27    1
    46    27    28    1
    47    28    29    1
    48    29    30    1
    49    23    24   ar
    50    24    25   ar
    51    25    26    1
    52     5     6   ar
    53     6     1   ar
    54    38    32   ar
    55    25    20   ar
    56    51    44    1
    57    29    27    1
    58     7    10    1
    59    58    59    1
    60    48    53    1
    61    50    54    1
    62    52    55    1
    63    15    16    1
@<TRIPOS>MOLECULE
*****
 59 63 0 0 0
SMALL
GASTEIGER

@<TRIPOS>ATOM
      1 C          50.7788   10.1516  -27.4553 C.ar    1  UNL1        0.0548
      2 C          51.8807   11.0168  -27.3504 C.ar    1  UNL1        0.0077
      3 C          51.8323   12.1243  -26.5012 C.ar    1  UNL1        0.0390
      4 C          50.6877   12.3944  -25.7450 C.ar    1  UNL1        0.1598
      5 C          49.6011   11.4946  -25.7920 C.ar    1  UNL1        0.0993
      6 C          49.6464   10.3952  -26.6600 C.ar    1  UNL1        0.0235
      7 N          51.5001    9.0333  -29.6222 N.am    1  UNL1       -0.3040
      8 C          50.8152    8.9737  -28.3549 C.2     1  UNL1        0.2458
      9 O          50.2196    7.9189  -28.0057 O.2     1  UNL1       -0.2701
     10 H          51.7753    9.9790  -29.9721 H       1  UNL1        0.1496
     11 C          52.1875    8.3478  -31.8809 C.3     1  UNL1        0.0196
     12 C          51.8237    7.8627  -30.4623 C.3     1  UNL1        0.0572
     13 C          53.0342    7.1069  -29.8798 C.3     1  UNL1        0.0196
     14 C          50.6048    6.9249  -30.5646 C.3     1  UNL1        0.0196
     15 N          48.4579   11.6655  -24.9533 N.pl3   1  UNL1       -0.2120
     16 H          48.5625   11.4399  -23.9404 H       1  UNL1        0.1738
     17 S          47.2523   12.8365  -25.3657 S.O2    1  UNL1        0.0745
     18 O          47.7884   14.2220  -25.1404 O.2     1  UNL1       -0.1499
     19 O          46.0407   12.6450  -24.4971 O.2     1  UNL1       -0.1499
     20 C          46.8009   12.6327  -27.0627 C.ar    1  UNL1        0.1356
     21 C          46.8889   11.3653  -27.6536 C.ar    1  UNL1        0.0207
     22 C          46.5867   11.1904  -29.0055 C.ar    1  UNL1       -0.0028
     23 C          46.1852   12.2754  -29.7990 C.ar    1  UNL1       -0.0207
     24 C          46.0657   13.5442  -29.1953 C.ar    1  UNL1        0.0085
     25 C          46.3638   13.7241  -27.8394 C.ar    1  UNL1        0.0762
     26 CL         46.1773   15.3372  -27.1580 Cl      1  UNL1       -0.0809
     27 C          45.9090   12.0109  -31.2703 C.3     1  UNL1        0.0338
     28 C          44.5838   12.5024  -31.8422 C.3     1  UNL1        0.0169
     29 C          45.8805   13.2243  -32.1916 C.3     1  UNL1        0.0615
     30 BR         46.5122   12.8588  -33.9894 Br      1  UNL1       -0.0813
     31 O          50.6779   13.5528  -24.9547 O.3     1  UNL1       -0.4513
     32 C          50.9921   13.6270  -23.5874 C.ar    1  UNL1        0.1580
     33 C          49.9767   14.0250  -22.7099 C.ar    1  UNL1        0.0677
     34 C          50.2035   14.0945  -21.3343 C.ar    1  UNL1        0.1398
     35 F          49.1967   14.4914  -20.5152 F       1  UNL1       -0.2044
     36 C          51.4562   13.7438  -20.8072 C.ar    1  UNL1        0.0175
     37 C          52.4784   13.3406  -21.6799 C.ar    1  UNL1        0.0130
     38 C          52.2544   13.2652  -23.0605 C.ar    1  UNL1        0.0919
     39 CL         53.5414   12.5982  -24.0583 Cl      1  UNL1       -0.0791
     40 C          51.6994   13.7862  -19.3217 C.3     1  UNL1        0.1382
     41 C          51.3393   12.4780  -18.6974 C.2     1  UNL1        0.3234
     42 O          51.9887   12.0578  -17.7009 O.2     1  UNL1       -0.2497
     43 O          50.2987   11.7211  -19.2448 O.3     1  UNL1       -0.4215
     44 C          49.4518   10.8692  -18.4682 C.3     1  UNL1        0.3207
     45 O          48.9782    9.7908  -19.2588 O.3     1  UNL1       -0.3070
     46 C          48.2442   10.2076  -20.4092 C.3     1  UNL1        0.2456
     47 C          47.4266   11.5150  -20.2124 C.3     1  UNL1        0.1781
     48 O          46.2789   11.4764  -21.0229 O.3     1  UNL1       -0.3790
     49 C          47.0269   11.6403  -18.7334 C.3     1  UNL1        0.1733
     50 O          46.2327   12.7796  -18.5110 O.3     1  UNL1       -0.3793
     51 C          48.2830   11.6618  -17.8309 C.3     1  UNL1        0.2106
     52 O          47.9737   11.1054  -16.5788 O.3     1  UNL1       -0.3766
     53 H          45.9844   12.4155  -21.1530 H       1  UNL1        0.2106
     54 H          46.7512   13.5720  -18.8102 H       1  UNL1        0.2105
     55 H          47.4171   11.7724  -16.0980 H       1  UNL1        0.2107
     56 C          49.1407   10.2864  -21.6161 C.2     1  UNL1        0.3439
     57 O          48.6654   10.0932  -22.7675 O.2     1  UNL1       -0.2475
     58 O          50.5016   10.5345  -21.4674 O.3     1  UNL1       -0.4785
     59 H          51.1047   10.5923  -22.2781 H       1  UNL1        0.2951
@<TRIPOS>BOND
     1    11    12    1
     2    12    13    1
     3    12    14    1
     4    12     7    1
     5     7     8   am
     6     8     9    2
     7     8     1    1
     8     1     2   ar
     9     2     3   ar
    10     3     4   ar
    11     4    31    1
    12    31    32    1
    13    32    33   ar
    14    33    34   ar
    15    34    35    1
    16    34    36   ar
    17    36    40    1
    18    40    41    1
    19    41    42    2
    20    41    43    1
    21    43    44    1
    22    44    45    1
    23    45    46    1
    24    46    56    1
    25    56    57    2
    26    56    58    1
    27    46    47    1
    28    47    48    1
    29    47    49    1
    30    49    50    1
    31    49    51    1
    32    51    52    1
    33    36    37   ar
    34    37    38   ar
    35    38    39    1
    36     4     5   ar
    37     5    15    1
    38    15    17    1
    39    17    18    2
    40    17    19    2
    41    17    20    1
    42    20    21   ar
    43    21    22   ar
    44    22    23   ar
    45    23    27    1
    46    27    28    1
    47    28    29    1
    48    29    30    1
    49    23    24   ar
    50    24    25   ar
    51    25    26    1
    52     5     6   ar
    53     6     1   ar
    54    38    32   ar
    55    25    20   ar
    56    51    44    1
    57    29    27    1
    58     7    10    1
    59    58    59    1
    60    48    53    1
    61    50    54    1
    62    52    55    1
    63    15    16    1
@<TRIPOS>MOLECULE
*****
 59 63 0 0 0
SMALL
GASTEIGER

@<TRIPOS>ATOM
      1 C          47.3425   13.3572  -27.4492 C.ar    1  UNL1        0.0548
      2 C          47.4467   14.7571  -27.3935 C.ar    1  UNL1        0.0077
      3 C          48.2559   15.3687  -26.4337 C.ar    1  UNL1        0.0390
      4 C          48.9720   14.6013  -25.5099 C.ar    1  UNL1        0.1598
      5 C          48.9272   13.1933  -25.6001 C.ar    1  UNL1        0.0993
      6 C          48.0989   12.5840  -26.5524 C.ar    1  UNL1        0.0235
      7 N          46.6113   13.0162  -29.8608 N.am    1  UNL1       -0.3040
      8 C          46.4850   12.6946  -28.4610 C.2     1  UNL1        0.2458
      9 O          45.6250   11.8558  -28.0789 O.2     1  UNL1       -0.2701
     10 H          47.1620   13.8700  -30.1065 H       1  UNL1        0.1496
     11 C          46.6547   12.6735  -32.2948 C.3     1  UNL1        0.0196
     12 C          46.0087   12.2395  -30.9627 C.3     1  UNL1        0.0572
     13 C          46.2724   10.7344  -30.7602 C.3     1  UNL1        0.0196
     14 C          44.4939   12.5123  -31.0429 C.3     1  UNL1        0.0196
     15 N          49.7291   12.3685  -24.7538 N.pl3   1  UNL1       -0.2120
     16 H          49.2381   11.6870  -24.1356 H       1  UNL1        0.1738
     17 S          51.3452   11.9643  -25.2226 S.O2    1  UNL1        0.0745
     18 O          52.0892   11.3927  -24.0489 O.2     1  UNL1       -0.1499
     19 O          52.0627   13.2002  -25.6882 O.2     1  UNL1       -0.1499
     20 C          51.2906   10.7825  -26.5361 C.ar    1  UNL1        0.1356
     21 C          50.1587    9.9708  -26.6887 C.ar    1  UNL1        0.0207
     22 C          50.1144    8.9957  -27.6870 C.ar    1  UNL1       -0.0028
     23 C          51.1969    8.8101  -28.5598 C.ar    1  UNL1       -0.0207
     24 C          52.3222    9.6495  -28.4260 C.ar    1  UNL1        0.0085
     25 C          52.3700   10.6311  -27.4291 C.ar    1  UNL1        0.0762
     26 CL         53.8057   11.6468  -27.3361 Cl      1  UNL1       -0.0809
     27 C          51.0872    7.7039  -29.5967 C.3     1  UNL1        0.0338
     28 C          49.8216    7.6509  -30.4454 C.3     1  UNL1        0.0169
     29 C          51.1332    8.1281  -31.0595 C.3     1  UNL1        0.0615
     30 BR         51.9633    6.8214  -32.2292 Br      1  UNL1       -0.0813
     31 O          49.7215   15.2741  -24.5343 O.3     1  UNL1       -0.4513
     32 C          49.9474   14.8413  -23.2168 C.ar    1  UNL1        0.1580
     33 C          51.2759   14.7330  -22.7893 C.ar    1  UNL1        0.0677
     34 C          51.5800   14.3378  -21.4854 C.ar    1  UNL1        0.1398
     35 F          52.8801   14.2373  -21.1090 F       1  UNL1       -0.2044
     36 C          50.5495   14.0619  -20.5733 C.ar    1  UNL1        0.0175
     37 C          49.2151   14.1715  -20.9932 C.ar    1  UNL1        0.0130
     38 C          48.9048   14.5716  -22.2992 C.ar    1  UNL1        0.0919
     39 CL         47.2089   14.8352  -22.6881 Cl      1  UNL1       -0.0791
     40 C          50.8691   13.6653  -19.1561 C.3     1  UNL1        0.1382
     41 C          51.1524   12.2010  -19.0765 C.2     1  UNL1        0.3234
     42 O          52.1842   11.7927  -18.4765 O.2     1  UNL1       -0.2497
     43 O          50.2790   11.2997  -19.6931 O.3     1  UNL1       -0.4215
     44 C          49.2989   10.5401  -18.9801 C.3     1  UNL1        0.3207
     45 O          48.9443    9.3793  -19.7143 O.3     1  UNL1       -0.3070
     46 C          48.4203    9.6636  -21.0107 C.3     1  UNL1        0.2456
     47 C          47.6053   10.9843  -21.1003 C.3     1  UNL1        0.1781
     48 O          46.6085   10.8541  -22.0827 O.3     1  UNL1       -0.3790
     49 C          46.9668   11.2749  -19.7326 C.3     1  UNL1        0.1733
     50 O          46.1675   12.4315  -19.7745 O.3     1  UNL1       -0.3793
     51 C          48.0548   11.3985  -18.6400 C.3     1  UNL1        0.2106
     52 O          47.5307   10.9863  -17.4038 O.3     1  UNL1       -0.3766
     53 H          46.3571   11.7725  -22.3638 H       1  UNL1        0.2106
     54 H          46.7431   13.1856  -20.0685 H       1  UNL1        0.2105
     55 H          46.9139   11.7028  -17.1002 H       1  UNL1        0.2107
     56 C          49.5070    9.6067  -22.0511 C.2     1  UNL1        0.3439
     57 O          49.6871    8.5515  -22.7166 O.2     1  UNL1       -0.2475
     58 O          50.3412   10.7006  -22.2585 O.3     1  UNL1       -0.4785
     59 H          51.0692   10.6654  -22.9608 H       1  UNL1        0.2951
@<TRIPOS>BOND
     1    11    12    1
     2    12    13    1
     3    12    14    1
     4    12     7    1
     5     7     8   am
     6     8     9    2
     7     8     1    1
     8     1     2   ar
     9     2     3   ar
    10     3     4   ar
    11     4    31    1
    12    31    32    1
    13    32    33   ar
    14    33    34   ar
    15    34    35    1
    16    34    36   ar
    17    36    40    1
    18    40    41    1
    19    41    42    2
    20    41    43    1
    21    43    44    1
    22    44    45    1
    23    45    46    1
    24    46    56    1
    25    56    57    2
    26    56    58    1
    27    46    47    1
    28    47    48    1
    29    47    49    1
    30    49    50    1
    31    49    51    1
    32    51    52    1
    33    36    37   ar
    34    37    38   ar
    35    38    39    1
    36     4     5   ar
    37     5    15    1
    38    15    17    1
    39    17    18    2
    40    17    19    2
    41    17    20    1
    42    20    21   ar
    43    21    22   ar
    44    22    23   ar
    45    23    27    1
    46    27    28    1
    47    28    29    1
    48    29    30    1
    49    23    24   ar
    50    24    25   ar
    51    25    26    1
    52     5     6   ar
    53     6     1   ar
    54    38    32   ar
    55    25    20   ar
    56    51    44    1
    57    29    27    1
    58     7    10    1
    59    58    59    1
    60    48    53    1
    61    50    54    1
    62    52    55    1
    63    15    16    1
@<TRIPOS>MOLECULE
*****
 59 63 0 0 0
SMALL
GASTEIGER

@<TRIPOS>ATOM
      1 C          48.8304   11.5668  -18.4012 C.ar    1  UNL1        0.0548
      2 C          47.6007   11.2323  -18.9926 C.ar    1  UNL1        0.0077
      3 C          47.4687   11.2033  -20.3824 C.ar    1  UNL1        0.0390
      4 C          48.5538   11.5101  -21.2091 C.ar    1  UNL1        0.1598
      5 C          49.8105   11.7814  -20.6262 C.ar    1  UNL1        0.0993
      6 C          49.9338   11.8285  -19.2310 C.ar    1  UNL1        0.0235
      7 N          50.1960   12.1003  -16.3235 N.am    1  UNL1       -0.3040
      8 C          48.9843   11.6044  -16.9271 C.2     1  UNL1        0.2458
      9 O          48.0451   11.1764  -16.2032 O.2     1  UNL1       -0.2701
     10 H          51.0247   12.2240  -16.9485 H       1  UNL1        0.1496
     11 C          51.7489   13.0453  -14.6683 C.3     1  UNL1        0.0196
     12 C          50.3528   12.4281  -14.8922 C.3     1  UNL1        0.0572
     13 C          49.2895   13.4575  -14.4616 C.3     1  UNL1        0.0196
     14 C          50.2405   11.1514  -14.0360 C.3     1  UNL1        0.0196
     15 N          50.9732   11.9878  -21.4295 N.pl3   1  UNL1       -0.2120
     16 H          51.1122   11.3598  -22.2504 H       1  UNL1        0.1738
     17 S          51.6849   13.5621  -21.5293 S.O2    1  UNL1        0.0745
     18 O          53.1089   13.4498  -21.9954 O.2     1  UNL1       -0.1499
     19 O          51.6748   14.2105  -20.1734 O.2     1  UNL1       -0.1499
     20 C          50.7549   14.5492  -22.6632 C.ar    1  UNL1        0.1356
     21 C          51.2247   14.7265  -23.9713 C.ar    1  UNL1        0.0207
     22 C          50.5338   15.5432  -24.8686 C.ar    1  UNL1       -0.0028
     23 C          49.3551   16.1991  -24.4832 C.ar    1  UNL1       -0.0207
     24 C          48.8658   15.9939  -23.1766 C.ar    1  UNL1        0.0085
     25 C          49.5527   15.1731  -22.2744 C.ar    1  UNL1        0.0762
     26 CL         48.8694   14.9582  -20.6656 Cl      1  UNL1       -0.0809
     27 C          48.6807   17.0996  -25.5057 C.3     1  UNL1        0.0338
     28 C          47.8118   18.2384  -24.9835 C.3     1  UNL1        0.0169
     29 C          49.1793   18.5372  -25.5881 C.3     1  UNL1        0.0615
     30 BR         49.0904   19.2970  -27.3712 Br      1  UNL1       -0.0813
     31 O          48.3442   11.5201  -22.5956 O.3     1  UNL1       -0.4513
     32 C          49.2188   11.0120  -23.5706 C.ar    1  UNL1        0.1580
     33 C          49.6516   11.8885  -24.5726 C.ar    1  UNL1        0.0677
     34 C          50.5439   11.4657  -25.5593 C.ar    1  UNL1        0.1398
     35 F          50.9358   12.3420  -26.5188 F       1  UNL1       -0.2044
     36 C          51.0385   10.1522  -25.5474 C.ar    1  UNL1        0.0175
     37 C          50.6121    9.2684  -24.5444 C.ar    1  UNL1        0.0130
     38 C          49.7201    9.6891  -23.5497 C.ar    1  UNL1        0.0919
     39 CL         49.3666    8.5627  -22.2446 Cl      1  UNL1       -0.0791
     40 C          52.0254    9.6976  -26.5901 C.3     1  UNL1        0.1382
     41 C          51.3093    9.1646  -27.7876 C.2     1  UNL1        0.3234
     42 O          50.0583    9.2969  -27.8816 O.2     1  UNL1       -0.2497
     43 O          52.0358    8.5005  -28.7808 O.3     1  UNL1       -0.4215
     44 C          52.9408    9.1617  -29.6695 C.3     1  UNL1        0.3207
     45 O          52.4005    9.2069  -30.9803 O.3     1  UNL1       -0.3070
     46 C          52.1160    7.9184  -31.5235 C.3     1  UNL1        0.2456
     47 C          53.0896    6.7969  -31.0645 C.3     1  UNL1        0.1781
     48 O          53.2087    5.8344  -32.0818 O.3     1  UNL1       -0.3790
     49 C          54.4624    7.4170  -30.7583 C.3     1  UNL1        0.1733
     50 O          55.4001    6.4340  -30.3941 O.3     1  UNL1       -0.3793
     51 C          54.3385    8.4936  -29.6544 C.3     1  UNL1        0.2106
     52 O          55.3245    9.4764  -29.8414 O.3     1  UNL1       -0.3766
     53 H          53.5228    4.9962  -31.6523 H       1  UNL1        0.2106
     54 H          55.0405    5.9521  -29.6036 H       1  UNL1        0.2105
     55 H          56.1898    9.0692  -29.5744 H       1  UNL1        0.2107
     56 C          50.6782    7.5422  -31.2830 C.2     1  UNL1        0.3439
     57 O          50.1928    6.5210  -31.8400 O.2     1  UNL1       -0.2475
     58 O          49.8678    8.3363  -30.4779 O.3     1  UNL1       -0.4785
     59 H          48.9023    8.0822  -30.3116 H       1  UNL1        0.2951
@<TRIPOS>BOND
     1    11    12    1
     2    12    13    1
     3    12    14    1
     4    12     7    1
     5     7     8   am
     6     8     9    2
     7     8     1    1
     8     1     2   ar
     9     2     3   ar
    10     3     4   ar
    11     4    31    1
    12    31    32    1
    13    32    33   ar
    14    33    34   ar
    15    34    35    1
    16    34    36   ar
    17    36    40    1
    18    40    41    1
    19    41    42    2
    20    41    43    1
    21    43    44    1
    22    44    45    1
    23    45    46    1
    24    46    56    1
    25    56    57    2
    26    56    58    1
    27    46    47    1
    28    47    48    1
    29    47    49    1
    30    49    50    1
    31    49    51    1
    32    51    52    1
    33    36    37   ar
    34    37    38   ar
    35    38    39    1
    36     4     5   ar
    37     5    15    1
    38    15    17    1
    39    17    18    2
    40    17    19    2
    41    17    20    1
    42    20    21   ar
    43    21    22   ar
    44    22    23   ar
    45    23    27    1
    46    27    28    1
    47    28    29    1
    48    29    30    1
    49    23    24   ar
    50    24    25   ar
    51    25    26    1
    52     5     6   ar
    53     6     1   ar
    54    38    32   ar
    55    25    20   ar
    56    51    44    1
    57    29    27    1
    58     7    10    1
    59    58    59    1
    60    48    53    1
    61    50    54    1
    62    52    55    1
    63    15    16    1
@<TRIPOS>MOLECULE
*****
 59 63 0 0 0
SMALL
GASTEIGER

@<TRIPOS>ATOM
      1 C          48.5568   11.4214  -18.7822 C.ar    1  UNL1        0.0548
      2 C          47.3217   11.0544  -19.3423 C.ar    1  UNL1        0.0077
      3 C          47.1605   11.0039  -20.7284 C.ar    1  UNL1        0.0390
      4 C          48.2212   11.3211  -21.5824 C.ar    1  UNL1        0.1598
      5 C          49.4844   11.6254  -21.0306 C.ar    1  UNL1        0.0993
      6 C          49.6366   11.6938  -19.6391 C.ar    1  UNL1        0.0235
      7 N          49.9718   11.9717  -16.7422 N.am    1  UNL1       -0.3040
      8 C          48.7414   11.4820  -17.3124 C.2     1  UNL1        0.2458
      9 O          47.8118   11.0793  -16.5622 O.2     1  UNL1       -0.2701
     10 H          50.7889   12.0735  -17.3860 H       1  UNL1        0.1496
     11 C          51.5936   12.8628  -15.1237 C.3     1  UNL1        0.0196
     12 C          50.1622   12.3217  -15.3203 C.3     1  UNL1        0.0572
     13 C          49.1641   13.4197  -14.9034 C.3     1  UNL1        0.0196
     14 C          49.9864   11.0729  -14.4342 C.3     1  UNL1        0.0196
     15 N          50.6252   11.8441  -21.8615 N.pl3   1  UNL1       -0.2120
     16 H          50.6839   11.3078  -22.7541 H       1  UNL1        0.1738
     17 S          51.4458   13.3670  -21.8174 S.O2    1  UNL1        0.0745
     18 O          52.9321   13.1460  -21.8172 O.2     1  UNL1       -0.1499
     19 O          51.0721   14.1088  -20.5648 O.2     1  UNL1       -0.1499
     20 C          50.9777   14.3203  -23.2306 C.ar    1  UNL1        0.1356
     21 C          50.1209   15.4175  -23.0710 C.ar    1  UNL1        0.0207
     22 C          49.6970   16.1536  -24.1790 C.ar    1  UNL1       -0.0028
     23 C          50.1216   15.8152  -25.4726 C.ar    1  UNL1       -0.0207
     24 C          51.0097   14.7309  -25.6285 C.ar    1  UNL1        0.0085
     25 C          51.4406   13.9920  -24.5204 C.ar    1  UNL1        0.0762
     26 CL         52.5595   12.6607  -24.7978 Cl      1  UNL1       -0.0809
     27 C          49.5875   16.6424  -26.6308 C.3     1  UNL1        0.0338
     28 C          48.0802   16.6500  -26.8607 C.3     1  UNL1        0.0169
     29 C          48.7687   17.8765  -26.2720 C.3     1  UNL1        0.0615
     30 BR         48.9608   19.3388  -27.5327 Br      1  UNL1       -0.0813
     31 O          47.9818   11.3080  -22.9640 O.3     1  UNL1       -0.4513
     32 C          48.9066   10.9612  -23.9632 C.ar    1  UNL1        0.1580
     33 C          49.7602    9.8813  -23.7093 C.ar    1  UNL1        0.0677
     34 C          50.6858    9.4583  -24.6648 C.ar    1  UNL1        0.1398
     35 F          51.5017    8.4117  -24.3800 F       1  UNL1       -0.2044
     36 C          50.7588   10.1021  -25.9098 C.ar    1  UNL1        0.0175
     37 C          49.9042   11.1834  -26.1734 C.ar    1  UNL1        0.0130
     38 C          48.9710   11.6089  -25.2194 C.ar    1  UNL1        0.0919
     39 CL         47.8353   12.8658  -25.6965 Cl      1  UNL1       -0.0791
     40 C          51.7330    9.6318  -26.9575 C.3     1  UNL1        0.1382
     41 C          51.0280    8.8292  -28.0013 C.2     1  UNL1        0.3234
     42 O          49.7777    8.6747  -27.9367 O.2     1  UNL1       -0.2497
     43 O          51.7707    8.2359  -29.0269 O.3     1  UNL1       -0.4215
     44 C          52.7178    8.9490  -29.8272 C.3     1  UNL1        0.3207
     45 O          52.2832    9.0014  -31.1766 O.3     1  UNL1       -0.3070
     46 C          52.0937    7.7149  -31.7640 C.3     1  UNL1        0.2456
     47 C          53.0703    6.6213  -31.2477 C.3     1  UNL1        0.1781
     48 O          53.3082    5.6854  -32.2691 O.3     1  UNL1       -0.3790
     49 C          54.3888    7.2857  -30.8201 C.3     1  UNL1        0.1733
     50 O          55.3318    6.3310  -30.3987 O.3     1  UNL1       -0.3793
     51 C          54.1347    8.3335  -29.7108 C.3     1  UNL1        0.2106
     52 O          55.0934    9.3562  -29.7996 O.3     1  UNL1       -0.3766
     53 H          53.6192    4.8508  -31.8306 H       1  UNL1        0.2106
     54 H          54.9289    5.8195  -29.6488 H       1  UNL1        0.2105
     55 H          55.9498    8.9762  -29.4706 H       1  UNL1        0.2107
     56 C          50.6571    7.2803  -31.6477 C.2     1  UNL1        0.3439
     57 O          50.2348    6.3108  -32.3339 O.2     1  UNL1       -0.2475
     58 O          49.7792    7.9658  -30.8140 O.3     1  UNL1       -0.4785
     59 H          48.8142    7.6719  -30.7313 H       1  UNL1        0.2951
@<TRIPOS>BOND
     1    11    12    1
     2    12    13    1
     3    12    14    1
     4    12     7    1
     5     7     8   am
     6     8     9    2
     7     8     1    1
     8     1     2   ar
     9     2     3   ar
    10     3     4   ar
    11     4    31    1
    12    31    32    1
    13    32    33   ar
    14    33    34   ar
    15    34    35    1
    16    34    36   ar
    17    36    40    1
    18    40    41    1
    19    41    42    2
    20    41    43    1
    21    43    44    1
    22    44    45    1
    23    45    46    1
    24    46    56    1
    25    56    57    2
    26    56    58    1
    27    46    47    1
    28    47    48    1
    29    47    49    1
    30    49    50    1
    31    49    51    1
    32    51    52    1
    33    36    37   ar
    34    37    38   ar
    35    38    39    1
    36     4     5   ar
    37     5    15    1
    38    15    17    1
    39    17    18    2
    40    17    19    2
    41    17    20    1
    42    20    21   ar
    43    21    22   ar
    44    22    23   ar
    45    23    27    1
    46    27    28    1
    47    28    29    1
    48    29    30    1
    49    23    24   ar
    50    24    25   ar
    51    25    26    1
    52     5     6   ar
    53     6     1   ar
    54    38    32   ar
    55    25    20   ar
    56    51    44    1
    57    29    27    1
    58     7    10    1
    59    58    59    1
    60    48    53    1
    61    50    54    1
    62    52    55    1
    63    15    16    1
@<TRIPOS>MOLECULE
*****
 59 63 0 0 0
SMALL
GASTEIGER

@<TRIPOS>ATOM
      1 C          52.3384    9.3982  -28.6636 C.ar    1  UNL1        0.0548
      2 C          51.1229    8.7452  -28.9282 C.ar    1  UNL1        0.0077
      3 C          49.9961    9.0028  -28.1446 C.ar    1  UNL1        0.0390
      4 C          50.0576    9.9097  -27.0822 C.ar    1  UNL1        0.1598
      5 C          51.2547   10.6209  -26.8502 C.ar    1  UNL1        0.0993
      6 C          52.3884   10.3451  -27.6266 C.ar    1  UNL1        0.0235
      7 N          54.3748    7.9833  -29.2267 N.am    1  UNL1       -0.3040
      8 C          53.5433    9.1323  -29.4854 C.2     1  UNL1        0.2458
      9 O          53.8455    9.9386  -30.4062 O.2     1  UNL1       -0.2701
     10 H          54.2246    7.4790  -28.3235 H       1  UNL1        0.1496
     11 C          56.2240    6.3741  -29.4138 C.3     1  UNL1        0.0196
     12 C          55.4269    7.4818  -30.1335 C.3     1  UNL1        0.0572
     13 C          54.7937    6.8806  -31.4036 C.3     1  UNL1        0.0196
     14 C          56.3985    8.6190  -30.5057 C.3     1  UNL1        0.0196
     15 N          51.3327   11.6388  -25.8515 N.pl3   1  UNL1       -0.2120
     16 H          50.6583   12.4318  -25.9147 H       1  UNL1        0.1738
     17 S          51.9326   11.2559  -24.2740 S.O2    1  UNL1        0.0745
     18 O          52.8599   12.3406  -23.8035 O.2     1  UNL1       -0.1499
     19 O          52.6951    9.9616  -24.3214 O.2     1  UNL1       -0.1499
     20 C          50.5713   11.0993  -23.1571 C.ar    1  UNL1        0.1356
     21 C          50.1496   12.2144  -22.4211 C.ar    1  UNL1        0.0207
     22 C          49.1102   12.1019  -21.4956 C.ar    1  UNL1       -0.0028
     23 C          48.4638   10.8747  -21.2857 C.ar    1  UNL1       -0.0207
     24 C          48.8674    9.7607  -22.0506 C.ar    1  UNL1        0.0085
     25 C          49.9064    9.8692  -22.9824 C.ar    1  UNL1        0.0762
     26 CL         50.3423    8.4350  -23.9067 Cl      1  UNL1       -0.0809
     27 C          47.3662   10.8246  -20.2351 C.3     1  UNL1        0.0338
     28 C          47.6561   11.4533  -18.8766 C.3     1  UNL1        0.0169
     29 C          46.7186   12.1509  -19.8562 C.3     1  UNL1        0.0615
     30 BR         44.8443   11.9999  -19.3779 Br      1  UNL1       -0.0813
     31 O          48.9094   10.0832  -26.2962 O.3     1  UNL1       -0.4513
     32 C          48.0346   11.1818  -26.3363 C.ar    1  UNL1        0.1580
     33 C          48.0034   12.0262  -25.2204 C.ar    1  UNL1        0.0677
     34 C          47.1817   13.1545  -25.1972 C.ar    1  UNL1        0.1398
     35 F          47.1729   13.9460  -24.0947 F       1  UNL1       -0.2044
     36 C          46.3856   13.4705  -26.3091 C.ar    1  UNL1        0.0175
     37 C          46.4137   12.6308  -27.4330 C.ar    1  UNL1        0.0130
     38 C          47.2397   11.4999  -27.4627 C.ar    1  UNL1        0.0919
     39 CL         47.3296   10.5975  -28.9709 Cl      1  UNL1       -0.0791
     40 C          45.5202   14.7029  -26.3040 C.3     1  UNL1        0.1382
     41 C          46.1362   15.7753  -27.1413 C.2     1  UNL1        0.3234
     42 O          45.4758   16.2943  -28.0826 O.2     1  UNL1       -0.2497
     43 O          47.4520   16.1734  -26.8854 O.3     1  UNL1       -0.4215
     44 C          47.8058   17.4883  -26.4474 C.3     1  UNL1        0.3207
     45 O          49.1867   17.5474  -26.1286 O.3     1  UNL1       -0.3070
     46 C          49.5757   16.6268  -25.1102 C.3     1  UNL1        0.2456
     47 C          48.4858   16.3578  -24.0350 C.3     1  UNL1        0.1781
     48 O          49.1019   16.0679  -22.8054 O.3     1  UNL1       -0.3790
     49 C          47.5941   17.6025  -23.9005 C.3     1  UNL1        0.1733
     50 O          46.6246   17.4335  -22.8956 O.3     1  UNL1       -0.3793
     51 C          46.9279   17.9429  -25.2545 C.3     1  UNL1        0.2106
     52 O          46.7121   19.3282  -25.3388 O.3     1  UNL1       -0.3766
     53 H          48.4394   15.5688  -22.2599 H       1  UNL1        0.2106
     54 H          46.0870   16.6311  -23.1269 H       1  UNL1        0.2105
     55 H          45.9571   19.5387  -24.7292 H       1  UNL1        0.2107
     56 C          50.0918   15.3479  -25.7140 C.2     1  UNL1        0.3439
     57 O          50.5534   14.4413  -24.9697 O.2     1  UNL1       -0.2475
     58 O          50.0978   15.1730  -27.0942 O.3     1  UNL1       -0.4785
     59 H          50.4401   14.3119  -27.5013 H       1  UNL1        0.2951
@<TRIPOS>BOND
     1    11    12    1
     2    12    13    1
     3    12    14    1
     4    12     7    1
     5     7     8   am
     6     8     9    2
     7     8     1    1
     8     1     2   ar
     9     2     3   ar
    10     3     4   ar
    11     4    31    1
    12    31    32    1
    13    32    33   ar
    14    33    34   ar
    15    34    35    1
    16    34    36   ar
    17    36    40    1
    18    40    41    1
    19    41    42    2
    20    41    43    1
    21    43    44    1
    22    44    45    1
    23    45    46    1
    24    46    56    1
    25    56    57    2
    26    56    58    1
    27    46    47    1
    28    47    48    1
    29    47    49    1
    30    49    50    1
    31    49    51    1
    32    51    52    1
    33    36    37   ar
    34    37    38   ar
    35    38    39    1
    36     4     5   ar
    37     5    15    1
    38    15    17    1
    39    17    18    2
    40    17    19    2
    41    17    20    1
    42    20    21   ar
    43    21    22   ar
    44    22    23   ar
    45    23    27    1
    46    27    28    1
    47    28    29    1
    48    29    30    1
    49    23    24   ar
    50    24    25   ar
    51    25    26    1
    52     5     6   ar
    53     6     1   ar
    54    38    32   ar
    55    25    20   ar
    56    51    44    1
    57    29    27    1
    58     7    10    1
    59    58    59    1
    60    48    53    1
    61    50    54    1
    62    52    55    1
    63    15    16    1
@<TRIPOS>MOLECULE
*****
 59 63 0 0 0
SMALL
GASTEIGER

@<TRIPOS>ATOM
      1 C          51.3723   10.7533  -27.1605 C.ar    1  UNL1        0.0548
      2 C          51.8967   11.7528  -26.3239 C.ar    1  UNL1        0.0077
      3 C          51.0560   12.4829  -25.4812 C.ar    1  UNL1        0.0390
      4 C          49.6799   12.2366  -25.4577 C.ar    1  UNL1        0.1598
      5 C          49.1526   11.1896  -26.2441 C.ar    1  UNL1        0.0993
      6 C          49.9968   10.4723  -27.1026 C.ar    1  UNL1        0.0235
      7 N          51.7231    8.8938  -28.8592 N.am    1  UNL1       -0.3040
      8 C          52.2526    9.9724  -28.0623 C.2     1  UNL1        0.2458
      9 O          53.4811   10.2510  -28.1097 O.2     1  UNL1       -0.2701
     10 H          50.7656    8.5492  -28.6202 H       1  UNL1        0.1496
     11 C          51.4726    7.2709  -30.6888 C.3     1  UNL1        0.0196
     12 C          52.4388    8.2357  -29.9706 C.3     1  UNL1        0.0572
     13 C          52.9249    9.2865  -30.9880 C.3     1  UNL1        0.0196
     14 C          53.6306    7.4208  -29.4308 C.3     1  UNL1        0.0196
     15 N          47.7738   10.8252  -26.1684 N.pl3   1  UNL1       -0.2120
     16 H          47.4256   10.4325  -25.2672 H       1  UNL1        0.1738
     17 S          46.6110   11.6367  -27.1604 S.O2    1  UNL1        0.0745
     18 O          45.2762   10.9570  -27.0421 O.2     1  UNL1       -0.1499
     19 O          47.0475   11.5873  -28.5978 O.2     1  UNL1       -0.1499
     20 C          46.4785   13.3212  -26.6407 C.ar    1  UNL1        0.1356
     21 C          47.1165   14.3250  -27.3812 C.ar    1  UNL1        0.0207
     22 C          47.0684   15.6557  -26.9612 C.ar    1  UNL1       -0.0028
     23 C          46.3785   16.0171  -25.7944 C.ar    1  UNL1       -0.0207
     24 C          45.7094   15.0105  -25.0678 C.ar    1  UNL1        0.0085
     25 C          45.7515   13.6755  -25.4867 C.ar    1  UNL1        0.0762
     26 CL         44.8796   12.4804  -24.5313 Cl      1  UNL1       -0.0809
     27 C          46.4027   17.4806  -25.3836 C.3     1  UNL1        0.0338
     28 C          46.7165   17.8028  -23.9268 C.3     1  UNL1        0.0169
     29 C          47.7589   18.0651  -25.0083 C.3     1  UNL1        0.0615
     30 BR         47.9552   19.9424  -25.4580 Br      1  UNL1       -0.0813
     31 O          48.8801   13.0411  -24.6334 O.3     1  UNL1       -0.4513
     32 C          48.3369   12.6742  -23.3908 C.ar    1  UNL1        0.1580
     33 C          48.0178   11.3253  -23.1961 C.ar    1  UNL1        0.0677
     34 C          47.5017   10.8787  -21.9784 C.ar    1  UNL1        0.1398
     35 F          47.1975    9.5644  -21.8290 F       1  UNL1       -0.2044
     36 C          47.3141   11.7796  -20.9186 C.ar    1  UNL1        0.0175
     37 C          47.6347   13.1330  -21.1047 C.ar    1  UNL1        0.0130
     38 C          48.1567   13.5852  -22.3233 C.ar    1  UNL1        0.0919
     39 CL         48.6779   15.2637  -22.4123 Cl      1  UNL1       -0.0791
     40 C          46.7872   11.3001  -19.5919 C.3     1  UNL1        0.1382
     41 C          47.0647   12.3088  -18.5260 C.2     1  UNL1        0.3234
     42 O          46.1676   13.1292  -18.1888 O.2     1  UNL1       -0.2497
     43 O          48.3297   12.3468  -17.9313 O.3     1  UNL1       -0.4215
     44 C          49.3288   11.3449  -18.1413 C.3     1  UNL1        0.3207
     45 O          49.6347   10.6898  -16.9209 O.3     1  UNL1       -0.3070
     46 C          50.1062   11.5724  -15.9036 C.3     1  UNL1        0.2456
     47 C          50.9353   12.7773  -16.4302 C.3     1  UNL1        0.1781
     48 O          51.8868   13.1491  -15.4648 O.3     1  UNL1       -0.3790
     49 C          51.6364   12.3725  -17.7369 C.3     1  UNL1        0.1733
     50 O          52.4496   13.4107  -18.2262 O.3     1  UNL1       -0.3793
     51 C          50.5985   11.9407  -18.7995 C.3     1  UNL1        0.2106
     52 O          51.1696   10.9844  -19.6552 O.3     1  UNL1       -0.3766
     53 H          52.1389   14.0905  -15.6540 H       1  UNL1        0.2106
     54 H          51.8726   14.2077  -18.3613 H       1  UNL1        0.2105
     55 H          51.8090   11.4686  -20.2406 H       1  UNL1        0.2107
     56 C          48.9749   12.0186  -15.0162 C.2     1  UNL1        0.3439
     57 O          48.6877   11.3581  -13.9817 O.2     1  UNL1       -0.2475
     58 O          48.2173   13.1368  -15.3497 O.3     1  UNL1       -0.4785
     59 H          47.4594   13.4407  -14.7517 H       1  UNL1        0.2951
@<TRIPOS>BOND
     1    11    12    1
     2    12    13    1
     3    12    14    1
     4    12     7    1
     5     7     8   am
     6     8     9    2
     7     8     1    1
     8     1     2   ar
     9     2     3   ar
    10     3     4   ar
    11     4    31    1
    12    31    32    1
    13    32    33   ar
    14    33    34   ar
    15    34    35    1
    16    34    36   ar
    17    36    40    1
    18    40    41    1
    19    41    42    2
    20    41    43    1
    21    43    44    1
    22    44    45    1
    23    45    46    1
    24    46    56    1
    25    56    57    2
    26    56    58    1
    27    46    47    1
    28    47    48    1
    29    47    49    1
    30    49    50    1
    31    49    51    1
    32    51    52    1
    33    36    37   ar
    34    37    38   ar
    35    38    39    1
    36     4     5   ar
    37     5    15    1
    38    15    17    1
    39    17    18    2
    40    17    19    2
    41    17    20    1
    42    20    21   ar
    43    21    22   ar
    44    22    23   ar
    45    23    27    1
    46    27    28    1
    47    28    29    1
    48    29    30    1
    49    23    24   ar
    50    24    25   ar
    51    25    26    1
    52     5     6   ar
    53     6     1   ar
    54    38    32   ar
    55    25    20   ar
    56    51    44    1
    57    29    27    1
    58     7    10    1
    59    58    59    1
    60    48    53    1
    61    50    54    1
    62    52    55    1
    63    15    16    1
