@<TRIPOS>MOLECULE
*****
 49 56 0 0 0
SMALL
GASTEIGER

@<TRIPOS>ATOM
      1 N          59.1301   82.5035   11.1128 N.am    1  UNL1       -0.0905
      2 C          58.4583   81.5006   11.7766 C.2     1  UNL1        0.4229
      3 O          58.2998   81.5463   13.0285 O.2     1  UNL1       -0.2135
      4 C          57.9719   80.3904   11.0907 C.2     1  UNL1        0.1157
      5 C          58.2284   80.2527    9.7372 C.2     1  UNL1        0.0173
      6 C          58.8982   81.2647    9.0502 C.ar    1  UNL1        0.0828
      7 C          59.2351   81.0820    7.7055 C.ar    1  UNL1        0.1047
      8 N          59.9065   82.0446    7.0329 N.ar    1  UNL1       -0.2434
      9 C          60.2004   83.2423    7.5952 C.ar    1  UNL1        0.0870
     10 C          60.8674   84.2040    6.8296 C.ar    1  UNL1        0.0193
     11 C          61.1089   85.4745    7.3483 C.ar    1  UNL1        0.0016
     12 C          60.6095   85.8272    8.6086 C.ar    1  UNL1        0.0018
     13 C          59.9054   84.8708    9.3590 C.ar    1  UNL1        0.0075
     14 C          59.8033   83.5274    8.9278 C.ar    1  UNL1        0.0810
     15 C          59.2642   82.4596    9.7268 C.ar    1  UNL1        0.2297
     16 C          60.8503   87.1830    9.1605 C.ar    1  UNL1        0.0192
     17 C          59.9908   88.2460    8.8347 C.ar    1  UNL1        0.0988
     18 N          60.2356   89.4991    9.3013 N.ar    1  UNL1       -0.2438
     19 C          61.3019   89.7719   10.0982 C.ar    1  UNL1        0.0813
     20 C          61.5254   91.0772   10.5524 C.ar    1  UNL1        0.0191
     21 C          62.6268   91.3539   11.3684 C.ar    1  UNL1        0.0015
     22 C          63.5087   90.3309   11.7305 C.ar    1  UNL1        0.0001
     23 C          63.2932   89.0239   11.2819 C.ar    1  UNL1        0.0015
     24 C          62.1902   88.7368   10.4635 C.ar    1  UNL1        0.0177
     25 C          61.9582   87.4416    9.9840 C.ar    1  UNL1        0.0030
     26 C          63.4319   84.6350   12.3631 C.3     1  UNL1        0.0312
     27 C          61.9359   84.5616   12.5287 C.ar    1  UNL1       -0.0159
     28 C          61.2404   83.5092   11.9110 C.ar    1  UNL1        0.0648
     29 C          59.8376   83.4699   11.9231 C.ar    1  UNL1        0.2268
     30 C          59.1299   84.4309   12.6593 C.ar    1  UNL1        0.0691
     31 C          59.8105   85.4543   13.3173 C.ar    1  UNL1        0.0058
     32 C          61.2108   85.5440   13.2499 C.ar    1  UNL1       -0.0036
     33 C          61.8734   86.7228   13.8541 C.ar    1  UNL1       -0.0003
     34 C          61.1262   87.8809   14.1095 C.ar    1  UNL1        0.0001
     35 C          61.7421   89.0244   14.6194 C.ar    1  UNL1        0.0045
     36 C          63.1190   89.0263   14.9036 C.ar    1  UNL1        0.0534
     37 C          63.8615   87.8538   14.6732 C.ar    1  UNL1        0.0045
     38 C          63.2421   86.7095   14.1607 C.ar    1  UNL1        0.0001
     39 C          63.7918   90.2550   15.3884 C.2     1  UNL1        0.2458
     40 O          63.7268   90.5586   16.6113 O.2     1  UNL1       -0.2701
     41 N          64.5300   91.0971   14.4890 N.am    1  UNL1       -0.3024
     42 H          64.3035   91.0649   13.4695 H       1  UNL1        0.1497
     43 C          65.6072   91.9747   14.9613 C.3     1  UNL1        0.0746
     44 C          66.9062   91.1509   15.1337 C.3     1  UNL1        0.0369
     45 C          68.1565   92.0056   14.8824 C.3     1  UNL1        0.0738
     46 N          68.1864   92.5837   13.5137 N.3     1  UNL1       -0.2714
     47 C          69.0067   91.7664   12.6060 C.3     1  UNL1        0.0896
     48 C          66.8473   92.8292   12.9230 C.3     1  UNL1        0.0738
     49 C          65.8059   93.1669   13.9956 C.3     1  UNL1        0.0369
@<TRIPOS>BOND
     1    26    27    1
     2    27    28   ar
     3    28    29   ar
     4    29     1    1
     5     1     2    1
     6     2     3    2
     7     2     4    1
     8     4     5    2
     9     5     6    1
    10     6     7   ar
    11     7     8   ar
    12     8     9   ar
    13     9    10   ar
    14    10    11   ar
    15    11    12   ar
    16    12    16    1
    17    16    17   ar
    18    17    18   ar
    19    18    19   ar
    20    19    20   ar
    21    20    21   ar
    22    21    22   ar
    23    22    23   ar
    24    23    24   ar
    25    24    25   ar
    26    12    13   ar
    27    13    14   ar
    28    14    15   ar
    29    29    30   ar
    30    30    31   ar
    31    31    32   ar
    32    32    33    1
    33    33    34   ar
    34    34    35   ar
    35    35    36   ar
    36    36    39    1
    37    39    40    2
    38    39    41   am
    39    41    43    1
    40    43    44    1
    41    44    45    1
    42    45    46    1
    43    46    47    1
    44    46    48    1
    45    48    49    1
    46    36    37   ar
    47    37    38   ar
    48    32    27   ar
    49    38    33   ar
    50    15     1    1
    51    49    43    1
    52    15     6   ar
    53    14     9   ar
    54    25    16   ar
    55    24    19   ar
    56    41    42    1
@<TRIPOS>MOLECULE
*****
 49 56 0 0 0
SMALL
GASTEIGER

@<TRIPOS>ATOM
      1 N          59.5554   82.7467    8.7100 N.am    1  UNL1       -0.0905
      2 C          59.2505   82.6039    7.3743 C.2     1  UNL1        0.4229
      3 O          59.5929   83.4827    6.5347 O.2     1  UNL1       -0.2135
      4 C          58.5215   81.5074    6.9206 C.2     1  UNL1        0.1157
      5 C          58.0316   80.5849    7.8292 C.2     1  UNL1        0.0173
      6 C          58.3410   80.7110    9.1831 C.ar    1  UNL1        0.0828
      7 C          57.7706   79.8309   10.1079 C.ar    1  UNL1        0.1047
      8 N          58.0419   79.9564   11.4271 N.ar    1  UNL1       -0.2434
      9 C          58.9300   80.8673   11.8946 C.ar    1  UNL1        0.0870
     10 C          59.1872   80.9186   13.2684 C.ar    1  UNL1        0.0193
     11 C          60.1563   81.7838   13.7723 C.ar    1  UNL1        0.0016
     12 C          60.9415   82.5470   12.8988 C.ar    1  UNL1        0.0018
     13 C          60.7072   82.4636   11.5162 C.ar    1  UNL1        0.0075
     14 C          59.6150   81.7289   10.9983 C.ar    1  UNL1        0.0810
     15 C          59.2053   81.7512    9.6196 C.ar    1  UNL1        0.2297
     16 C          61.9850   83.4592   13.4278 C.ar    1  UNL1        0.0192
     17 C          63.3425   83.2219   13.1525 C.ar    1  UNL1        0.0988
     18 N          64.3038   84.0291   13.6745 N.ar    1  UNL1       -0.2438
     19 C          63.9970   85.0896   14.4665 C.ar    1  UNL1        0.0813
     20 C          65.0158   85.8933   14.9924 C.ar    1  UNL1        0.0191
     21 C          64.6954   86.9809   15.8109 C.ar    1  UNL1        0.0015
     22 C          63.3596   87.2674   16.1092 C.ar    1  UNL1        0.0001
     23 C          62.3352   86.4705   15.5881 C.ar    1  UNL1        0.0015
     24 C          62.6473   85.3777   14.7652 C.ar    1  UNL1        0.0177
     25 C          61.6446   84.5508   14.2433 C.ar    1  UNL1        0.0030
     26 C          59.0384   86.7615   11.5782 C.3     1  UNL1        0.0312
     27 C          59.8530   86.0002   10.5645 C.ar    1  UNL1       -0.0159
     28 C          59.2987   84.8486    9.9821 C.ar    1  UNL1        0.0648
     29 C          60.0639   84.0319    9.1353 C.ar    1  UNL1        0.2268
     30 C          61.3583   84.4353    8.7776 C.ar    1  UNL1        0.0691
     31 C          61.9041   85.6019    9.3113 C.ar    1  UNL1        0.0058
     32 C          61.1723   86.3875   10.2173 C.ar    1  UNL1       -0.0036
     33 C          61.8454   87.5421   10.8556 C.ar    1  UNL1       -0.0003
     34 C          61.7637   88.8073   10.2581 C.ar    1  UNL1        0.0001
     35 C          62.4418   89.8962   10.8071 C.ar    1  UNL1        0.0045
     36 C          63.2022   89.7452   11.9800 C.ar    1  UNL1        0.0534
     37 C          63.2597   88.4807   12.5938 C.ar    1  UNL1        0.0045
     38 C          62.5804   87.3906   12.0408 C.ar    1  UNL1        0.0001
     39 C          63.9737   90.8826   12.5355 C.2     1  UNL1        0.2458
     40 O          64.1704   90.9522   13.7798 O.2     1  UNL1       -0.2701
     41 N          64.5141   91.8987   11.6763 N.am    1  UNL1       -0.3024
     42 H          64.0779   92.0492   10.7388 H       1  UNL1        0.1497
     43 C          65.6750   92.7057   12.0695 C.3     1  UNL1        0.0746
     44 C          66.9509   91.8307   12.0258 C.3     1  UNL1        0.0369
     45 C          68.1953   92.6605   11.6797 C.3     1  UNL1        0.0738
     46 N          68.0834   93.3327   10.3591 N.3     1  UNL1       -0.2714
     47 C          68.7545   92.5557    9.3052 C.3     1  UNL1        0.0896
     48 C          66.6938   93.6621    9.9552 C.3     1  UNL1        0.0738
     49 C          65.8039   93.9563   11.1678 C.3     1  UNL1        0.0369
@<TRIPOS>BOND
     1    26    27    1
     2    27    28   ar
     3    28    29   ar
     4    29     1    1
     5     1     2    1
     6     2     3    2
     7     2     4    1
     8     4     5    2
     9     5     6    1
    10     6     7   ar
    11     7     8   ar
    12     8     9   ar
    13     9    10   ar
    14    10    11   ar
    15    11    12   ar
    16    12    16    1
    17    16    17   ar
    18    17    18   ar
    19    18    19   ar
    20    19    20   ar
    21    20    21   ar
    22    21    22   ar
    23    22    23   ar
    24    23    24   ar
    25    24    25   ar
    26    12    13   ar
    27    13    14   ar
    28    14    15   ar
    29    29    30   ar
    30    30    31   ar
    31    31    32   ar
    32    32    33    1
    33    33    34   ar
    34    34    35   ar
    35    35    36   ar
    36    36    39    1
    37    39    40    2
    38    39    41   am
    39    41    43    1
    40    43    44    1
    41    44    45    1
    42    45    46    1
    43    46    47    1
    44    46    48    1
    45    48    49    1
    46    36    37   ar
    47    37    38   ar
    48    32    27   ar
    49    38    33   ar
    50    15     1    1
    51    49    43    1
    52    15     6   ar
    53    14     9   ar
    54    25    16   ar
    55    24    19   ar
    56    41    42    1
@<TRIPOS>MOLECULE
*****
 49 56 0 0 0
SMALL
GASTEIGER

@<TRIPOS>ATOM
      1 N          59.5934   81.5039   12.6918 N.am    1  UNL1       -0.0905
      2 C          59.6705   80.5909   13.7204 C.2     1  UNL1        0.4229
      3 O          60.2985   80.8630   14.7816 O.2     1  UNL1       -0.2135
      4 C          59.0928   79.3293   13.6014 C.2     1  UNL1        0.1157
      5 C          58.4966   78.9567   12.4088 C.2     1  UNL1        0.0173
      6 C          58.4021   79.8739   11.3626 C.ar    1  UNL1        0.0828
      7 C          57.8818   79.4665   10.1304 C.ar    1  UNL1        0.1047
      8 N          57.8069   80.3383    9.0989 N.ar    1  UNL1       -0.2434
      9 C          58.1443   81.6439    9.2356 C.ar    1  UNL1        0.0870
     10 C          58.0096   82.4966    8.1351 C.ar    1  UNL1        0.0193
     11 C          58.2661   83.8600    8.2645 C.ar    1  UNL1        0.0016
     12 C          58.5771   84.4023    9.5180 C.ar    1  UNL1        0.0018
     13 C          58.6728   83.5485   10.6294 C.ar    1  UNL1        0.0075
     14 C          58.5910   82.1436   10.4868 C.ar    1  UNL1        0.0810
     15 C          58.8649   81.2055   11.5423 C.ar    1  UNL1        0.2297
     16 C          58.8367   85.8555    9.6653 C.ar    1  UNL1        0.0192
     17 C          59.0417   86.6594    8.5311 C.ar    1  UNL1        0.0988
     18 N          59.3260   87.9821    8.6650 N.ar    1  UNL1       -0.2438
     19 C          59.4146   88.5765    9.8837 C.ar    1  UNL1        0.0813
     20 C          59.7176   89.9398    9.9814 C.ar    1  UNL1        0.0191
     21 C          59.8124   90.5461   11.2379 C.ar    1  UNL1        0.0015
     22 C          59.6084   89.7941   12.3991 C.ar    1  UNL1        0.0001
     23 C          59.3049   88.4317   12.3113 C.ar    1  UNL1        0.0015
     24 C          59.2069   87.8152   11.0546 C.ar    1  UNL1        0.0177
     25 C          58.9223   86.4491   10.9353 C.ar    1  UNL1        0.0030
     26 C          63.1138   84.3373   10.6447 C.3     1  UNL1        0.0312
     27 C          62.1486   84.1016   11.7777 C.ar    1  UNL1       -0.0159
     28 C          61.4496   82.8843   11.8252 C.ar    1  UNL1        0.0648
     29 C          60.4447   82.6694   12.7811 C.ar    1  UNL1        0.2268
     30 C          60.2187   83.6378   13.7697 C.ar    1  UNL1        0.0691
     31 C          60.9391   84.8314   13.7628 C.ar    1  UNL1        0.0058
     32 C          61.8958   85.0864   12.7663 C.ar    1  UNL1       -0.0036
     33 C          62.5365   86.4212   12.7268 C.ar    1  UNL1       -0.0003
     34 C          63.2569   86.8757   13.8399 C.ar    1  UNL1        0.0001
     35 C          63.8154   88.1544   13.8495 C.ar    1  UNL1        0.0045
     36 C          63.6807   88.9999   12.7343 C.ar    1  UNL1        0.0534
     37 C          62.9816   88.5310   11.6072 C.ar    1  UNL1        0.0045
     38 C          62.4215   87.2496   11.6006 C.ar    1  UNL1        0.0001
     39 C          64.2191   90.3809   12.7599 C.2     1  UNL1        0.2458
     40 O          63.6194   91.2941   12.1290 O.2     1  UNL1       -0.2701
     41 N          65.4051   90.6978   13.5053 N.am    1  UNL1       -0.3024
     42 H          66.0829   89.9326   13.7217 H       1  UNL1        0.1497
     43 C          65.6716   92.0564   13.9921 C.3     1  UNL1        0.0746
     44 C          65.8473   92.0289   15.5296 C.3     1  UNL1        0.0369
     45 C          66.8099   93.1244   16.0094 C.3     1  UNL1        0.0738
     46 N          68.1653   92.9932   15.4142 N.3     1  UNL1       -0.2714
     47 C          69.0840   92.2934   16.3258 C.3     1  UNL1        0.0896
     48 C          68.1862   92.3616   14.0714 C.3     1  UNL1        0.0738
     49 C          66.9066   92.6604   13.2825 C.3     1  UNL1        0.0369
@<TRIPOS>BOND
     1    26    27    1
     2    27    28   ar
     3    28    29   ar
     4    29     1    1
     5     1     2    1
     6     2     3    2
     7     2     4    1
     8     4     5    2
     9     5     6    1
    10     6     7   ar
    11     7     8   ar
    12     8     9   ar
    13     9    10   ar
    14    10    11   ar
    15    11    12   ar
    16    12    16    1
    17    16    17   ar
    18    17    18   ar
    19    18    19   ar
    20    19    20   ar
    21    20    21   ar
    22    21    22   ar
    23    22    23   ar
    24    23    24   ar
    25    24    25   ar
    26    12    13   ar
    27    13    14   ar
    28    14    15   ar
    29    29    30   ar
    30    30    31   ar
    31    31    32   ar
    32    32    33    1
    33    33    34   ar
    34    34    35   ar
    35    35    36   ar
    36    36    39    1
    37    39    40    2
    38    39    41   am
    39    41    43    1
    40    43    44    1
    41    44    45    1
    42    45    46    1
    43    46    47    1
    44    46    48    1
    45    48    49    1
    46    36    37   ar
    47    37    38   ar
    48    32    27   ar
    49    38    33   ar
    50    15     1    1
    51    49    43    1
    52    15     6   ar
    53    14     9   ar
    54    25    16   ar
    55    24    19   ar
    56    41    42    1
@<TRIPOS>MOLECULE
*****
 49 56 0 0 0
SMALL
GASTEIGER

@<TRIPOS>ATOM
      1 N          59.8555   81.5188   12.8715 N.am    1  UNL1       -0.0905
      2 C          60.0194   80.4354   13.7063 C.2     1  UNL1        0.4229
      3 O          60.7685   80.5071   14.7204 O.2     1  UNL1       -0.2135
      4 C          59.3960   79.2206   13.4320 C.2     1  UNL1        0.1157
      5 C          58.6611   79.0733   12.2679 C.2     1  UNL1        0.0173
      6 C          58.4781   80.1643   11.4187 C.ar    1  UNL1        0.0828
      7 C          57.8133   79.9891   10.2012 C.ar    1  UNL1        0.1047
      8 N          57.6501   81.0326    9.3561 N.ar    1  UNL1       -0.2434
      9 C          58.0380   82.2895    9.6829 C.ar    1  UNL1        0.0870
     10 C          57.8072   83.3270    8.7738 C.ar    1  UNL1        0.0193
     11 C          58.1156   84.6428    9.1129 C.ar    1  UNL1        0.0016
     12 C          58.5787   84.9486   10.3990 C.ar    1  UNL1        0.0018
     13 C          58.7720   83.9083   11.3231 C.ar    1  UNL1        0.0075
     14 C          58.6344   82.5525   10.9438 C.ar    1  UNL1        0.0810
     15 C          58.9961   81.4379   11.7780 C.ar    1  UNL1        0.2297
     16 C          58.8948   86.3494   10.7712 C.ar    1  UNL1        0.0192
     17 C          58.2126   86.9751   11.8285 C.ar    1  UNL1        0.0988
     18 N          58.4672   88.2733   12.1416 N.ar    1  UNL1       -0.2438
     19 C          59.3851   89.0082   11.4609 C.ar    1  UNL1        0.0813
     20 C          59.6136   90.3452   11.8077 C.ar    1  UNL1        0.0191
     21 C          60.5559   91.0990   11.1011 C.ar    1  UNL1        0.0015
     22 C          61.2697   90.5225   10.0458 C.ar    1  UNL1        0.0001
     23 C          61.0485   89.1876    9.6925 C.ar    1  UNL1        0.0015
     24 C          60.1055   88.4234   10.3965 C.ar    1  UNL1        0.0177
     25 C          59.8491   87.0897   10.0545 C.ar    1  UNL1        0.0030
     26 C          63.1452   84.6971   10.9510 C.3     1  UNL1        0.0312
     27 C          62.3370   84.2424   12.1388 C.ar    1  UNL1       -0.0159
     28 C          61.6158   83.0410   12.0431 C.ar    1  UNL1        0.0648
     29 C          60.7447   82.6420   13.0686 C.ar    1  UNL1        0.2268
     30 C          60.6840   83.3949   14.2500 C.ar    1  UNL1        0.0691
     31 C          61.4313   84.5649   14.3776 C.ar    1  UNL1        0.0058
     32 C          62.2503   85.0115   13.3271 C.ar    1  UNL1       -0.0036
     33 C          62.9183   86.3265   13.4619 C.ar    1  UNL1       -0.0003
     34 C          63.8075   86.5449   14.5231 C.ar    1  UNL1        0.0001
     35 C          64.3998   87.7950   14.7065 C.ar    1  UNL1        0.0045
     36 C          64.1287   88.8499   13.8174 C.ar    1  UNL1        0.0534
     37 C          63.2581   88.6202   12.7366 C.ar    1  UNL1        0.0045
     38 C          62.6646   87.3668   12.5559 C.ar    1  UNL1        0.0001
     39 C          64.7065   90.1968   14.0398 C.2     1  UNL1        0.2458
     40 O          65.0736   90.5325   15.1992 O.2     1  UNL1       -0.2701
     41 N          64.8689   91.1200   12.9516 N.am    1  UNL1       -0.3024
     42 H          64.2701   91.0075   12.1028 H       1  UNL1        0.1497
     43 C          65.8693   92.1929   12.9916 C.3     1  UNL1        0.0746
     44 C          67.2823   91.5885   12.8077 C.3     1  UNL1        0.0369
     45 C          68.2327   92.5721   12.1104 C.3     1  UNL1        0.0738
     46 N          67.7515   92.9715   10.7623 N.3     1  UNL1       -0.2714
     47 C          68.3912   92.1699    9.7073 C.3     1  UNL1        0.0896
     48 C          66.2758   92.9496   10.6073 C.3     1  UNL1        0.0738
     49 C          65.5609   93.2699   11.9246 C.3     1  UNL1        0.0369
@<TRIPOS>BOND
     1    26    27    1
     2    27    28   ar
     3    28    29   ar
     4    29     1    1
     5     1     2    1
     6     2     3    2
     7     2     4    1
     8     4     5    2
     9     5     6    1
    10     6     7   ar
    11     7     8   ar
    12     8     9   ar
    13     9    10   ar
    14    10    11   ar
    15    11    12   ar
    16    12    16    1
    17    16    17   ar
    18    17    18   ar
    19    18    19   ar
    20    19    20   ar
    21    20    21   ar
    22    21    22   ar
    23    22    23   ar
    24    23    24   ar
    25    24    25   ar
    26    12    13   ar
    27    13    14   ar
    28    14    15   ar
    29    29    30   ar
    30    30    31   ar
    31    31    32   ar
    32    32    33    1
    33    33    34   ar
    34    34    35   ar
    35    35    36   ar
    36    36    39    1
    37    39    40    2
    38    39    41   am
    39    41    43    1
    40    43    44    1
    41    44    45    1
    42    45    46    1
    43    46    47    1
    44    46    48    1
    45    48    49    1
    46    36    37   ar
    47    37    38   ar
    48    32    27   ar
    49    38    33   ar
    50    15     1    1
    51    49    43    1
    52    15     6   ar
    53    14     9   ar
    54    25    16   ar
    55    24    19   ar
    56    41    42    1
@<TRIPOS>MOLECULE
*****
 49 56 0 0 0
SMALL
GASTEIGER

@<TRIPOS>ATOM
      1 N          59.5624   82.7326    8.6885 N.am    1  UNL1       -0.0905
      2 C          59.2512   82.5201    7.3635 C.2     1  UNL1        0.4229
      3 O          59.5849   83.3562    6.4780 O.2     1  UNL1       -0.2135
      4 C          58.5253   81.3983    6.9706 C.2     1  UNL1        0.1157
      5 C          58.0447   80.5213    7.9280 C.2     1  UNL1        0.0173
      6 C          58.3606   80.7182    9.2720 C.ar    1  UNL1        0.0828
      7 C          57.7994   79.8841   10.2438 C.ar    1  UNL1        0.1047
      8 N          58.0770   80.0784   11.5533 N.ar    1  UNL1       -0.2434
      9 C          58.9631   81.0162   11.9686 C.ar    1  UNL1        0.0870
     10 C          59.2272   81.1391   13.3366 C.ar    1  UNL1        0.0193
     11 C          60.1946   82.0335   13.7900 C.ar    1  UNL1        0.0016
     12 C          60.9715   82.7546   12.8743 C.ar    1  UNL1        0.0018
     13 C          60.7303   82.5992   11.4991 C.ar    1  UNL1        0.0075
     14 C          59.6390   81.8338   11.0256 C.ar    1  UNL1        0.0810
     15 C          59.2220   81.7835    9.6498 C.ar    1  UNL1        0.2297
     16 C          62.0132   83.6975   13.3501 C.ar    1  UNL1        0.0192
     17 C          63.3725   83.4366   13.1071 C.ar    1  UNL1        0.0988
     18 N          64.3316   84.2747   13.5822 N.ar    1  UNL1       -0.2438
     19 C          64.0210   85.3890   14.2951 C.ar    1  UNL1        0.0813
     20 C          65.0375   86.2236   14.7750 C.ar    1  UNL1        0.0191
     21 C          64.7131   87.3667   15.5123 C.ar    1  UNL1        0.0015
     22 C          63.3755   87.6782   15.7750 C.ar    1  UNL1        0.0001
     23 C          62.3533   86.8507   15.2993 C.ar    1  UNL1        0.0015
     24 C          62.6695   85.7021   14.5580 C.ar    1  UNL1        0.0177
     25 C          61.6688   84.8445   14.0838 C.ar    1  UNL1        0.0030
     26 C          59.1196   86.8283   11.4528 C.3     1  UNL1        0.0312
     27 C          59.8935   86.0498   10.4204 C.ar    1  UNL1       -0.0159
     28 C          59.3320   84.8696    9.9058 C.ar    1  UNL1        0.0648
     29 C          60.0668   84.0403    9.0445 C.ar    1  UNL1        0.2268
     30 C          61.3313   84.4561    8.6037 C.ar    1  UNL1        0.0691
     31 C          61.8812   85.6495    9.0696 C.ar    1  UNL1        0.0058
     32 C          61.1837   86.4503    9.9892 C.ar    1  UNL1       -0.0036
     33 C          61.8667   87.6375   10.5529 C.ar    1  UNL1       -0.0003
     34 C          61.8394   88.8497    9.8500 C.ar    1  UNL1        0.0001
     35 C          62.5285   89.9639   10.3304 C.ar    1  UNL1        0.0045
     36 C          63.2452   89.8932   11.5379 C.ar    1  UNL1        0.0534
     37 C          63.2477   88.6836   12.2561 C.ar    1  UNL1        0.0045
     38 C          62.5575   87.5679   11.7718 C.ar    1  UNL1        0.0001
     39 C          64.0288   91.0539   12.0240 C.2     1  UNL1        0.2458
     40 O          64.0606   92.1134   11.3399 O.2     1  UNL1       -0.2701
     41 N          64.7401   90.9953   13.2704 N.am    1  UNL1       -0.3024
     42 H          65.0119   90.0610   13.6512 H       1  UNL1        0.1497
     43 C          65.0665   92.2070   14.0312 C.3     1  UNL1        0.0746
     44 C          65.3832   91.8264   15.4977 C.3     1  UNL1        0.0369
     45 C          66.3990   92.7906   16.1264 C.3     1  UNL1        0.0738
     46 N          67.6919   92.8140   15.3941 N.3     1  UNL1       -0.2714
     47 C          68.6825   91.9314   16.0302 C.3     1  UNL1        0.0896
     48 C          67.5812   92.5102   13.9457 C.3     1  UNL1        0.0738
     49 C          66.2378   92.9708   13.3693 C.3     1  UNL1        0.0369
@<TRIPOS>BOND
     1    26    27    1
     2    27    28   ar
     3    28    29   ar
     4    29     1    1
     5     1     2    1
     6     2     3    2
     7     2     4    1
     8     4     5    2
     9     5     6    1
    10     6     7   ar
    11     7     8   ar
    12     8     9   ar
    13     9    10   ar
    14    10    11   ar
    15    11    12   ar
    16    12    16    1
    17    16    17   ar
    18    17    18   ar
    19    18    19   ar
    20    19    20   ar
    21    20    21   ar
    22    21    22   ar
    23    22    23   ar
    24    23    24   ar
    25    24    25   ar
    26    12    13   ar
    27    13    14   ar
    28    14    15   ar
    29    29    30   ar
    30    30    31   ar
    31    31    32   ar
    32    32    33    1
    33    33    34   ar
    34    34    35   ar
    35    35    36   ar
    36    36    39    1
    37    39    40    2
    38    39    41   am
    39    41    43    1
    40    43    44    1
    41    44    45    1
    42    45    46    1
    43    46    47    1
    44    46    48    1
    45    48    49    1
    46    36    37   ar
    47    37    38   ar
    48    32    27   ar
    49    38    33   ar
    50    15     1    1
    51    49    43    1
    52    15     6   ar
    53    14     9   ar
    54    25    16   ar
    55    24    19   ar
    56    41    42    1
