@<TRIPOS>MOLECULE
*****
 52 57 0 0 0
SMALL
GASTEIGER

@<TRIPOS>ATOM
      1 N          60.2057   85.5751   11.1773 N.am    1  UNL1       -0.2945
      2 C          59.2314   86.5931   10.8979 C.2     1  UNL1        0.2483
      3 O          58.1962   86.6825   11.6135 O.2     1  UNL1       -0.2701
      4 H          60.9257   85.3570   10.4516 H       1  UNL1        0.1501
      5 C          59.4061   87.5209    9.7574 C.ar    1  UNL1        0.0808
      6 C          58.8944   87.1732    8.4969 C.ar    1  UNL1        0.0080
      7 C          59.0512   88.0297    7.4045 C.ar    1  UNL1        0.0148
      8 C          59.7140   89.2606    7.5498 C.ar    1  UNL1        0.0502
      9 C          60.2137   89.6144    8.8152 C.ar    1  UNL1        0.0443
     10 C          60.0585   88.7591    9.9107 C.ar    1  UNL1        0.1457
     11 F          60.5017   89.1704   11.1257 F       1  UNL1       -0.2040
     12 N          59.8823   90.1461    6.4202 N.pl3   1  UNL1       -0.3040
     13 C          61.1993   90.7275    6.1236 C.3     1  UNL1        0.1123
     14 C          61.3734   90.9388    4.6156 C.3     1  UNL1        0.1136
     15 N          60.2218   91.6395    4.0225 N.pl3   1  UNL1       -0.2897
     16 C          58.9932   91.8167    4.8099 C.3     1  UNL1        0.1136
     17 C          58.7046   90.5652    5.6444 C.3     1  UNL1        0.1123
     18 C          60.3379   92.2721    2.7277 C.ar    1  UNL1        0.1318
     19 C          59.2293   92.8678    2.1009 C.ar    1  UNL1        0.0343
     20 C          59.3822   93.4682    0.8502 C.ar    1  UNL1        0.0083
     21 C          60.6390   93.4980    0.2285 C.ar    1  UNL1        0.0906
     22 C          61.7163   92.8739    0.8750 C.ar    1  UNL1        0.1041
     23 N          61.5430   92.2932    2.0915 N.ar    1  UNL1       -0.2292
     24 C          60.8062   94.0989   -1.1438 C.3     1  UNL1        0.4200
     25 F          60.9139   93.0835   -2.0754 F       1  UNL1       -0.1658
     26 F          61.9454   94.8835   -1.1978 F       1  UNL1       -0.1658
     27 F          59.7184   94.8924   -1.4649 F       1  UNL1       -0.1658
     28 C          60.1094   84.7102   12.3555 C.3     1  UNL1        0.1535
     29 N          61.8939   85.6612   13.9150 N.am    1  UNL1       -0.2825
     30 C          60.5075   85.4830   13.5859 C.2     1  UNL1        0.2443
     31 O          59.6095   85.9527   14.3363 O.2     1  UNL1       -0.2730
     32 H          62.5823   84.9763   13.5290 H       1  UNL1        0.1549
     33 C          63.3837   88.8938   15.1072 C.ar    1  UNL1        0.0900
     34 C          62.8758   87.9151   14.2419 C.ar    1  UNL1        0.0319
     35 C          62.3844   86.7085   14.7687 C.ar    1  UNL1        0.0532
     36 C          62.4343   86.5024   16.1532 C.ar    1  UNL1        0.0353
     37 C          62.9335   87.5072   16.9841 C.ar    1  UNL1        0.0998
     38 N          63.3889   88.6708   16.4499 N.ar    1  UNL1       -0.2456
     39 C          63.8901   90.1950   14.5665 C.3     1  UNL1        0.1876
     40 C          63.9652   91.1535   12.4754 C.3     1  UNL1        0.1747
     41 O          63.1268   90.5478   13.4332 O.3     1  UNL1       -0.3447
     42 C          58.6807   84.1482   12.4868 C.3     1  UNL1        0.0569
     43 C          58.4544   82.9813   11.5674 C.ar    1  UNL1       -0.0017
     44 C          57.9953   83.0396   10.2547 C.ar    1  UNL1        0.0681
     45 N          57.8183   81.7932    9.7606 N.ar    1  UNL1       -0.3523
     46 C          58.1533   80.9496   10.7524 C.ar    1  UNL1        0.0563
     47 C          58.1130   79.5563   10.7263 C.ar    1  UNL1        0.0170
     48 C          58.4887   78.8657   11.8932 C.ar    1  UNL1        0.0015
     49 C          58.8879   79.5752   13.0480 C.ar    1  UNL1        0.0001
     50 C          58.9161   80.9817   13.0462 C.ar    1  UNL1        0.0012
     51 C          58.5431   81.6378   11.8730 C.ar    1  UNL1        0.0131
     52 H          57.4730   81.5421    8.8076 H       1  UNL1        0.1660
@<TRIPOS>BOND
     1    40    41    1
     2    41    39    1
     3    39    33    1
     4    33    34   ar
     5    34    35   ar
     6    35    29    1
     7    29    30   am
     8    30    31    2
     9    30    28    1
    10    28    42    1
    11    42    43    1
    12    43    44   ar
    13    44    45   ar
    14    45    46   ar
    15    46    47   ar
    16    47    48   ar
    17    48    49   ar
    18    49    50   ar
    19    50    51   ar
    20    28     1    1
    21     1     2   am
    22     2     3    2
    23     2     5    1
    24     5     6   ar
    25     6     7   ar
    26     7     8   ar
    27     8    12    1
    28    12    13    1
    29    13    14    1
    30    14    15    1
    31    15    18    1
    32    18    19   ar
    33    19    20   ar
    34    20    21   ar
    35    21    24    1
    36    24    25    1
    37    24    26    1
    38    24    27    1
    39    21    22   ar
    40    22    23   ar
    41    15    16    1
    42    16    17    1
    43     8     9   ar
    44     9    10   ar
    45    10    11    1
    46    35    36   ar
    47    36    37   ar
    48    37    38   ar
    49    38    33   ar
    50    51    43   ar
    51    10     5   ar
    52    51    46   ar
    53    17    12    1
    54    23    18   ar
    55    29    32    1
    56    45    52    1
    57     1     4    1
@<TRIPOS>MOLECULE
*****
 52 57 0 0 0
SMALL
GASTEIGER

@<TRIPOS>ATOM
      1 N          61.6373   83.9891   13.3508 N.am    1  UNL1       -0.2945
      2 C          60.3531   84.4722   12.9254 C.2     1  UNL1        0.2483
      3 O          59.3036   83.9999   13.4424 O.2     1  UNL1       -0.2701
      4 H          62.4744   84.2045   12.7631 H       1  UNL1        0.1501
      5 C          60.2394   85.4946   11.8606 C.ar    1  UNL1        0.0808
      6 C          59.3202   85.3075   10.8158 C.ar    1  UNL1        0.0080
      7 C          59.1984   86.2555    9.7971 C.ar    1  UNL1        0.0148
      8 C          59.9857   87.4199    9.8055 C.ar    1  UNL1        0.0502
      9 C          60.8958   87.6133   10.8591 C.ar    1  UNL1        0.0443
     10 C          61.0202   86.6660   11.8804 C.ar    1  UNL1        0.1457
     11 F          61.8663   86.9253   12.9094 F       1  UNL1       -0.2040
     12 N          59.8656   88.3996    8.7500 N.pl3   1  UNL1       -0.3040
     13 C          60.2735   89.7926    8.9813 C.3     1  UNL1        0.1123
     14 C          60.8030   90.4259    7.6900 C.3     1  UNL1        0.1136
     15 N          59.8862   90.2126    6.5574 N.pl3   1  UNL1       -0.2897
     16 C          58.7738   89.2610    6.6907 C.3     1  UNL1        0.1136
     17 C          59.2141   88.0272    7.4844 C.3     1  UNL1        0.1123
     18 C          59.9889   91.0294    5.3689 C.ar    1  UNL1        0.1318
     19 C          58.8824   91.7379    4.8685 C.ar    1  UNL1        0.0343
     20 C          59.0222   92.5154    3.7178 C.ar    1  UNL1        0.0083
     21 C          60.2644   92.6088    3.0735 C.ar    1  UNL1        0.0906
     22 C          61.3393   91.8700    3.5901 C.ar    1  UNL1        0.1041
     23 N          61.1789   91.1176    4.7104 N.ar    1  UNL1       -0.2292
     24 C          60.4157   93.4048    1.8024 C.3     1  UNL1        0.4200
     25 F          60.3369   94.7529    2.0973 F       1  UNL1       -0.1658
     26 F          59.4160   93.0809    0.9014 F       1  UNL1       -0.1658
     27 F          61.6373   93.1440    1.2058 F       1  UNL1       -0.1658
     28 C          61.7841   83.0539   14.4686 C.3     1  UNL1        0.1535
     29 N          59.8910   81.4151   13.9675 N.am    1  UNL1       -0.2825
     30 C          61.2979   81.6892   14.0554 C.2     1  UNL1        0.2443
     31 O          62.1397   80.7832   13.8092 O.2     1  UNL1       -0.2730
     32 H          59.2382   82.0154   14.5202 H       1  UNL1        0.1549
     33 C          58.2481   79.5013   11.1874 C.ar    1  UNL1        0.0900
     34 C          58.8221   80.5649   11.8974 C.ar    1  UNL1        0.0319
     35 C          59.3326   80.3443   13.1879 C.ar    1  UNL1        0.0532
     36 C          59.2355   79.0634   13.7462 C.ar    1  UNL1        0.0353
     37 C          58.6707   78.0258   13.0019 C.ar    1  UNL1        0.0998
     38 N          58.1979   78.2631   11.7502 N.ar    1  UNL1       -0.2456
     39 C          57.7199   79.7117    9.8022 C.3     1  UNL1        0.1876
     40 C          58.1223   81.3696    8.2573 C.3     1  UNL1        0.1747
     41 O          57.6330   81.0977    9.5511 O.3     1  UNL1       -0.3447
     42 C          63.2528   83.0067   14.9326 C.3     1  UNL1        0.0569
     43 C          63.8709   84.3759   14.9652 C.ar    1  UNL1       -0.0017
     44 C          65.1548   84.7139   14.5472 C.ar    1  UNL1        0.0681
     45 N          65.4098   86.0158   14.8102 N.ar    1  UNL1       -0.3523
     46 C          64.3016   86.4996   15.3981 C.ar    1  UNL1        0.0563
     47 C          64.0931   87.7941   15.8719 C.ar    1  UNL1        0.0170
     48 C          62.8562   88.0809   16.4781 C.ar    1  UNL1        0.0015
     49 C          61.8683   87.0780   16.5991 C.ar    1  UNL1        0.0001
     50 C          62.1078   85.7794   16.1142 C.ar    1  UNL1        0.0012
     51 C          63.3414   85.5271   15.5137 C.ar    1  UNL1        0.0131
     52 H          66.2960   86.5313   14.6123 H       1  UNL1        0.1660
@<TRIPOS>BOND
     1    40    41    1
     2    41    39    1
     3    39    33    1
     4    33    34   ar
     5    34    35   ar
     6    35    29    1
     7    29    30   am
     8    30    31    2
     9    30    28    1
    10    28    42    1
    11    42    43    1
    12    43    44   ar
    13    44    45   ar
    14    45    46   ar
    15    46    47   ar
    16    47    48   ar
    17    48    49   ar
    18    49    50   ar
    19    50    51   ar
    20    28     1    1
    21     1     2   am
    22     2     3    2
    23     2     5    1
    24     5     6   ar
    25     6     7   ar
    26     7     8   ar
    27     8    12    1
    28    12    13    1
    29    13    14    1
    30    14    15    1
    31    15    18    1
    32    18    19   ar
    33    19    20   ar
    34    20    21   ar
    35    21    24    1
    36    24    25    1
    37    24    26    1
    38    24    27    1
    39    21    22   ar
    40    22    23   ar
    41    15    16    1
    42    16    17    1
    43     8     9   ar
    44     9    10   ar
    45    10    11    1
    46    35    36   ar
    47    36    37   ar
    48    37    38   ar
    49    38    33   ar
    50    51    43   ar
    51    10     5   ar
    52    51    46   ar
    53    17    12    1
    54    23    18   ar
    55    29    32    1
    56    45    52    1
    57     1     4    1
@<TRIPOS>MOLECULE
*****
 52 57 0 0 0
SMALL
GASTEIGER

@<TRIPOS>ATOM
      1 N          62.3867   83.6947   12.8646 N.am    1  UNL1       -0.2945
      2 C          61.3437   84.6752   12.9847 C.2     1  UNL1        0.2483
      3 O          60.6519   84.7278   14.0384 O.2     1  UNL1       -0.2701
      4 H          62.7875   83.5017   11.9187 H       1  UNL1        0.1501
      5 C          61.0430   85.6061   11.8733 C.ar    1  UNL1        0.0808
      6 C          61.0269   86.9895   12.1135 C.ar    1  UNL1        0.0080
      7 C          60.7407   87.8873   11.0822 C.ar    1  UNL1        0.0148
      8 C          60.4752   87.4228    9.7824 C.ar    1  UNL1        0.0502
      9 C          60.5054   86.0386    9.5395 C.ar    1  UNL1        0.0443
     10 C          60.7913   85.1372   10.5698 C.ar    1  UNL1        0.1457
     11 F          60.8711   83.8150   10.2746 F       1  UNL1       -0.2040
     12 N          60.1737   88.3491    8.7150 N.pl3   1  UNL1       -0.3040
     13 C          60.2230   89.7984    8.9549 C.3     1  UNL1        0.1123
     14 C          60.6459   90.5457    7.6853 C.3     1  UNL1        0.1136
     15 N          59.8626   90.1226    6.5121 N.pl3   1  UNL1       -0.2897
     16 C          59.0067   88.9308    6.5997 C.3     1  UNL1        0.1136
     17 C          59.6924   87.8361    7.4228 C.3     1  UNL1        0.1123
     18 C          59.8228   90.9450    5.3237 C.ar    1  UNL1        0.1318
     19 C          58.6191   91.5035    4.8588 C.ar    1  UNL1        0.0343
     20 C          58.6222   92.2917    3.7070 C.ar    1  UNL1        0.0083
     21 C          59.8218   92.5451    3.0261 C.ar    1  UNL1        0.0906
     22 C          60.9985   91.9525    3.5079 C.ar    1  UNL1        0.1041
     23 N          60.9709   91.1865    4.6302 N.ar    1  UNL1       -0.2292
     24 C          59.8302   93.3530    1.7535 C.3     1  UNL1        0.4200
     25 F          60.9895   93.0832    1.0507 F       1  UNL1       -0.1658
     26 F          59.7777   94.7074    2.0345 F       1  UNL1       -0.1658
     27 F          58.7391   93.0319    0.9645 F       1  UNL1       -0.1658
     28 C          62.7720   82.8296   13.9821 C.3     1  UNL1        0.1535
     29 N          63.4722   84.9768   15.1739 N.am    1  UNL1       -0.2825
     30 C          62.9171   83.6537   15.2348 C.2     1  UNL1        0.2443
     31 O          62.5666   83.1606   16.3412 O.2     1  UNL1       -0.2730
     32 H          64.0876   85.2143   14.3634 H       1  UNL1        0.1549
     33 C          63.1257   88.2994   16.8858 C.ar    1  UNL1        0.0900
     34 C          63.3017   87.3515   15.8683 C.ar    1  UNL1        0.0319
     35 C          63.2548   85.9817   16.1783 C.ar    1  UNL1        0.0532
     36 C          63.0535   85.5938   17.5091 C.ar    1  UNL1        0.0353
     37 C          62.8670   86.5673   18.4923 C.ar    1  UNL1        0.0998
     38 N          62.9025   87.8852   18.1629 N.ar    1  UNL1       -0.2456
     39 C          63.1492   89.7630   16.5709 C.3     1  UNL1        0.1876
     40 C          63.7187   90.8006   14.5970 C.3     1  UNL1        0.1747
     41 O          62.7859   89.9465   15.2197 O.3     1  UNL1       -0.3447
     42 C          61.7321   81.7079   14.1687 C.3     1  UNL1        0.0569
     43 C          61.3566   81.0729   12.8596 C.ar    1  UNL1       -0.0017
     44 C          62.1595   80.2429   12.0826 C.ar    1  UNL1        0.0681
     45 N          61.5356   79.9325   10.9235 N.ar    1  UNL1       -0.3523
     46 C          60.3503   80.5660   10.9587 C.ar    1  UNL1        0.0563
     47 C          59.3630   80.5665    9.9745 C.ar    1  UNL1        0.0170
     48 C          58.1999   81.3224   10.2104 C.ar    1  UNL1        0.0015
     49 C          58.0531   82.0553   11.4094 C.ar    1  UNL1        0.0001
     50 C          59.0675   82.0384   12.3839 C.ar    1  UNL1        0.0012
     51 C          60.2063   81.2759   12.1235 C.ar    1  UNL1        0.0131
     52 H          61.9105   79.3366   10.1523 H       1  UNL1        0.1660
@<TRIPOS>BOND
     1    40    41    1
     2    41    39    1
     3    39    33    1
     4    33    34   ar
     5    34    35   ar
     6    35    29    1
     7    29    30   am
     8    30    31    2
     9    30    28    1
    10    28    42    1
    11    42    43    1
    12    43    44   ar
    13    44    45   ar
    14    45    46   ar
    15    46    47   ar
    16    47    48   ar
    17    48    49   ar
    18    49    50   ar
    19    50    51   ar
    20    28     1    1
    21     1     2   am
    22     2     3    2
    23     2     5    1
    24     5     6   ar
    25     6     7   ar
    26     7     8   ar
    27     8    12    1
    28    12    13    1
    29    13    14    1
    30    14    15    1
    31    15    18    1
    32    18    19   ar
    33    19    20   ar
    34    20    21   ar
    35    21    24    1
    36    24    25    1
    37    24    26    1
    38    24    27    1
    39    21    22   ar
    40    22    23   ar
    41    15    16    1
    42    16    17    1
    43     8     9   ar
    44     9    10   ar
    45    10    11    1
    46    35    36   ar
    47    36    37   ar
    48    37    38   ar
    49    38    33   ar
    50    51    43   ar
    51    10     5   ar
    52    51    46   ar
    53    17    12    1
    54    23    18   ar
    55    29    32    1
    56    45    52    1
    57     1     4    1
@<TRIPOS>MOLECULE
*****
 52 57 0 0 0
SMALL
GASTEIGER

@<TRIPOS>ATOM
      1 N          62.2535   85.0765   14.1251 N.am    1  UNL1       -0.2945
      2 C          61.0069   85.0566   13.4114 C.2     1  UNL1        0.2483
      3 O          60.1142   84.2252   13.7332 O.2     1  UNL1       -0.2701
      4 H          63.0620   85.5917   13.7086 H       1  UNL1        0.1501
      5 C          60.7652   85.9764   12.2767 C.ar    1  UNL1        0.0808
      6 C          60.4976   85.4497   11.0029 C.ar    1  UNL1        0.0080
      7 C          60.2714   86.2973    9.9157 C.ar    1  UNL1        0.0148
      8 C          60.2959   87.6931   10.0795 C.ar    1  UNL1        0.0502
      9 C          60.5499   88.2196   11.3578 C.ar    1  UNL1        0.0443
     10 C          60.7770   87.3738   12.4482 C.ar    1  UNL1        0.1457
     11 F          60.9556   87.9265   13.6748 F       1  UNL1       -0.2040
     12 N          60.0675   88.5722    8.9555 N.pl3   1  UNL1       -0.3040
     13 C          60.2395   90.0245    9.1031 C.3     1  UNL1        0.1123
     14 C          60.7169   90.6519    7.7888 C.3     1  UNL1        0.1136
     15 N          59.8949   90.2229    6.6446 N.pl3   1  UNL1       -0.2897
     16 C          58.9425   89.1151    6.8074 C.3     1  UNL1        0.1136
     17 C          59.5382   88.0208    7.6983 C.3     1  UNL1        0.1123
     18 C          59.9179   90.9690    5.4065 C.ar    1  UNL1        0.1318
     19 C          61.1089   91.1490    4.6813 C.ar    1  UNL1        0.0343
     20 C          61.0898   91.8763    3.4902 C.ar    1  UNL1        0.0083
     21 C          59.8862   92.4081    3.0050 C.ar    1  UNL1        0.0906
     22 C          58.7229   92.2263    3.7677 C.ar    1  UNL1        0.1041
     23 N          58.7661   91.5166    4.9259 N.ar    1  UNL1       -0.2292
     24 C          59.8615   93.2374    1.7465 C.3     1  UNL1        0.4200
     25 F          59.8563   94.5778    2.0846 F       1  UNL1       -0.1658
     26 F          58.7313   92.9564    0.9984 F       1  UNL1       -0.1658
     27 F          60.9740   92.9734    0.9662 F       1  UNL1       -0.1658
     28 C          62.4822   84.2495   15.3122 C.3     1  UNL1        0.1535
     29 N          61.6985   82.1147   14.1506 N.am    1  UNL1       -0.2825
     30 C          62.7029   82.8179   14.8981 C.2     1  UNL1        0.2443
     31 O          63.7700   82.2363   15.2346 O.2     1  UNL1       -0.2730
     32 H          60.7123   82.4550   14.2120 H       1  UNL1        0.1549
     33 C          62.0597   79.8118   11.2084 C.ar    1  UNL1        0.0900
     34 C          61.8289   80.9787   11.9498 C.ar    1  UNL1        0.0319
     35 C          61.9667   80.9527   13.3481 C.ar    1  UNL1        0.0532
     36 C          62.3124   79.7481   13.9735 C.ar    1  UNL1        0.0353
     37 C          62.5492   78.6104   13.1996 C.ar    1  UNL1        0.0998
     38 N          62.4233   78.6666   11.8477 N.ar    1  UNL1       -0.2456
     39 C          61.9406   79.8258    9.7159 C.3     1  UNL1        0.1876
     40 C          60.1455   80.9915    8.8696 C.3     1  UNL1        0.1747
     41 O          61.4822   81.0957    9.3052 O.3     1  UNL1       -0.3447
     42 C          63.6820   84.7905   16.1136 C.3     1  UNL1        0.0569
     43 C          63.4472   86.1973   16.5865 C.ar    1  UNL1       -0.0017
     44 C          62.8856   86.5785   17.8017 C.ar    1  UNL1        0.0681
     45 N          62.7369   87.9218   17.8525 N.ar    1  UNL1       -0.3523
     46 C          63.1917   88.3904   16.6772 C.ar    1  UNL1        0.0563
     47 C          63.2232   89.7177   16.2520 C.ar    1  UNL1        0.0170
     48 C          63.7239   89.9838   14.9643 C.ar    1  UNL1        0.0015
     49 C          64.1732   88.9290   14.1386 C.ar    1  UNL1        0.0001
     50 C          64.1269   87.5985   14.5932 C.ar    1  UNL1        0.0012
     51 C          63.6302   87.3670   15.8761 C.ar    1  UNL1        0.0131
     52 H          62.3327   88.4763   18.6396 H       1  UNL1        0.1660
@<TRIPOS>BOND
     1    40    41    1
     2    41    39    1
     3    39    33    1
     4    33    34   ar
     5    34    35   ar
     6    35    29    1
     7    29    30   am
     8    30    31    2
     9    30    28    1
    10    28    42    1
    11    42    43    1
    12    43    44   ar
    13    44    45   ar
    14    45    46   ar
    15    46    47   ar
    16    47    48   ar
    17    48    49   ar
    18    49    50   ar
    19    50    51   ar
    20    28     1    1
    21     1     2   am
    22     2     3    2
    23     2     5    1
    24     5     6   ar
    25     6     7   ar
    26     7     8   ar
    27     8    12    1
    28    12    13    1
    29    13    14    1
    30    14    15    1
    31    15    18    1
    32    18    19   ar
    33    19    20   ar
    34    20    21   ar
    35    21    24    1
    36    24    25    1
    37    24    26    1
    38    24    27    1
    39    21    22   ar
    40    22    23   ar
    41    15    16    1
    42    16    17    1
    43     8     9   ar
    44     9    10   ar
    45    10    11    1
    46    35    36   ar
    47    36    37   ar
    48    37    38   ar
    49    38    33   ar
    50    51    43   ar
    51    10     5   ar
    52    51    46   ar
    53    17    12    1
    54    23    18   ar
    55    29    32    1
    56    45    52    1
    57     1     4    1
@<TRIPOS>MOLECULE
*****
 52 57 0 0 0
SMALL
GASTEIGER

@<TRIPOS>ATOM
      1 N          60.3052   86.9115   12.2406 N.am    1  UNL1       -0.2945
      2 C          59.5281   86.6927   11.0524 C.2     1  UNL1        0.2483
      3 O          58.7583   85.6956   10.9823 O.2     1  UNL1       -0.2701
      4 H          61.1020   87.5869   12.2018 H       1  UNL1        0.1501
      5 C          59.6426   87.6028    9.8902 C.ar    1  UNL1        0.0808
      6 C          59.3712   87.1174    8.6008 C.ar    1  UNL1        0.0080
      7 C          59.4774   87.9554    7.4882 C.ar    1  UNL1        0.0148
      8 C          59.8465   89.3031    7.6402 C.ar    1  UNL1        0.0502
      9 C          60.1044   89.7920    8.9326 C.ar    1  UNL1        0.0443
     10 C          59.9992   88.9556   10.0485 C.ar    1  UNL1        0.1457
     11 F          60.1963   89.4872   11.2816 F       1  UNL1       -0.2040
     12 N          59.9624   90.1708    6.4904 N.pl3   1  UNL1       -0.3040
     13 C          61.2545   90.7838    6.1512 C.3     1  UNL1        0.1123
     14 C          61.3867   90.9705    4.6357 C.3     1  UNL1        0.1136
     15 N          60.2016   91.6262    4.0575 N.pl3   1  UNL1       -0.2897
     16 C          58.9873   91.7834    4.8707 C.3     1  UNL1        0.1136
     17 C          58.7549   90.5407    5.7354 C.3     1  UNL1        0.1123
     18 C          60.2687   92.2365    2.7486 C.ar    1  UNL1        0.1318
     19 C          59.1603   92.8970    2.1901 C.ar    1  UNL1        0.0343
     20 C          59.2651   93.4732    0.9232 C.ar    1  UNL1        0.0083
     21 C          60.4752   93.4141    0.2168 C.ar    1  UNL1        0.0906
     22 C          61.5519   92.7274    0.7974 C.ar    1  UNL1        0.1041
     23 N          61.4258   92.1719    2.0313 N.ar    1  UNL1       -0.2292
     24 C          60.5858   93.9886   -1.1724 C.3     1  UNL1        0.4200
     25 F          60.8120   92.9639   -2.0722 F       1  UNL1       -0.1658
     26 F          61.6318   94.8922   -1.2454 F       1  UNL1       -0.1658
     27 F          59.4196   94.6471   -1.5225 F       1  UNL1       -0.1658
     28 C          60.1389   86.0876   13.4402 C.3     1  UNL1        0.1535
     29 N          61.1826   83.9861   14.4479 N.am    1  UNL1       -0.2825
     30 C          61.2598   85.0848   13.5262 C.2     1  UNL1        0.2443
     31 O          62.2771   85.2331   12.7961 O.2     1  UNL1       -0.2730
     32 H          60.5554   84.0846   15.2779 H       1  UNL1        0.1549
     33 C          62.3507   80.6183   13.2715 C.ar    1  UNL1        0.0900
     34 C          61.6111   81.8068   13.3445 C.ar    1  UNL1        0.0319
     35 C          61.9409   82.7729   14.3102 C.ar    1  UNL1        0.0532
     36 C          62.9939   82.5139   15.1968 C.ar    1  UNL1        0.0353
     37 C          63.7171   81.3251   15.0830 C.ar    1  UNL1        0.0998
     38 N          63.3866   80.4141   14.1303 N.ar    1  UNL1       -0.2456
     39 C          62.0291   79.5876   12.2341 C.3     1  UNL1        0.1876
     40 C          62.2723   79.8054    9.9558 C.3     1  UNL1        0.1747
     41 O          61.5397   80.2365   11.0804 O.3     1  UNL1       -0.3447
     42 C          60.0904   86.9802   14.6953 C.3     1  UNL1        0.0569
     43 C          61.4656   87.3918   15.1397 C.ar    1  UNL1       -0.0017
     44 C          62.1536   86.9129   16.2508 C.ar    1  UNL1        0.0681
     45 N          63.3241   87.5732   16.4021 N.ar    1  UNL1       -0.3523
     46 C          63.3766   88.4699   15.4017 C.ar    1  UNL1        0.0563
     47 C          64.3857   89.3988   15.1517 C.ar    1  UNL1        0.0170
     48 C          64.2253   90.2641   14.0539 C.ar    1  UNL1        0.0015
     49 C          63.0715   90.1851   13.2423 C.ar    1  UNL1        0.0001
     50 C          62.0679   89.2394   13.5203 C.ar    1  UNL1        0.0012
     51 C          62.2577   88.3921   14.6121 C.ar    1  UNL1        0.0131
     52 H          64.0317   87.4259   17.1559 H       1  UNL1        0.1660
@<TRIPOS>BOND
     1    40    41    1
     2    41    39    1
     3    39    33    1
     4    33    34   ar
     5    34    35   ar
     6    35    29    1
     7    29    30   am
     8    30    31    2
     9    30    28    1
    10    28    42    1
    11    42    43    1
    12    43    44   ar
    13    44    45   ar
    14    45    46   ar
    15    46    47   ar
    16    47    48   ar
    17    48    49   ar
    18    49    50   ar
    19    50    51   ar
    20    28     1    1
    21     1     2   am
    22     2     3    2
    23     2     5    1
    24     5     6   ar
    25     6     7   ar
    26     7     8   ar
    27     8    12    1
    28    12    13    1
    29    13    14    1
    30    14    15    1
    31    15    18    1
    32    18    19   ar
    33    19    20   ar
    34    20    21   ar
    35    21    24    1
    36    24    25    1
    37    24    26    1
    38    24    27    1
    39    21    22   ar
    40    22    23   ar
    41    15    16    1
    42    16    17    1
    43     8     9   ar
    44     9    10   ar
    45    10    11    1
    46    35    36   ar
    47    36    37   ar
    48    37    38   ar
    49    38    33   ar
    50    51    43   ar
    51    10     5   ar
    52    51    46   ar
    53    17    12    1
    54    23    18   ar
    55    29    32    1
    56    45    52    1
    57     1     4    1
