@<TRIPOS>MOLECULE
*****
 51 56 0 0 0
SMALL
GASTEIGER

@<TRIPOS>ATOM
      1 C         -62.2553  -41.7422  -20.3690 C.2     1  UNL1        0.2483
      2 O         -61.4807  -42.1983  -19.4842 O.2     1  UNL1       -0.2701
      3 N         -63.2929  -40.8160  -20.0047 N.am    1  UNL1       -0.2945
      4 H         -63.8726  -40.3841  -20.7583 H       1  UNL1        0.1501
      5 C         -61.8645  -43.0291  -24.4527 C.ar    1  UNL1        0.0518
      6 C         -62.8720  -42.1287  -24.0709 C.ar    1  UNL1        0.0149
      7 C         -63.0136  -41.7480  -22.7352 C.ar    1  UNL1        0.0080
      8 C         -62.1416  -42.2458  -21.7544 C.ar    1  UNL1        0.0808
      9 C         -61.1536  -43.1757  -22.1269 C.ar    1  UNL1        0.1457
     10 F         -60.3407  -43.7425  -21.2001 F       1  UNL1       -0.2040
     11 C         -61.0167  -43.5577  -23.4650 C.ar    1  UNL1        0.0443
     12 C         -62.8548  -43.4295  -26.7451 C.3     1  UNL1        0.2125
     13 C         -62.4223  -42.9643  -28.1484 C.3     1  UNL1        0.1432
     14 N         -61.2277  -43.6827  -28.6247 N.pl3   1  UNL1       -0.2875
     15 C         -60.4333  -44.4863  -27.6847 C.3     1  UNL1        0.1137
     16 C         -60.3653  -43.8060  -26.3142 C.3     1  UNL1        0.1144
     17 N         -61.6957  -43.3923  -25.8396 N.pl3   1  UNL1       -0.2829
     18 C         -60.9025  -43.7079  -30.0328 C.ar    1  UNL1        0.1318
     19 C         -59.8104  -44.4474  -30.5192 C.ar    1  UNL1        0.0343
     20 C         -59.5290  -44.4460  -31.8863 C.ar    1  UNL1        0.0083
     21 C         -60.3428  -43.7293  -32.7756 C.ar    1  UNL1        0.0906
     22 C         -61.4106  -42.9866  -32.2497 C.ar    1  UNL1        0.1041
     23 N         -61.6639  -43.0007  -30.9146 N.ar    1  UNL1       -0.2292
     24 C         -60.0199  -43.6795  -34.2472 C.3     1  UNL1        0.4200
     25 F         -59.3631  -44.8321  -34.6422 F       1  UNL1       -0.1658
     26 F         -61.1940  -43.5607  -34.9670 F       1  UNL1       -0.1658
     27 F         -59.2048  -42.5976  -34.5316 F       1  UNL1       -0.1658
     28 C         -64.0478  -44.9849  -28.0079 C.3     1  UNL1        0.1761
     29 O         -63.3489  -44.7586  -26.8024 O.3     1  UNL1       -0.3335
     30 C         -63.8231  -40.7413  -18.6401 C.3     1  UNL1        0.1535
     31 C         -64.3679  -39.3599  -18.3919 C.2     1  UNL1        0.2443
     32 O         -65.1268  -39.1578  -17.4043 O.2     1  UNL1       -0.2730
     33 N         -64.0920  -38.3013  -19.3233 N.am    1  UNL1       -0.2825
     34 H         -63.7521  -38.5652  -20.2758 H       1  UNL1        0.1549
     35 C         -64.3595  -36.9123  -19.0647 C.ar    1  UNL1        0.0535
     36 C         -63.4100  -36.0832  -18.4430 C.ar    1  UNL1        0.0353
     37 C         -63.7051  -34.7334  -18.2351 C.ar    1  UNL1        0.1002
     38 N         -64.8969  -34.2241  -18.6446 N.ar    1  UNL1       -0.2422
     39 C         -65.8263  -34.9981  -19.2647 C.ar    1  UNL1        0.1002
     40 C         -65.5709  -36.3524  -19.4932 C.ar    1  UNL1        0.0353
     41 C         -64.9183  -41.8053  -18.4335 C.3     1  UNL1        0.0569
     42 C         -65.5526  -42.1995  -19.7378 C.ar    1  UNL1       -0.0017
     43 C         -65.5200  -43.4624  -20.3214 C.ar    1  UNL1        0.0681
     44 N         -66.0773  -43.4285  -21.5534 N.ar    1  UNL1       -0.3523
     45 C         -66.4488  -42.1531  -21.7592 C.ar    1  UNL1        0.0563
     46 C         -67.0243  -41.6170  -22.9106 C.ar    1  UNL1        0.0170
     47 C         -67.2875  -40.2353  -22.9328 C.ar    1  UNL1        0.0015
     48 C         -66.9685  -39.4282  -21.8187 C.ar    1  UNL1        0.0001
     49 C         -66.3886  -39.9963  -20.6698 C.ar    1  UNL1        0.0012
     50 C         -66.1435  -41.3708  -20.6746 C.ar    1  UNL1        0.0131
     51 H         -66.1698  -44.2274  -22.2192 H       1  UNL1        0.1660
@<TRIPOS>BOND
     1    28    29    1
     2    29    12    1
     3    12    13    1
     4    13    14    1
     5    14    18    1
     6    18    19   ar
     7    19    20   ar
     8    20    21   ar
     9    21    24    1
    10    24    25    1
    11    24    26    1
    12    24    27    1
    13    21    22   ar
    14    22    23   ar
    15    14    15    1
    16    15    16    1
    17    16    17    1
    18    17     5    1
    19     5     6   ar
    20     6     7   ar
    21     7     8   ar
    22     8     1    1
    23     1     2    2
    24     1     3   am
    25     3    30    1
    26    30    41    1
    27    41    42    1
    28    42    43   ar
    29    43    44   ar
    30    44    45   ar
    31    45    46   ar
    32    46    47   ar
    33    47    48   ar
    34    48    49   ar
    35    49    50   ar
    36    30    31    1
    37    31    32    2
    38    31    33   am
    39    33    35    1
    40    35    36   ar
    41    36    37   ar
    42    37    38   ar
    43    38    39   ar
    44    39    40   ar
    45     8     9   ar
    46     9    10    1
    47     9    11   ar
    48    17    12    1
    49    11     5   ar
    50    23    18   ar
    51    50    42   ar
    52    40    35   ar
    53    50    45   ar
    54     3     4    1
    55    44    51    1
    56    33    34    1
@<TRIPOS>MOLECULE
*****
 51 56 0 0 0
SMALL
GASTEIGER

@<TRIPOS>ATOM
      1 C         -62.3021  -44.8247  -27.4449 C.2     1  UNL1        0.2483
      2 O         -61.2248  -45.4548  -27.6282 O.2     1  UNL1       -0.2701
      3 N         -63.3530  -44.9024  -28.4230 N.am    1  UNL1       -0.2945
      4 H         -64.2684  -44.4431  -28.2191 H       1  UNL1        0.1501
      5 C         -62.8556  -42.2429  -24.0517 C.ar    1  UNL1        0.0518
      6 C         -63.0766  -41.7784  -25.3583 C.ar    1  UNL1        0.0149
      7 C         -62.8562  -42.6142  -26.4546 C.ar    1  UNL1        0.0080
      8 C         -62.4259  -43.9373  -26.2688 C.ar    1  UNL1        0.0808
      9 C         -62.1689  -44.3954  -24.9636 C.ar    1  UNL1        0.1457
     10 F         -61.6767  -45.6404  -24.7428 F       1  UNL1       -0.2040
     11 C         -62.3873  -43.5546  -23.8679 C.ar    1  UNL1        0.0443
     12 C         -62.0470  -41.0646  -21.9652 C.3     1  UNL1        0.2125
     13 C         -62.2295  -39.6197  -21.4633 C.3     1  UNL1        0.1432
     14 N         -63.5984  -39.3720  -20.9786 N.pl3   1  UNL1       -0.2875
     15 C         -64.6660  -40.3377  -21.2751 C.3     1  UNL1        0.1137
     16 C         -64.4947  -40.9192  -22.6815 C.3     1  UNL1        0.1144
     17 N         -63.1202  -41.3896  -22.9179 N.pl3   1  UNL1       -0.2829
     18 C         -63.8739  -38.2530  -20.1063 C.ar    1  UNL1        0.1318
     19 C         -64.9252  -38.2926  -19.1739 C.ar    1  UNL1        0.0343
     20 C         -65.1593  -37.1910  -18.3493 C.ar    1  UNL1        0.0083
     21 C         -64.3378  -36.0575  -18.4327 C.ar    1  UNL1        0.0906
     22 C         -63.3123  -36.0474  -19.3900 C.ar    1  UNL1        0.1041
     23 N         -63.1048  -37.1306  -20.1841 N.ar    1  UNL1       -0.2292
     24 C         -64.6113  -34.8427  -17.5829 C.3     1  UNL1        0.4200
     25 F         -64.7835  -35.2028  -16.2575 F       1  UNL1       -0.1658
     26 F         -63.5427  -33.9709  -17.6778 F       1  UNL1       -0.1658
     27 F         -65.7593  -34.1974  -18.0090 F       1  UNL1       -0.1658
     28 C         -61.0327  -41.7702  -19.9877 C.3     1  UNL1        0.1761
     29 O         -62.1116  -41.9714  -20.8755 O.3     1  UNL1       -0.3335
     30 C         -63.0878  -45.2526  -29.8215 C.3     1  UNL1        0.1535
     31 C         -63.8856  -46.4755  -30.1891 C.2     1  UNL1        0.2443
     32 O         -63.8731  -47.4799  -29.4256 O.2     1  UNL1       -0.2730
     33 N         -64.5861  -46.5256  -31.4424 N.am    1  UNL1       -0.2825
     34 H         -64.3155  -45.8371  -32.1810 H       1  UNL1        0.1549
     35 C         -65.5554  -47.5318  -31.7825 C.ar    1  UNL1        0.0535
     36 C         -66.1160  -47.6088  -33.0691 C.ar    1  UNL1        0.0353
     37 C         -67.0356  -48.6196  -33.3604 C.ar    1  UNL1        0.1002
     38 N         -67.3738  -49.5299  -32.4093 N.ar    1  UNL1       -0.2422
     39 C         -66.8338  -49.4907  -31.1627 C.ar    1  UNL1        0.1002
     40 C         -65.9096  -48.4973  -30.8301 C.ar    1  UNL1        0.0353
     41 C         -63.4430  -44.0712  -30.7448 C.3     1  UNL1        0.0569
     42 C         -62.3461  -43.8012  -31.7361 C.ar    1  UNL1       -0.0017
     43 C         -62.5068  -43.3199  -33.0319 C.ar    1  UNL1        0.0681
     44 N         -61.3235  -43.3219  -33.6871 N.ar    1  UNL1       -0.3523
     45 C         -60.4195  -43.8133  -32.8220 C.ar    1  UNL1        0.0563
     46 C         -59.0667  -44.0530  -33.0604 C.ar    1  UNL1        0.0170
     47 C         -58.3070  -44.6251  -32.0239 C.ar    1  UNL1        0.0015
     48 C         -58.9103  -44.9463  -30.7881 C.ar    1  UNL1        0.0001
     49 C         -60.2776  -44.6930  -30.5753 C.ar    1  UNL1        0.0012
     50 C         -61.0050  -44.1201  -31.6202 C.ar    1  UNL1        0.0131
     51 H         -61.1564  -43.0294  -34.6754 H       1  UNL1        0.1660
@<TRIPOS>BOND
     1    28    29    1
     2    29    12    1
     3    12    13    1
     4    13    14    1
     5    14    18    1
     6    18    19   ar
     7    19    20   ar
     8    20    21   ar
     9    21    24    1
    10    24    25    1
    11    24    26    1
    12    24    27    1
    13    21    22   ar
    14    22    23   ar
    15    14    15    1
    16    15    16    1
    17    16    17    1
    18    17     5    1
    19     5     6   ar
    20     6     7   ar
    21     7     8   ar
    22     8     1    1
    23     1     2    2
    24     1     3   am
    25     3    30    1
    26    30    41    1
    27    41    42    1
    28    42    43   ar
    29    43    44   ar
    30    44    45   ar
    31    45    46   ar
    32    46    47   ar
    33    47    48   ar
    34    48    49   ar
    35    49    50   ar
    36    30    31    1
    37    31    32    2
    38    31    33   am
    39    33    35    1
    40    35    36   ar
    41    36    37   ar
    42    37    38   ar
    43    38    39   ar
    44    39    40   ar
    45     8     9   ar
    46     9    10    1
    47     9    11   ar
    48    17    12    1
    49    11     5   ar
    50    23    18   ar
    51    50    42   ar
    52    40    35   ar
    53    50    45   ar
    54     3     4    1
    55    44    51    1
    56    33    34    1
@<TRIPOS>MOLECULE
*****
 51 56 0 0 0
SMALL
GASTEIGER

@<TRIPOS>ATOM
      1 C         -62.2787  -40.6062  -22.1300 C.2     1  UNL1        0.2483
      2 O         -61.1311  -40.1532  -21.8676 O.2     1  UNL1       -0.2701
      3 N         -63.3192  -40.5387  -21.1400 N.am    1  UNL1       -0.2945
      4 H         -64.2842  -40.8419  -21.3994 H       1  UNL1        0.1501
      5 C         -62.9534  -42.7590  -25.7900 C.ar    1  UNL1        0.0518
      6 C         -61.7608  -42.9181  -25.0660 C.ar    1  UNL1        0.0149
      7 C         -61.5364  -42.1848  -23.8995 C.ar    1  UNL1        0.0080
      8 C         -62.5053  -41.2884  -23.4219 C.ar    1  UNL1        0.0808
      9 C         -63.6859  -41.0994  -24.1635 C.ar    1  UNL1        0.1457
     10 F         -64.6137  -40.1860  -23.7817 F       1  UNL1       -0.2040
     11 C         -63.9061  -41.8329  -25.3334 C.ar    1  UNL1        0.0443
     12 C         -62.7329  -44.9388  -27.0533 C.3     1  UNL1        0.2125
     13 C         -63.7538  -45.7763  -27.8464 C.3     1  UNL1        0.1432
     14 N         -64.0962  -45.1532  -29.1366 N.pl3   1  UNL1       -0.2875
     15 C         -63.7126  -43.7592  -29.4011 C.3     1  UNL1        0.1137
     16 C         -63.8485  -42.9105  -28.1335 C.3     1  UNL1        0.1144
     17 N         -63.1999  -43.5456  -26.9750 N.pl3   1  UNL1       -0.2829
     18 C         -64.6928  -45.9392  -30.1927 C.ar    1  UNL1        0.1318
     19 C         -65.1527  -45.3424  -31.3795 C.ar    1  UNL1        0.0343
     20 C         -65.7232  -46.1359  -32.3760 C.ar    1  UNL1        0.0083
     21 C         -65.8185  -47.5248  -32.2065 C.ar    1  UNL1        0.0906
     22 C         -65.3678  -48.0807  -30.9998 C.ar    1  UNL1        0.1041
     23 N         -64.8183  -47.2879  -30.0425 N.ar    1  UNL1       -0.2292
     24 C         -66.4776  -48.3860  -33.2536 C.3     1  UNL1        0.4200
     25 F         -66.7066  -49.6603  -32.7642 F       1  UNL1       -0.1658
     26 F         -67.6851  -47.8185  -33.6154 F       1  UNL1       -0.1658
     27 F         -65.6741  -48.4910  -34.3757 F       1  UNL1       -0.1658
     28 C         -60.7795  -46.1594  -27.4159 C.3     1  UNL1        0.1761
     29 O         -61.4717  -44.9632  -27.7035 O.3     1  UNL1       -0.3335
     30 C         -63.0232  -40.4341  -19.7082 C.3     1  UNL1        0.1535
     31 C         -63.7771  -39.2675  -19.1272 C.2     1  UNL1        0.2443
     32 O         -64.4302  -39.4182  -18.0583 O.2     1  UNL1       -0.2730
     33 N         -63.8193  -38.0168  -19.8330 N.am    1  UNL1       -0.2825
     34 H         -63.5589  -38.0183  -20.8453 H       1  UNL1        0.1549
     35 C         -64.3030  -36.7880  -19.2640 C.ar    1  UNL1        0.0535
     36 C         -63.5112  -36.0174  -18.3953 C.ar    1  UNL1        0.0353
     37 C         -64.0146  -34.8173  -17.8867 C.ar    1  UNL1        0.1002
     38 N         -65.2559  -34.3924  -18.2419 N.ar    1  UNL1       -0.2422
     39 C         -66.0361  -35.1078  -19.0944 C.ar    1  UNL1        0.1002
     40 C         -65.5707  -36.3126  -19.6267 C.ar    1  UNL1        0.0353
     41 C         -63.4018  -41.7423  -18.9874 C.3     1  UNL1        0.0569
     42 C         -63.5626  -42.8771  -19.9596 C.ar    1  UNL1       -0.0017
     43 C         -64.7389  -43.5694  -20.2305 C.ar    1  UNL1        0.0681
     44 N         -64.4941  -44.6126  -21.0560 N.ar    1  UNL1       -0.3523
     45 C         -63.1719  -44.5941  -21.2977 C.ar    1  UNL1        0.0563
     46 C         -62.4398  -45.5065  -22.0565 C.ar    1  UNL1        0.0170
     47 C         -61.0467  -45.3282  -22.1364 C.ar    1  UNL1        0.0015
     48 C         -60.4226  -44.2574  -21.4596 C.ar    1  UNL1        0.0001
     49 C         -61.1864  -43.3515  -20.7013 C.ar    1  UNL1        0.0012
     50 C         -62.5670  -43.5507  -20.6443 C.ar    1  UNL1        0.0131
     51 H         -65.1896  -45.3078  -21.4070 H       1  UNL1        0.1660
@<TRIPOS>BOND
     1    28    29    1
     2    29    12    1
     3    12    13    1
     4    13    14    1
     5    14    18    1
     6    18    19   ar
     7    19    20   ar
     8    20    21   ar
     9    21    24    1
    10    24    25    1
    11    24    26    1
    12    24    27    1
    13    21    22   ar
    14    22    23   ar
    15    14    15    1
    16    15    16    1
    17    16    17    1
    18    17     5    1
    19     5     6   ar
    20     6     7   ar
    21     7     8   ar
    22     8     1    1
    23     1     2    2
    24     1     3   am
    25     3    30    1
    26    30    41    1
    27    41    42    1
    28    42    43   ar
    29    43    44   ar
    30    44    45   ar
    31    45    46   ar
    32    46    47   ar
    33    47    48   ar
    34    48    49   ar
    35    49    50   ar
    36    30    31    1
    37    31    32    2
    38    31    33   am
    39    33    35    1
    40    35    36   ar
    41    36    37   ar
    42    37    38   ar
    43    38    39   ar
    44    39    40   ar
    45     8     9   ar
    46     9    10    1
    47     9    11   ar
    48    17    12    1
    49    11     5   ar
    50    23    18   ar
    51    50    42   ar
    52    40    35   ar
    53    50    45   ar
    54     3     4    1
    55    44    51    1
    56    33    34    1
@<TRIPOS>MOLECULE
*****
 51 56 0 0 0
SMALL
GASTEIGER

@<TRIPOS>ATOM
      1 C         -61.8385  -41.0652  -21.2780 C.2     1  UNL1        0.2483
      2 O         -60.7485  -41.2814  -20.6811 O.2     1  UNL1       -0.2701
      3 N         -62.8794  -40.3213  -20.6220 N.am    1  UNL1       -0.2945
      4 H         -63.7426  -40.0797  -21.1577 H       1  UNL1        0.1501
      5 C         -62.5328  -42.9825  -25.0632 C.ar    1  UNL1        0.0518
      6 C         -61.4302  -43.3312  -24.2666 C.ar    1  UNL1        0.0149
      7 C         -61.1931  -42.6747  -23.0576 C.ar    1  UNL1        0.0080
      8 C         -62.0614  -41.6667  -22.6101 C.ar    1  UNL1        0.0808
      9 C         -63.1468  -41.2896  -23.4220 C.ar    1  UNL1        0.1457
     10 F         -63.9651  -40.2673  -23.0665 F       1  UNL1       -0.2040
     11 C         -63.3794  -41.9467  -24.6342 C.ar    1  UNL1        0.0443
     12 C         -62.3563  -45.0815  -26.4628 C.3     1  UNL1        0.2125
     13 C         -63.3950  -45.8487  -27.3025 C.3     1  UNL1        0.1432
     14 N         -63.7305  -45.1392  -28.5491 N.pl3   1  UNL1       -0.2875
     15 C         -63.3227  -43.7383  -28.7268 C.3     1  UNL1        0.1137
     16 C         -63.4387  -42.9693  -27.4074 C.3     1  UNL1        0.1144
     17 N         -62.7976  -43.6880  -26.2944 N.pl3   1  UNL1       -0.2829
     18 C         -64.3450  -45.8459  -29.6500 C.ar    1  UNL1        0.1318
     19 C         -64.9024  -45.1582  -30.7420 C.ar    1  UNL1        0.0343
     20 C         -65.4870  -45.8771  -31.7859 C.ar    1  UNL1        0.0083
     21 C         -65.5002  -47.2792  -31.7590 C.ar    1  UNL1        0.0906
     22 C         -64.9530  -47.9289  -30.6424 C.ar    1  UNL1        0.1041
     23 N         -64.3915  -47.2079  -29.6365 N.ar    1  UNL1       -0.2292
     24 C         -66.1727  -48.0652  -32.8557 C.3     1  UNL1        0.4200
     25 F         -65.3458  -48.1668  -33.9610 F       1  UNL1       -0.1658
     26 F         -66.4641  -49.3347  -32.3927 F       1  UNL1       -0.1658
     27 F         -67.3473  -47.4476  -33.2489 F       1  UNL1       -0.1658
     28 C         -60.6746  -46.4073  -27.3855 C.3     1  UNL1        0.1761
     29 O         -61.0980  -45.0873  -27.1191 O.3     1  UNL1       -0.3335
     30 C         -62.9592  -40.2198  -19.1618 C.3     1  UNL1        0.1535
     31 C         -63.7947  -39.0237  -18.7902 C.2     1  UNL1        0.2443
     32 O         -64.6058  -39.1055  -17.8272 O.2     1  UNL1       -0.2730
     33 N         -63.7276  -37.8270  -19.5825 N.am    1  UNL1       -0.2825
     34 H         -63.3131  -37.8975  -20.5395 H       1  UNL1        0.1549
     35 C         -64.2942  -36.5665  -19.1853 C.ar    1  UNL1        0.0535
     36 C         -65.5612  -36.1552  -19.6336 C.ar    1  UNL1        0.0353
     37 C         -66.0817  -34.9329  -19.2007 C.ar    1  UNL1        0.1002
     38 N         -65.3725  -34.1549  -18.3409 N.ar    1  UNL1       -0.2422
     39 C         -64.1533  -34.5359  -17.8767 C.ar    1  UNL1        0.1002
     40 C         -63.5968  -35.7510  -18.2834 C.ar    1  UNL1        0.0353
     41 C         -63.5580  -41.5096  -18.5684 C.3     1  UNL1        0.0569
     42 C         -64.4812  -42.1845  -19.5437 C.ar    1  UNL1       -0.0017
     43 C         -64.4291  -43.5173  -19.9404 C.ar    1  UNL1        0.0681
     44 N         -65.3241  -43.7523  -20.9269 N.ar    1  UNL1       -0.3523
     45 C         -65.9312  -42.5771  -21.1668 C.ar    1  UNL1        0.0563
     46 C         -66.8966  -42.3084  -22.1363 C.ar    1  UNL1        0.0170
     47 C         -67.3636  -40.9864  -22.2516 C.ar    1  UNL1        0.0015
     48 C         -66.8573  -39.9728  -21.4085 C.ar    1  UNL1        0.0001
     49 C         -65.8835  -40.2729  -20.4387 C.ar    1  UNL1        0.0012
     50 C         -65.4427  -41.5942  -20.3441 C.ar    1  UNL1        0.0131
     51 H         -65.4855  -44.6578  -21.4210 H       1  UNL1        0.1660
@<TRIPOS>BOND
     1    28    29    1
     2    29    12    1
     3    12    13    1
     4    13    14    1
     5    14    18    1
     6    18    19   ar
     7    19    20   ar
     8    20    21   ar
     9    21    24    1
    10    24    25    1
    11    24    26    1
    12    24    27    1
    13    21    22   ar
    14    22    23   ar
    15    14    15    1
    16    15    16    1
    17    16    17    1
    18    17     5    1
    19     5     6   ar
    20     6     7   ar
    21     7     8   ar
    22     8     1    1
    23     1     2    2
    24     1     3   am
    25     3    30    1
    26    30    41    1
    27    41    42    1
    28    42    43   ar
    29    43    44   ar
    30    44    45   ar
    31    45    46   ar
    32    46    47   ar
    33    47    48   ar
    34    48    49   ar
    35    49    50   ar
    36    30    31    1
    37    31    32    2
    38    31    33   am
    39    33    35    1
    40    35    36   ar
    41    36    37   ar
    42    37    38   ar
    43    38    39   ar
    44    39    40   ar
    45     8     9   ar
    46     9    10    1
    47     9    11   ar
    48    17    12    1
    49    11     5   ar
    50    23    18   ar
    51    50    42   ar
    52    40    35   ar
    53    50    45   ar
    54     3     4    1
    55    44    51    1
    56    33    34    1
@<TRIPOS>MOLECULE
*****
 51 56 0 0 0
SMALL
GASTEIGER

@<TRIPOS>ATOM
      1 C         -60.9822  -42.2385  -22.1747 C.2     1  UNL1        0.2483
      2 O         -60.1705  -42.7899  -21.3822 O.2     1  UNL1       -0.2701
      3 N         -61.6464  -41.0230  -21.7891 N.am    1  UNL1       -0.2945
      4 H         -62.2515  -40.5345  -22.4860 H       1  UNL1        0.1501
      5 C         -62.1145  -44.1153  -25.8735 C.ar    1  UNL1        0.0518
      6 C         -62.6235  -44.5692  -24.6459 C.ar    1  UNL1        0.0149
      7 C         -62.2188  -43.9771  -23.4482 C.ar    1  UNL1        0.0080
      8 C         -61.3091  -42.9081  -23.4516 C.ar    1  UNL1        0.0808
      9 C         -60.7694  -42.4740  -24.6763 C.ar    1  UNL1        0.1457
     10 F         -59.8283  -41.4976  -24.7197 F       1  UNL1       -0.2040
     11 C         -61.1742  -43.0715  -25.8739 C.ar    1  UNL1        0.0443
     12 C         -62.0363  -46.0055  -27.5519 C.3     1  UNL1        0.2125
     13 C         -63.1502  -46.7919  -28.2685 C.3     1  UNL1        0.1432
     14 N         -63.8044  -45.9911  -29.3178 N.pl3   1  UNL1       -0.2875
     15 C         -63.5773  -44.5403  -29.3801 C.3     1  UNL1        0.1137
     16 C         -63.4873  -43.9454  -27.9716 C.3     1  UNL1        0.1144
     17 N         -62.5627  -44.7034  -27.1132 N.pl3   1  UNL1       -0.2829
     18 C         -64.5656  -46.6372  -30.3629 C.ar    1  UNL1        0.1318
     19 C         -64.9867  -45.9331  -31.5044 C.ar    1  UNL1        0.0343
     20 C         -65.7203  -46.5929  -32.4917 C.ar    1  UNL1        0.0083
     21 C         -66.0186  -47.9568  -32.3589 C.ar    1  UNL1        0.0906
     22 C         -65.5994  -48.6198  -31.1957 C.ar    1  UNL1        0.1041
     23 N         -64.8885  -47.9561  -30.2465 N.ar    1  UNL1       -0.2292
     24 C         -66.8526  -48.6681  -33.3938 C.3     1  UNL1        0.4200
     25 F         -68.0220  -47.9705  -33.6421 F       1  UNL1       -0.1658
     26 F         -66.1307  -48.7702  -34.5683 F       1  UNL1       -0.1658
     27 F         -67.1900  -49.9383  -32.9597 F       1  UNL1       -0.1658
     28 C         -59.8370  -46.5773  -28.0744 C.3     1  UNL1        0.1761
     29 O         -60.9483  -45.7853  -28.4359 O.3     1  UNL1       -0.3335
     30 C         -61.8243  -40.6477  -20.3833 C.3     1  UNL1        0.1535
     31 C         -62.3616  -39.2433  -20.3064 C.2     1  UNL1        0.2443
     32 O         -61.9918  -38.3876  -21.1567 O.2     1  UNL1       -0.2730
     33 N         -63.2226  -38.8625  -19.2211 N.am    1  UNL1       -0.2825
     34 H         -63.2429  -39.4764  -18.3754 H       1  UNL1        0.1549
     35 C         -63.9707  -37.6352  -19.1803 C.ar    1  UNL1        0.0535
     36 C         -63.3890  -36.4328  -18.7429 C.ar    1  UNL1        0.0353
     37 C         -64.1482  -35.2598  -18.7446 C.ar    1  UNL1        0.1002
     38 N         -65.4357  -35.2803  -19.1799 N.ar    1  UNL1       -0.2422
     39 C         -66.0181  -36.4246  -19.6256 C.ar    1  UNL1        0.1002
     40 C         -65.2942  -37.6192  -19.6418 C.ar    1  UNL1        0.0353
     41 C         -62.7769  -41.6357  -19.6828 C.3     1  UNL1        0.0569
     42 C         -64.2146  -41.3194  -19.9859 C.ar    1  UNL1       -0.0017
     43 C         -65.2690  -41.3275  -19.0779 C.ar    1  UNL1        0.0681
     44 N         -66.4443  -41.1257  -19.7163 N.ar    1  UNL1       -0.3523
     45 C         -66.1434  -41.0041  -21.0209 C.ar    1  UNL1        0.0563
     46 C         -67.0342  -40.8340  -22.0801 C.ar    1  UNL1        0.0170
     47 C         -66.5057  -40.7823  -23.3827 C.ar    1  UNL1        0.0015
     48 C         -65.1151  -40.9058  -23.5960 C.ar    1  UNL1        0.0001
     49 C         -64.2396  -41.0764  -22.5082 C.ar    1  UNL1        0.0012
     50 C         -64.7922  -41.1189  -21.2268 C.ar    1  UNL1        0.0131
     51 H         -67.3940  -41.1011  -19.2833 H       1  UNL1        0.1660
@<TRIPOS>BOND
     1    28    29    1
     2    29    12    1
     3    12    13    1
     4    13    14    1
     5    14    18    1
     6    18    19   ar
     7    19    20   ar
     8    20    21   ar
     9    21    24    1
    10    24    25    1
    11    24    26    1
    12    24    27    1
    13    21    22   ar
    14    22    23   ar
    15    14    15    1
    16    15    16    1
    17    16    17    1
    18    17     5    1
    19     5     6   ar
    20     6     7   ar
    21     7     8   ar
    22     8     1    1
    23     1     2    2
    24     1     3   am
    25     3    30    1
    26    30    41    1
    27    41    42    1
    28    42    43   ar
    29    43    44   ar
    30    44    45   ar
    31    45    46   ar
    32    46    47   ar
    33    47    48   ar
    34    48    49   ar
    35    49    50   ar
    36    30    31    1
    37    31    32    2
    38    31    33   am
    39    33    35    1
    40    35    36   ar
    41    36    37   ar
    42    37    38   ar
    43    38    39   ar
    44    39    40   ar
    45     8     9   ar
    46     9    10    1
    47     9    11   ar
    48    17    12    1
    49    11     5   ar
    50    23    18   ar
    51    50    42   ar
    52    40    35   ar
    53    50    45   ar
    54     3     4    1
    55    44    51    1
    56    33    34    1
@<TRIPOS>MOLECULE
*****
 51 56 0 0 0
SMALL
GASTEIGER

@<TRIPOS>ATOM
      1 C         -60.1571  -47.8438  -22.7653 C.2     1  UNL1        0.2483
      2 O         -58.9593  -48.1052  -23.0621 O.2     1  UNL1       -0.2701
      3 N         -61.1231  -48.9056  -22.6836 N.am    1  UNL1       -0.2945
      4 H         -62.0902  -48.6852  -22.3569 H       1  UNL1        0.1501
      5 C         -61.4419  -43.7911  -22.1248 C.ar    1  UNL1        0.0518
      6 C         -62.3585  -44.7931  -22.4825 C.ar    1  UNL1        0.0149
      7 C         -61.9239  -46.0972  -22.7258 C.ar    1  UNL1        0.0080
      8 C         -60.5666  -46.4327  -22.6014 C.ar    1  UNL1        0.0808
      9 C         -59.6403  -45.4242  -22.2783 C.ar    1  UNL1        0.1457
     10 F         -58.3101  -45.6864  -22.2250 F       1  UNL1       -0.2040
     11 C         -60.0784  -44.1181  -22.0387 C.ar    1  UNL1        0.0443
     12 C         -63.2296  -42.0088  -22.2784 C.3     1  UNL1        0.2125
     13 C         -63.8269  -41.0570  -21.2248 C.3     1  UNL1        0.1432
     14 N         -62.8920  -39.9779  -20.8620 N.pl3   1  UNL1       -0.2875
     15 C         -61.4805  -40.0667  -21.2622 C.3     1  UNL1        0.1137
     16 C         -60.9819  -41.5119  -21.1711 C.3     1  UNL1        0.1144
     17 N         -61.8979  -42.4522  -21.8368 N.pl3   1  UNL1       -0.2829
     18 C         -63.3766  -38.7733  -20.2270 C.ar    1  UNL1        0.1318
     19 C         -64.4603  -38.8022  -19.3320 C.ar    1  UNL1        0.0343
     20 C         -64.8988  -37.6170  -18.7394 C.ar    1  UNL1        0.0083
     21 C         -64.2496  -36.4051  -19.0163 C.ar    1  UNL1        0.0906
     22 C         -63.1857  -36.4135  -19.9308 C.ar    1  UNL1        0.1041
     23 N         -62.7779  -37.5794  -20.4976 N.ar    1  UNL1       -0.2292
     24 C         -64.7450  -35.1115  -18.4216 C.3     1  UNL1        0.4200
     25 F         -65.3914  -35.3426  -17.2197 F       1  UNL1       -0.1658
     26 F         -63.6700  -34.2710  -18.2007 F       1  UNL1       -0.1658
     27 F         -65.6353  -34.4893  -19.2795 F       1  UNL1       -0.1658
     28 C         -64.3549  -40.8865  -23.9847 C.3     1  UNL1        0.1761
     29 O         -63.1000  -41.3393  -23.5230 O.3     1  UNL1       -0.3335
     30 C         -60.9380  -50.1795  -23.3848 C.3     1  UNL1        0.1535
     31 C         -61.9534  -51.1740  -22.8881 C.2     1  UNL1        0.2443
     32 O         -62.3112  -51.1475  -21.6785 O.2     1  UNL1       -0.2730
     33 N         -62.4450  -52.1982  -23.7677 N.am    1  UNL1       -0.2825
     34 H         -61.9004  -52.3979  -24.6373 H       1  UNL1        0.1549
     35 C         -63.5737  -53.0386  -23.4722 C.ar    1  UNL1        0.0535
     36 C         -63.4970  -54.0641  -22.5141 C.ar    1  UNL1        0.0353
     37 C         -64.6275  -54.8390  -22.2426 C.ar    1  UNL1        0.1002
     38 N         -65.7963  -54.5924  -22.8910 N.ar    1  UNL1       -0.2422
     39 C         -65.9044  -53.5957  -23.8087 C.ar    1  UNL1        0.1002
     40 C         -64.7987  -52.7965  -24.1091 C.ar    1  UNL1        0.0353
     41 C         -61.0720  -49.9761  -24.9064 C.3     1  UNL1        0.0569
     42 C         -62.1277  -48.9573  -25.2324 C.ar    1  UNL1       -0.0017
     43 C         -63.5044  -49.1395  -25.1421 C.ar    1  UNL1        0.0681
     44 N         -64.1572  -48.0637  -25.6381 N.ar    1  UNL1       -0.3523
     45 C         -63.2059  -47.2097  -26.0538 C.ar    1  UNL1        0.0563
     46 C         -63.3926  -45.9802  -26.6845 C.ar    1  UNL1        0.0170
     47 C         -62.2492  -45.2663  -27.0866 C.ar    1  UNL1        0.0015
     48 C         -60.9593  -45.7933  -26.8568 C.ar    1  UNL1        0.0001
     49 C         -60.8007  -47.0365  -26.2178 C.ar    1  UNL1        0.0012
     50 C         -61.9532  -47.7199  -25.8257 C.ar    1  UNL1        0.0131
     51 H         -65.1914  -47.9393  -25.7102 H       1  UNL1        0.1660
@<TRIPOS>BOND
     1    28    29    1
     2    29    12    1
     3    12    13    1
     4    13    14    1
     5    14    18    1
     6    18    19   ar
     7    19    20   ar
     8    20    21   ar
     9    21    24    1
    10    24    25    1
    11    24    26    1
    12    24    27    1
    13    21    22   ar
    14    22    23   ar
    15    14    15    1
    16    15    16    1
    17    16    17    1
    18    17     5    1
    19     5     6   ar
    20     6     7   ar
    21     7     8   ar
    22     8     1    1
    23     1     2    2
    24     1     3   am
    25     3    30    1
    26    30    41    1
    27    41    42    1
    28    42    43   ar
    29    43    44   ar
    30    44    45   ar
    31    45    46   ar
    32    46    47   ar
    33    47    48   ar
    34    48    49   ar
    35    49    50   ar
    36    30    31    1
    37    31    32    2
    38    31    33   am
    39    33    35    1
    40    35    36   ar
    41    36    37   ar
    42    37    38   ar
    43    38    39   ar
    44    39    40   ar
    45     8     9   ar
    46     9    10    1
    47     9    11   ar
    48    17    12    1
    49    11     5   ar
    50    23    18   ar
    51    50    42   ar
    52    40    35   ar
    53    50    45   ar
    54     3     4    1
    55    44    51    1
    56    33    34    1
@<TRIPOS>MOLECULE
*****
 51 56 0 0 0
SMALL
GASTEIGER

@<TRIPOS>ATOM
      1 C         -61.7303  -46.5731  -25.3026 C.2     1  UNL1        0.2483
      2 O         -60.6116  -47.1398  -25.1667 O.2     1  UNL1       -0.2701
      3 N         -62.6290  -47.0010  -26.3401 N.am    1  UNL1       -0.2945
      4 H         -63.5831  -46.5792  -26.3883 H       1  UNL1        0.1501
      5 C         -62.5154  -43.2257  -22.7211 C.ar    1  UNL1        0.0518
      6 C         -62.6091  -44.5438  -22.2460 C.ar    1  UNL1        0.0149
      7 C         -62.3899  -45.6236  -23.1032 C.ar    1  UNL1        0.0080
      8 C         -62.0564  -45.4102  -24.4499 C.ar    1  UNL1        0.0808
      9 C         -61.9967  -44.0921  -24.9385 C.ar    1  UNL1        0.1457
     10 F         -61.7559  -43.8419  -26.2501 F       1  UNL1       -0.2040
     11 C         -62.2203  -43.0128  -24.0780 C.ar    1  UNL1        0.0443
     12 C         -61.6448  -41.1044  -21.6543 C.3     1  UNL1        0.2125
     13 C         -62.2837  -39.7176  -21.4512 C.3     1  UNL1        0.1432
     14 N         -63.3130  -39.7325  -20.3975 N.pl3   1  UNL1       -0.2875
     15 C         -63.8219  -41.0143  -19.8892 C.3     1  UNL1        0.1137
     16 C         -63.9366  -42.0387  -21.0219 C.3     1  UNL1        0.1144
     17 N         -62.7051  -42.1102  -21.8248 N.pl3   1  UNL1       -0.2829
     18 C         -63.7344  -38.5008  -19.7695 C.ar    1  UNL1        0.1318
     19 C         -64.8264  -38.4659  -18.8849 C.ar    1  UNL1        0.0343
     20 C         -65.2025  -37.2563  -18.2987 C.ar    1  UNL1        0.0083
     21 C         -64.4829  -36.0839  -18.5715 C.ar    1  UNL1        0.0906
     22 C         -63.4125  -36.1549  -19.4757 C.ar    1  UNL1        0.1041
     23 N         -63.0662  -37.3434  -20.0364 N.ar    1  UNL1       -0.2292
     24 C         -64.9097  -34.7628  -17.9840 C.3     1  UNL1        0.4200
     25 F         -65.1993  -34.8982  -16.6373 F       1  UNL1       -0.1658
     26 F         -63.8863  -33.8458  -18.1349 F       1  UNL1       -0.1658
     27 F         -66.0405  -34.2864  -18.6244 F       1  UNL1       -0.1658
     28 C         -59.9094  -42.4396  -20.8525 C.3     1  UNL1        0.1761
     29 O         -60.8620  -41.4514  -20.5226 O.3     1  UNL1       -0.3335
     30 C         -62.1551  -47.6988  -27.5389 C.3     1  UNL1        0.1535
     31 C         -63.3378  -48.2003  -28.3241 C.2     1  UNL1        0.2443
     32 O         -64.1624  -48.9826  -27.7765 O.2     1  UNL1       -0.2730
     33 N         -63.4762  -47.8561  -29.7121 N.am    1  UNL1       -0.2825
     34 H         -62.6322  -47.4956  -30.2124 H       1  UNL1        0.1549
     35 C         -64.6701  -48.0806  -30.4814 C.ar    1  UNL1        0.0535
     36 C         -65.5376  -49.1497  -30.1987 C.ar    1  UNL1        0.0353
     37 C         -66.6993  -49.3133  -30.9577 C.ar    1  UNL1        0.1002
     38 N         -66.9941  -48.4355  -31.9528 N.ar    1  UNL1       -0.2422
     39 C         -66.1831  -47.3823  -32.2361 C.ar    1  UNL1        0.1002
     40 C         -65.0124  -47.1814  -31.5007 C.ar    1  UNL1        0.0353
     41 C         -61.2891  -46.7572  -28.3980 C.3     1  UNL1        0.0569
     42 C         -62.0838  -45.5821  -28.8943 C.ar    1  UNL1       -0.0017
     43 C         -63.3397  -45.1873  -28.4435 C.ar    1  UNL1        0.0681
     44 N         -63.8157  -44.1717  -29.1994 N.ar    1  UNL1       -0.3523
     45 C         -62.8783  -43.9307  -30.1323 C.ar    1  UNL1        0.0563
     46 C         -62.9409  -43.0032  -31.1717 C.ar    1  UNL1        0.0170
     47 C         -61.8627  -42.9518  -32.0737 C.ar    1  UNL1        0.0015
     48 C         -60.7609  -43.8221  -31.9220 C.ar    1  UNL1        0.0001
     49 C         -60.7244  -44.7479  -30.8635 C.ar    1  UNL1        0.0012
     50 C         -61.8061  -44.7727  -29.9812 C.ar    1  UNL1        0.0131
     51 H         -64.7388  -43.6951  -29.0953 H       1  UNL1        0.1660
@<TRIPOS>BOND
     1    28    29    1
     2    29    12    1
     3    12    13    1
     4    13    14    1
     5    14    18    1
     6    18    19   ar
     7    19    20   ar
     8    20    21   ar
     9    21    24    1
    10    24    25    1
    11    24    26    1
    12    24    27    1
    13    21    22   ar
    14    22    23   ar
    15    14    15    1
    16    15    16    1
    17    16    17    1
    18    17     5    1
    19     5     6   ar
    20     6     7   ar
    21     7     8   ar
    22     8     1    1
    23     1     2    2
    24     1     3   am
    25     3    30    1
    26    30    41    1
    27    41    42    1
    28    42    43   ar
    29    43    44   ar
    30    44    45   ar
    31    45    46   ar
    32    46    47   ar
    33    47    48   ar
    34    48    49   ar
    35    49    50   ar
    36    30    31    1
    37    31    32    2
    38    31    33   am
    39    33    35    1
    40    35    36   ar
    41    36    37   ar
    42    37    38   ar
    43    38    39   ar
    44    39    40   ar
    45     8     9   ar
    46     9    10    1
    47     9    11   ar
    48    17    12    1
    49    11     5   ar
    50    23    18   ar
    51    50    42   ar
    52    40    35   ar
    53    50    45   ar
    54     3     4    1
    55    44    51    1
    56    33    34    1
@<TRIPOS>MOLECULE
*****
 51 56 0 0 0
SMALL
GASTEIGER

@<TRIPOS>ATOM
      1 C         -61.7045  -45.7768  -26.1167 C.2     1  UNL1        0.2483
      2 O         -60.5900  -46.3489  -26.2639 O.2     1  UNL1       -0.2701
      3 N         -62.7709  -46.0354  -27.0458 N.am    1  UNL1       -0.2945
      4 H         -63.7114  -45.6194  -26.8645 H       1  UNL1        0.1501
      5 C         -62.3170  -42.7853  -23.0900 C.ar    1  UNL1        0.0518
      6 C         -61.8596  -42.4360  -24.3709 C.ar    1  UNL1        0.0149
      7 C         -61.6273  -43.4200  -25.3334 C.ar    1  UNL1        0.0080
      8 C         -61.8623  -44.7730  -25.0428 C.ar    1  UNL1        0.0808
      9 C         -62.2861  -45.1305  -23.7497 C.ar    1  UNL1        0.1457
     10 F         -62.4495  -46.4316  -23.4013 F       1  UNL1       -0.2040
     11 C         -62.5145  -44.1427  -22.7867 C.ar    1  UNL1        0.0443
     12 C         -61.5159  -40.8834  -21.6281 C.3     1  UNL1        0.2125
     13 C         -62.0840  -39.4754  -21.3684 C.3     1  UNL1        0.1432
     14 N         -63.2901  -39.5136  -20.5234 N.pl3   1  UNL1       -0.2875
     15 C         -63.9721  -40.7924  -20.2782 C.3     1  UNL1        0.1137
     16 C         -63.9444  -41.6700  -21.5331 C.3     1  UNL1        0.1144
     17 N         -62.5928  -41.7636  -22.1083 N.pl3   1  UNL1       -0.2829
     18 C         -63.7350  -38.3261  -19.8300 C.ar    1  UNL1        0.1318
     19 C         -64.7969  -38.3697  -18.9098 C.ar    1  UNL1        0.0343
     20 C         -65.1971  -37.2008  -18.2605 C.ar    1  UNL1        0.0083
     21 C         -64.5308  -35.9914  -18.5061 C.ar    1  UNL1        0.0906
     22 C         -63.4899  -35.9838  -19.4467 C.ar    1  UNL1        0.1041
     23 N         -63.1193  -37.1339  -20.0687 N.ar    1  UNL1       -0.2292
     24 C         -64.9857  -34.7132  -17.8491 C.3     1  UNL1        0.4200
     25 F         -66.1603  -34.2598  -18.4240 F       1  UNL1       -0.1658
     26 F         -65.2028  -34.9452  -16.5037 F       1  UNL1       -0.1658
     27 F         -64.0263  -33.7251  -17.9875 F       1  UNL1       -0.1658
     28 C         -60.0272  -42.4240  -20.7074 C.3     1  UNL1        0.1761
     29 O         -60.9834  -41.4236  -20.4287 O.3     1  UNL1       -0.3335
     30 C         -62.5159  -46.5223  -28.4047 C.3     1  UNL1        0.1535
     31 C         -63.8281  -46.7682  -29.1007 C.2     1  UNL1        0.2443
     32 O         -64.8222  -46.0394  -28.8312 O.2     1  UNL1       -0.2730
     33 N         -63.9660  -47.8793  -30.0011 N.am    1  UNL1       -0.2825
     34 H         -63.2507  -48.6398  -29.9514 H       1  UNL1        0.1549
     35 C         -65.0844  -48.0636  -30.8859 C.ar    1  UNL1        0.0535
     36 C         -65.2563  -47.2666  -32.0308 C.ar    1  UNL1        0.0353
     37 C         -66.3452  -47.4992  -32.8748 C.ar    1  UNL1        0.1002
     38 N         -67.2232  -48.4989  -32.5970 N.ar    1  UNL1       -0.2422
     39 C         -67.0715  -49.2969  -31.5073 C.ar    1  UNL1        0.1002
     40 C         -65.9959  -49.0992  -30.6380 C.ar    1  UNL1        0.0353
     41 C         -61.6658  -45.5024  -29.1869 C.3     1  UNL1        0.0569
     42 C         -62.5306  -44.5152  -29.9194 C.ar    1  UNL1       -0.0017
     43 C         -62.7013  -44.4334  -31.2980 C.ar    1  UNL1        0.0681
     44 N         -63.4414  -43.3477  -31.6191 N.ar    1  UNL1       -0.3523
     45 C         -63.7278  -42.7352  -30.4572 C.ar    1  UNL1        0.0563
     46 C         -64.4291  -41.5428  -30.2823 C.ar    1  UNL1        0.0170
     47 C         -64.5706  -41.0484  -28.9729 C.ar    1  UNL1        0.0015
     48 C         -64.0100  -41.7459  -27.8804 C.ar    1  UNL1        0.0001
     49 C         -63.3075  -42.9472  -28.0865 C.ar    1  UNL1        0.0012
     50 C         -63.1875  -43.4160  -29.3961 C.ar    1  UNL1        0.0131
     51 H         -63.7077  -43.0351  -32.5791 H       1  UNL1        0.1660
@<TRIPOS>BOND
     1    28    29    1
     2    29    12    1
     3    12    13    1
     4    13    14    1
     5    14    18    1
     6    18    19   ar
     7    19    20   ar
     8    20    21   ar
     9    21    24    1
    10    24    25    1
    11    24    26    1
    12    24    27    1
    13    21    22   ar
    14    22    23   ar
    15    14    15    1
    16    15    16    1
    17    16    17    1
    18    17     5    1
    19     5     6   ar
    20     6     7   ar
    21     7     8   ar
    22     8     1    1
    23     1     2    2
    24     1     3   am
    25     3    30    1
    26    30    41    1
    27    41    42    1
    28    42    43   ar
    29    43    44   ar
    30    44    45   ar
    31    45    46   ar
    32    46    47   ar
    33    47    48   ar
    34    48    49   ar
    35    49    50   ar
    36    30    31    1
    37    31    32    2
    38    31    33   am
    39    33    35    1
    40    35    36   ar
    41    36    37   ar
    42    37    38   ar
    43    38    39   ar
    44    39    40   ar
    45     8     9   ar
    46     9    10    1
    47     9    11   ar
    48    17    12    1
    49    11     5   ar
    50    23    18   ar
    51    50    42   ar
    52    40    35   ar
    53    50    45   ar
    54     3     4    1
    55    44    51    1
    56    33    34    1
@<TRIPOS>MOLECULE
*****
 51 56 0 0 0
SMALL
GASTEIGER

@<TRIPOS>ATOM
      1 C         -64.2530  -54.2369  -22.3315 C.2     1  UNL1        0.2483
      2 O         -63.3516  -55.0127  -21.9111 O.2     1  UNL1       -0.2701
      3 N         -65.6358  -54.5473  -22.0891 N.am    1  UNL1       -0.2945
      4 H         -66.3660  -53.8557  -22.3702 H       1  UNL1        0.1501
      5 C         -63.3005  -50.7442  -24.6508 C.ar    1  UNL1        0.0518
      6 C         -64.4159  -51.5382  -24.9628 C.ar    1  UNL1        0.0149
      7 C         -64.6932  -52.6916  -24.2268 C.ar    1  UNL1        0.0080
      8 C         -63.8716  -53.0683  -23.1528 C.ar    1  UNL1        0.0808
      9 C         -62.7330  -52.2955  -22.8597 C.ar    1  UNL1        0.1457
     10 F         -61.8682  -52.6658  -21.8820 F       1  UNL1       -0.2040
     11 C         -62.4561  -51.1427  -23.6011 C.ar    1  UNL1        0.0443
     12 C         -61.7848  -48.7888  -25.1751 C.3     1  UNL1        0.2125
     13 C         -61.3204  -48.1758  -26.5097 C.3     1  UNL1        0.1432
     14 N         -62.3960  -47.4199  -27.1744 N.pl3   1  UNL1       -0.2875
     15 C         -63.7837  -47.5598  -26.7106 C.3     1  UNL1        0.1137
     16 C         -64.0717  -49.0048  -26.2926 C.3     1  UNL1        0.1144
     17 N         -63.0368  -49.5318  -25.3885 N.pl3   1  UNL1       -0.2829
     18 C         -62.0822  -46.4456  -28.1949 C.ar    1  UNL1        0.1318
     19 C         -60.7812  -45.9347  -28.3445 C.ar    1  UNL1        0.0343
     20 C         -60.5184  -44.9948  -29.3423 C.ar    1  UNL1        0.0083
     21 C         -61.5400  -44.5766  -30.2072 C.ar    1  UNL1        0.0906
     22 C         -62.8298  -45.0933  -30.0130 C.ar    1  UNL1        0.1041
     23 N         -63.0627  -46.0055  -29.0329 N.ar    1  UNL1       -0.2292
     24 C         -61.2804  -43.5253  -31.2560 C.3     1  UNL1        0.4200
     25 F         -60.0756  -43.7608  -31.8955 F       1  UNL1       -0.1658
     26 F         -62.2992  -43.5528  -32.1899 F       1  UNL1       -0.1658
     27 F         -61.2276  -42.2666  -30.6828 F       1  UNL1       -0.1658
     28 C         -60.8118  -47.1190  -23.8705 C.3     1  UNL1        0.1761
     29 O         -62.0176  -47.7634  -24.2221 O.3     1  UNL1       -0.3335
     30 C         -66.0900  -55.9161  -21.8268 C.3     1  UNL1        0.1535
     31 C         -67.3283  -55.8752  -20.9713 C.2     1  UNL1        0.2443
     32 O         -67.7236  -56.9268  -20.3971 O.2     1  UNL1       -0.2730
     33 N         -68.0988  -54.6659  -20.8810 N.am    1  UNL1       -0.2825
     34 H         -67.9417  -53.9313  -21.6079 H       1  UNL1        0.1549
     35 C         -69.1479  -54.4503  -19.9216 C.ar    1  UNL1        0.0535
     36 C         -70.3189  -53.7488  -20.2565 C.ar    1  UNL1        0.0353
     37 C         -71.3223  -53.5859  -19.2979 C.ar    1  UNL1        0.1002
     38 N         -71.1715  -54.1150  -18.0550 N.ar    1  UNL1       -0.2422
     39 C         -70.0582  -54.8136  -17.7091 C.ar    1  UNL1        0.1002
     40 C         -69.0315  -55.0008  -18.6378 C.ar    1  UNL1        0.0353
     41 C         -66.3667  -56.6505  -23.1529 C.3     1  UNL1        0.0569
     42 C         -67.4362  -55.9582  -23.9502 C.ar    1  UNL1       -0.0017
     43 C         -67.2490  -54.9035  -24.8385 C.ar    1  UNL1        0.0681
     44 N         -68.4406  -54.4387  -25.2783 N.ar    1  UNL1       -0.3523
     45 C         -69.3792  -55.1806  -24.6653 C.ar    1  UNL1        0.0563
     46 C         -70.7630  -55.0406  -24.7637 C.ar    1  UNL1        0.0170
     47 C         -71.5679  -55.8958  -23.9893 C.ar    1  UNL1        0.0015
     48 C         -70.9786  -56.8576  -23.1395 C.ar    1  UNL1        0.0001
     49 C         -69.5792  -56.9769  -23.0605 C.ar    1  UNL1        0.0012
     50 C         -68.8062  -56.1180  -23.8441 C.ar    1  UNL1        0.0131
     51 H         -68.5963  -53.6436  -25.9369 H       1  UNL1        0.1660
@<TRIPOS>BOND
     1    28    29    1
     2    29    12    1
     3    12    13    1
     4    13    14    1
     5    14    18    1
     6    18    19   ar
     7    19    20   ar
     8    20    21   ar
     9    21    24    1
    10    24    25    1
    11    24    26    1
    12    24    27    1
    13    21    22   ar
    14    22    23   ar
    15    14    15    1
    16    15    16    1
    17    16    17    1
    18    17     5    1
    19     5     6   ar
    20     6     7   ar
    21     7     8   ar
    22     8     1    1
    23     1     2    2
    24     1     3   am
    25     3    30    1
    26    30    41    1
    27    41    42    1
    28    42    43   ar
    29    43    44   ar
    30    44    45   ar
    31    45    46   ar
    32    46    47   ar
    33    47    48   ar
    34    48    49   ar
    35    49    50   ar
    36    30    31    1
    37    31    32    2
    38    31    33   am
    39    33    35    1
    40    35    36   ar
    41    36    37   ar
    42    37    38   ar
    43    38    39   ar
    44    39    40   ar
    45     8     9   ar
    46     9    10    1
    47     9    11   ar
    48    17    12    1
    49    11     5   ar
    50    23    18   ar
    51    50    42   ar
    52    40    35   ar
    53    50    45   ar
    54     3     4    1
    55    44    51    1
    56    33    34    1
