@<TRIPOS>MOLECULE
*****
 45 50 0 0 0
SMALL
GASTEIGER

@<TRIPOS>ATOM
      1 C          10.6071   81.1418   24.6794 C.ar    1  UNL1        0.0702
      2 C          10.3854   80.3430   25.8108 C.ar    1  UNL1        0.0191
      3 C           9.6859   79.1405   25.6962 C.ar    1  UNL1        0.0356
      4 C           9.2126   78.7238   24.4369 C.ar    1  UNL1        0.1323
      5 N           9.4628   79.5125   23.3529 N.ar    1  UNL1       -0.2279
      6 C          10.1416   80.6861   23.4410 C.ar    1  UNL1        0.1149
      7 N           8.4758   77.4853   24.2708 N.pl3   1  UNL1       -0.2861
      8 C           7.2717   77.2366   25.0862 C.3     1  UNL1        0.0930
      9 C           6.5270   75.9695   24.6618 C.3     1  UNL1        0.0253
     10 C           7.5146   74.8055   24.5397 C.3     1  UNL1        0.0479
     11 C           8.6113   75.0952   23.4849 C.3     1  UNL1        0.0344
     12 C           8.8191   76.5894   23.1484 C.3     1  UNL1        0.1270
     13 I           7.7115   77.1652   21.3974 I       1  UNL1       -0.0531
     14 C           6.7661   73.4947   24.2283 C.3     1  UNL1        0.2054
     15 O           5.5752   73.7478   23.4805 O.3     1  UNL1       -0.4755
     16 C           5.5007   73.8928   22.0854 C.ar    1  UNL1        0.1388
     17 C           6.5080   73.4328   21.2169 C.ar    1  UNL1        0.0369
     18 C           6.3766   73.6031   19.8376 C.ar    1  UNL1        0.0033
     19 C           5.2474   74.2320   19.3088 C.ar    1  UNL1        0.0066
     20 C           4.2324   74.7034   20.1596 C.ar    1  UNL1        0.0785
     21 C           4.3679   74.5163   21.5478 C.ar    1  UNL1        0.0433
     22 C           3.0224   75.3678   19.6162 C.2     1  UNL1        0.3381
     23 O           3.0717   75.9324   18.4909 O.2     1  UNL1       -0.2451
     24 O           1.8134   75.3753   20.3110 O.3     1  UNL1       -0.4771
     25 H           1.6731   74.8561   21.1678 H       1  UNL1        0.2954
     26 C          12.7754   82.4430   24.8478 C.2     1  UNL1        0.2839
     27 O          13.4217   81.4806   25.3424 O.2     1  UNL1       -0.2665
     28 N          11.3447   82.3740   24.7549 N.am    1  UNL1       -0.2766
     29 H          10.8068   83.2634   24.8574 H       1  UNL1        0.1553
     30 C          15.4787   82.6266   23.0816 C.3     1  UNL1        0.0345
     31 C          14.6736   83.7410   23.6789 C.ar    1  UNL1        0.0202
     32 C          13.5076   83.6585   24.4505 C.ar    1  UNL1        0.1946
     33 O          13.1207   84.8685   24.8149 O.2     1  UNL1       -0.4492
     34 C          13.9620   85.7323   24.3013 C.ar    1  UNL1        0.1452
     35 C          13.9311   87.1172   24.4224 C.ar    1  UNL1        0.0375
     36 C          14.9385   87.8584   23.7801 C.ar    1  UNL1        0.0031
     37 C          15.9562   87.2081   23.0307 C.ar    1  UNL1        0.0002
     38 C          15.9516   85.7958   22.9347 C.ar    1  UNL1        0.0028
     39 C          14.9370   85.0930   23.5851 C.ar    1  UNL1        0.0337
     40 C          17.0145   88.0013   22.3554 C.ar    1  UNL1        0.0000
     41 C          16.8447   88.4379   21.0278 C.ar    1  UNL1        0.0000
     42 C          17.8435   89.1836   20.3941 C.ar    1  UNL1        0.0000
     43 C          19.0198   89.5021   21.0762 C.ar    1  UNL1        0.0000
     44 C          19.2003   89.0751   22.3936 C.ar    1  UNL1        0.0000
     45 C          18.2053   88.3284   23.0319 C.ar    1  UNL1        0.0000
@<TRIPOS>BOND
     1    30    31    1
     2    31    32   ar
     3    32    26    1
     4    26    27    2
     5    26    28   am
     6    28     1    1
     7     1     2   ar
     8     2     3   ar
     9     3     4   ar
    10     4     7    1
    11     7     8    1
    12     8     9    1
    13     9    10    1
    14    10    14    1
    15    14    15    1
    16    15    16    1
    17    16    17   ar
    18    17    18   ar
    19    18    19   ar
    20    19    20   ar
    21    20    22    1
    22    22    23    2
    23    22    24    1
    24    20    21   ar
    25    10    11    1
    26    11    12    1
    27    12    13    1
    28     4     5   ar
    29     5     6   ar
    30    32    33   ar
    31    33    34   ar
    32    34    35   ar
    33    35    36   ar
    34    36    37   ar
    35    37    40    1
    36    40    41   ar
    37    41    42   ar
    38    42    43   ar
    39    43    44   ar
    40    44    45   ar
    41    37    38   ar
    42    38    39   ar
    43    39    31   ar
    44     6     1   ar
    45    39    34   ar
    46    12     7    1
    47    45    40   ar
    48    21    16   ar
    49    28    29    1
    50    24    25    1
@<TRIPOS>MOLECULE
*****
 45 50 0 0 0
SMALL
GASTEIGER

@<TRIPOS>ATOM
      1 C          10.2052   79.5615   24.3552 C.ar    1  UNL1        0.0702
      2 C           9.7544   79.6341   23.0290 C.ar    1  UNL1        0.0191
      3 C           9.0252   78.5802   22.4757 C.ar    1  UNL1        0.0356
      4 C           8.7317   77.4463   23.2575 C.ar    1  UNL1        0.1323
      5 N           9.1660   77.4153   24.5499 N.ar    1  UNL1       -0.2279
      6 C           9.8766   78.4294   25.1091 C.ar    1  UNL1        0.1149
      7 N           7.9825   76.3247   22.7233 N.pl3   1  UNL1       -0.2861
      8 C           8.6127   75.4303   21.7337 C.3     1  UNL1        0.0930
      9 C           7.7478   74.2106   21.4105 C.3     1  UNL1        0.0253
     10 C           6.3159   74.6586   21.1036 C.3     1  UNL1        0.0479
     11 C           5.6777   75.3958   22.3070 C.3     1  UNL1        0.0344
     12 C           6.6823   75.9747   23.3292 C.3     1  UNL1        0.1270
     13 I           6.9908   74.6311   24.9797 I       1  UNL1       -0.0531
     14 C           5.4589   73.4566   20.6607 C.3     1  UNL1        0.2054
     15 O           4.0660   73.7701   20.7158 O.3     1  UNL1       -0.4755
     16 C           3.4062   74.7085   19.9053 C.ar    1  UNL1        0.1388
     17 C           2.0039   74.7862   19.8165 C.ar    1  UNL1        0.0369
     18 C           1.4048   75.7428   18.9951 C.ar    1  UNL1        0.0033
     19 C           2.1906   76.6283   18.2544 C.ar    1  UNL1        0.0066
     20 C           3.5932   76.5639   18.3250 C.ar    1  UNL1        0.0785
     21 C           4.1880   75.6042   19.1650 C.ar    1  UNL1        0.0433
     22 C           4.4445   77.5003   17.5509 C.2     1  UNL1        0.3381
     23 O           4.6254   78.6739   17.9720 O.2     1  UNL1       -0.2451
     24 O           5.0712   77.1155   16.3662 O.3     1  UNL1       -0.4771
     25 H           5.0547   76.1635   16.0244 H       1  UNL1        0.2954
     26 C          12.3189   80.9177   24.6959 C.2     1  UNL1        0.2839
     27 O          13.0836   79.9952   24.3051 O.2     1  UNL1       -0.2665
     28 N          10.9372   80.6379   24.9664 N.am    1  UNL1       -0.2766
     29 H          10.4714   81.1784   25.7291 H       1  UNL1        0.1553
     30 C          13.0697   82.2376   27.5516 C.3     1  UNL1        0.0345
     31 C          13.2231   82.8236   26.1805 C.ar    1  UNL1        0.0202
     32 C          12.8895   82.2531   24.9456 C.ar    1  UNL1        0.1946
     33 O          13.1492   83.1054   23.9696 O.2     1  UNL1       -0.4492
     34 C          13.6544   84.1897   24.5052 C.ar    1  UNL1        0.1452
     35 C          14.0788   85.3389   23.8473 C.ar    1  UNL1        0.0375
     36 C          14.5975   86.3901   24.6236 C.ar    1  UNL1        0.0031
     37 C          14.6835   86.2780   26.0379 C.ar    1  UNL1        0.0002
     38 C          14.2381   85.0910   26.6678 C.ar    1  UNL1        0.0028
     39 C          13.7292   84.0691   25.8661 C.ar    1  UNL1        0.0337
     40 C          15.2342   87.3943   26.8476 C.ar    1  UNL1        0.0000
     41 C          16.3337   88.1411   26.3832 C.ar    1  UNL1        0.0000
     42 C          16.8508   89.1910   27.1483 C.ar    1  UNL1        0.0000
     43 C          16.2781   89.5076   28.3821 C.ar    1  UNL1        0.0000
     44 C          15.1870   88.7746   28.8538 C.ar    1  UNL1        0.0000
     45 C          14.6662   87.7231   28.0933 C.ar    1  UNL1        0.0000
@<TRIPOS>BOND
     1    30    31    1
     2    31    32   ar
     3    32    26    1
     4    26    27    2
     5    26    28   am
     6    28     1    1
     7     1     2   ar
     8     2     3   ar
     9     3     4   ar
    10     4     7    1
    11     7     8    1
    12     8     9    1
    13     9    10    1
    14    10    14    1
    15    14    15    1
    16    15    16    1
    17    16    17   ar
    18    17    18   ar
    19    18    19   ar
    20    19    20   ar
    21    20    22    1
    22    22    23    2
    23    22    24    1
    24    20    21   ar
    25    10    11    1
    26    11    12    1
    27    12    13    1
    28     4     5   ar
    29     5     6   ar
    30    32    33   ar
    31    33    34   ar
    32    34    35   ar
    33    35    36   ar
    34    36    37   ar
    35    37    40    1
    36    40    41   ar
    37    41    42   ar
    38    42    43   ar
    39    43    44   ar
    40    44    45   ar
    41    37    38   ar
    42    38    39   ar
    43    39    31   ar
    44     6     1   ar
    45    39    34   ar
    46    12     7    1
    47    45    40   ar
    48    21    16   ar
    49    28    29    1
    50    24    25    1
@<TRIPOS>MOLECULE
*****
 45 50 0 0 0
SMALL
GASTEIGER

@<TRIPOS>ATOM
      1 C          11.5644   80.7887   25.1082 C.ar    1  UNL1        0.0702
      2 C          12.9620   80.8334   24.9992 C.ar    1  UNL1        0.0191
      3 C          13.6104   82.0469   24.7637 C.ar    1  UNL1        0.0356
      4 C          12.8575   83.2313   24.6476 C.ar    1  UNL1        0.1323
      5 N          11.5021   83.1577   24.7793 N.ar    1  UNL1       -0.2279
      6 C          10.8502   81.9880   25.0091 C.ar    1  UNL1        0.1149
      7 N          13.4872   84.5139   24.3968 N.pl3   1  UNL1       -0.2861
      8 C          14.1282   85.2426   25.5080 C.3     1  UNL1        0.0930
      9 C          14.8869   86.4841   25.0353 C.3     1  UNL1        0.0253
     10 C          13.9946   87.3131   24.1069 C.3     1  UNL1        0.0479
     11 C          13.5657   86.5062   22.8563 C.3     1  UNL1        0.0344
     12 C          13.6591   84.9703   23.0032 C.3     1  UNL1        0.1270
     13 I          15.5122   84.2138   22.2168 I       1  UNL1       -0.0531
     14 C          14.6990   88.6268   23.7150 C.3     1  UNL1        0.2054
     15 O          13.8640   89.4276   22.8766 O.3     1  UNL1       -0.4755
     16 C          13.8587   89.4108   21.4721 C.ar    1  UNL1        0.1388
     17 C          15.0344   89.5075   20.7047 C.ar    1  UNL1        0.0369
     18 C          14.9662   89.4823   19.3106 C.ar    1  UNL1        0.0033
     19 C          13.7328   89.3630   18.6667 C.ar    1  UNL1        0.0066
     20 C          12.5462   89.2703   19.4149 C.ar    1  UNL1        0.0785
     21 C          12.6259   89.2843   20.8198 C.ar    1  UNL1        0.0433
     22 C          11.2274   89.1362   18.7490 C.2     1  UNL1        0.3381
     23 O          11.0907   89.5076   17.5529 O.2     1  UNL1       -0.2451
     24 O          10.1243   88.5920   19.4059 O.3     1  UNL1       -0.4771
     25 H          10.1867   88.1800   20.3277 H       1  UNL1        0.2954
     26 C          11.3814   78.5126   26.2076 C.2     1  UNL1        0.2839
     27 O          12.6262   78.3822   26.3561 O.2     1  UNL1       -0.2665
     28 N          10.8642   79.5614   25.3751 N.am    1  UNL1       -0.2766
     29 H           9.9812   79.3748   24.8494 H       1  UNL1        0.1553
     30 C           8.1801   78.2398   25.8353 C.3     1  UNL1        0.0345
     31 C           9.1006   77.3986   26.6671 C.ar    1  UNL1        0.0202
     32 C          10.4857   77.5239   26.8333 C.ar    1  UNL1        0.1946
     33 O          10.9242   76.6056   27.6764 O.2     1  UNL1       -0.4492
     34 C           9.8997   75.8777   28.0481 C.ar    1  UNL1        0.1452
     35 C           9.9041   74.7945   28.9201 C.ar    1  UNL1        0.0375
     36 C           8.6815   74.1495   29.1773 C.ar    1  UNL1        0.0031
     37 C           7.4795   74.5941   28.5627 C.ar    1  UNL1        0.0002
     38 C           7.5194   75.7023   27.6827 C.ar    1  UNL1        0.0028
     39 C           8.7498   76.3178   27.4513 C.ar    1  UNL1        0.0337
     40 C           6.1942   73.9044   28.8407 C.ar    1  UNL1        0.0000
     41 C           5.7773   72.8197   28.0459 C.ar    1  UNL1        0.0000
     42 C           4.5659   72.1728   28.3093 C.ar    1  UNL1        0.0000
     43 C           3.7590   72.5991   29.3665 C.ar    1  UNL1        0.0000
     44 C           4.1615   73.6737   30.1626 C.ar    1  UNL1        0.0000
     45 C           5.3714   74.3249   29.9032 C.ar    1  UNL1        0.0000
@<TRIPOS>BOND
     1    30    31    1
     2    31    32   ar
     3    32    26    1
     4    26    27    2
     5    26    28   am
     6    28     1    1
     7     1     2   ar
     8     2     3   ar
     9     3     4   ar
    10     4     7    1
    11     7     8    1
    12     8     9    1
    13     9    10    1
    14    10    14    1
    15    14    15    1
    16    15    16    1
    17    16    17   ar
    18    17    18   ar
    19    18    19   ar
    20    19    20   ar
    21    20    22    1
    22    22    23    2
    23    22    24    1
    24    20    21   ar
    25    10    11    1
    26    11    12    1
    27    12    13    1
    28     4     5   ar
    29     5     6   ar
    30    32    33   ar
    31    33    34   ar
    32    34    35   ar
    33    35    36   ar
    34    36    37   ar
    35    37    40    1
    36    40    41   ar
    37    41    42   ar
    38    42    43   ar
    39    43    44   ar
    40    44    45   ar
    41    37    38   ar
    42    38    39   ar
    43    39    31   ar
    44     6     1   ar
    45    39    34   ar
    46    12     7    1
    47    45    40   ar
    48    21    16   ar
    49    28    29    1
    50    24    25    1
@<TRIPOS>MOLECULE
*****
 45 50 0 0 0
SMALL
GASTEIGER

@<TRIPOS>ATOM
      1 C          10.6591   81.1605   25.0786 C.ar    1  UNL1        0.0702
      2 C          10.1981   80.5643   26.2615 C.ar    1  UNL1        0.0191
      3 C           9.4654   79.3772   26.2111 C.ar    1  UNL1        0.0356
      4 C           9.1996   78.7714   24.9679 C.ar    1  UNL1        0.1323
      5 N           9.6797   79.3648   23.8378 N.ar    1  UNL1       -0.2279
      6 C          10.3952   80.5195   23.8631 C.ar    1  UNL1        0.1149
      7 N           8.4373   77.5413   24.8664 N.pl3   1  UNL1       -0.2861
      8 C           7.0148   77.5292   25.2574 C.3     1  UNL1        0.0930
      9 C           6.3263   76.2040   24.9255 C.3     1  UNL1        0.0253
     10 C           7.1784   75.0372   25.4331 C.3     1  UNL1        0.0479
     11 C           8.5820   75.0274   24.7782 C.3     1  UNL1        0.0344
     12 C           9.0363   76.3788   24.1810 C.3     1  UNL1        0.1270
     13 I           8.6229   76.4886   22.0734 I       1  UNL1       -0.0531
     14 C           6.4452   73.6994   25.2132 C.3     1  UNL1        0.2054
     15 O           5.8630   73.2261   26.4292 O.3     1  UNL1       -0.4755
     16 C           6.1777   73.6842   27.7192 C.ar    1  UNL1        0.1388
     17 C           5.2190   74.2449   28.5834 C.ar    1  UNL1        0.0369
     18 C           5.5915   74.6804   29.8563 C.ar    1  UNL1        0.0033
     19 C           6.9166   74.5653   30.2816 C.ar    1  UNL1        0.0066
     20 C           7.8906   74.0129   29.4316 C.ar    1  UNL1        0.0785
     21 C           7.5034   73.5655   28.1548 C.ar    1  UNL1        0.0433
     22 C           9.3018   73.8761   29.8681 C.2     1  UNL1        0.3381
     23 O          10.1948   74.5797   29.3250 O.2     1  UNL1       -0.2451
     24 O           9.6754   72.9949   30.8822 O.3     1  UNL1       -0.4771
     25 H           9.0015   72.4768   31.4306 H       1  UNL1        0.2954
     26 C          12.8641   82.4018   24.9347 C.2     1  UNL1        0.2839
     27 O          13.5559   81.3965   25.2500 O.2     1  UNL1       -0.2665
     28 N          11.4378   82.3694   25.0933 N.am    1  UNL1       -0.2766
     29 H          10.9552   83.2620   25.3411 H       1  UNL1        0.1553
     30 C          15.5633   82.6032   23.1642 C.3     1  UNL1        0.0345
     31 C          14.7179   83.7135   23.7113 C.ar    1  UNL1        0.0202
     32 C          13.5537   83.6238   24.4848 C.ar    1  UNL1        0.1946
     33 O          13.1235   84.8341   24.7953 O.2     1  UNL1       -0.4492
     34 C          13.9349   85.7037   24.2449 C.ar    1  UNL1        0.1452
     35 C          13.8548   87.0907   24.3049 C.ar    1  UNL1        0.0375
     36 C          14.8369   87.8382   23.6315 C.ar    1  UNL1        0.0031
     37 C          15.8787   87.1920   22.9122 C.ar    1  UNL1        0.0002
     38 C          15.9242   85.7775   22.8784 C.ar    1  UNL1        0.0028
     39 C          14.9336   85.0686   23.5583 C.ar    1  UNL1        0.0337
     40 C          16.9100   87.9917   22.2035 C.ar    1  UNL1        0.0000
     41 C          18.1246   88.3163   22.8372 C.ar    1  UNL1        0.0000
     42 C          19.0933   89.0704   22.1678 C.ar    1  UNL1        0.0000
     43 C          18.8623   89.5076   20.8616 C.ar    1  UNL1        0.0000
     44 C          17.6616   89.1920   20.2220 C.ar    1  UNL1        0.0000
     45 C          16.6890   88.4390   20.8868 C.ar    1  UNL1        0.0000
@<TRIPOS>BOND
     1    30    31    1
     2    31    32   ar
     3    32    26    1
     4    26    27    2
     5    26    28   am
     6    28     1    1
     7     1     2   ar
     8     2     3   ar
     9     3     4   ar
    10     4     7    1
    11     7     8    1
    12     8     9    1
    13     9    10    1
    14    10    14    1
    15    14    15    1
    16    15    16    1
    17    16    17   ar
    18    17    18   ar
    19    18    19   ar
    20    19    20   ar
    21    20    22    1
    22    22    23    2
    23    22    24    1
    24    20    21   ar
    25    10    11    1
    26    11    12    1
    27    12    13    1
    28     4     5   ar
    29     5     6   ar
    30    32    33   ar
    31    33    34   ar
    32    34    35   ar
    33    35    36   ar
    34    36    37   ar
    35    37    40    1
    36    40    41   ar
    37    41    42   ar
    38    42    43   ar
    39    43    44   ar
    40    44    45   ar
    41    37    38   ar
    42    38    39   ar
    43    39    31   ar
    44     6     1   ar
    45    39    34   ar
    46    12     7    1
    47    45    40   ar
    48    21    16   ar
    49    28    29    1
    50    24    25    1
@<TRIPOS>MOLECULE
*****
 45 50 0 0 0
SMALL
GASTEIGER

@<TRIPOS>ATOM
      1 C          10.0753   79.5120   24.7407 C.ar    1  UNL1        0.0702
      2 C           9.5828   78.4963   25.5733 C.ar    1  UNL1        0.0191
      3 C           8.7993   77.4702   25.0425 C.ar    1  UNL1        0.0356
      4 C           8.5136   77.4500   23.6637 C.ar    1  UNL1        0.1323
      5 N           9.0246   78.4402   22.8775 N.ar    1  UNL1       -0.2279
      6 C           9.7897   79.4481   23.3723 C.ar    1  UNL1        0.1149
      7 N           7.6989   76.4075   23.0689 N.pl3   1  UNL1       -0.2861
      8 C           8.1299   74.9998   23.1642 C.3     1  UNL1        0.0930
      9 C           7.0741   74.0258   22.6380 C.3     1  UNL1        0.0253
     10 C           6.5794   74.4913   21.2655 C.3     1  UNL1        0.0479
     11 C           5.9411   75.9009   21.3362 C.3     1  UNL1        0.0344
     12 C           6.3543   76.7470   22.5620 C.3     1  UNL1        0.1270
     13 I           4.9177   76.5834   24.1539 I       1  UNL1       -0.0531
     14 C           5.6025   73.4603   20.6672 C.3     1  UNL1        0.2054
     15 O           4.2480   73.7983   20.9717 O.3     1  UNL1       -0.4755
     16 C           3.5068   74.8281   20.3692 C.ar    1  UNL1        0.1388
     17 C           3.4257   74.9924   18.9739 C.ar    1  UNL1        0.0369
     18 C           2.6704   76.0343   18.4329 C.ar    1  UNL1        0.0033
     19 C           1.9913   76.9220   19.2703 C.ar    1  UNL1        0.0066
     20 C           2.0637   76.7783   20.6669 C.ar    1  UNL1        0.0785
     21 C           2.8177   75.7178   21.2028 C.ar    1  UNL1        0.0433
     22 C           1.3439   77.7071   21.5724 C.2     1  UNL1        0.3381
     23 O           1.6127   78.9378   21.5474 O.2     1  UNL1       -0.2451
     24 O           0.3569   77.2603   22.4503 O.3     1  UNL1       -0.4771
     25 H           0.0182   76.3071   22.4511 H       1  UNL1        0.2954
     26 C          12.2104   80.8773   24.7331 C.2     1  UNL1        0.2839
     27 O          12.8908   79.9804   24.1665 O.2     1  UNL1       -0.2665
     28 N          10.9059   80.5708   25.2475 N.am    1  UNL1       -0.2766
     29 H          10.5907   81.0744   26.1065 H       1  UNL1        0.1553
     30 C          13.0207   82.2859   27.5296 C.3     1  UNL1        0.0345
     31 C          13.1725   82.8165   26.1359 C.ar    1  UNL1        0.0202
     32 C          12.8132   82.2079   24.9268 C.ar    1  UNL1        0.1946
     33 O          13.0813   83.0170   23.9168 O.2     1  UNL1       -0.4492
     34 C          13.6161   84.1089   24.4062 C.ar    1  UNL1        0.1452
     35 C          14.0590   85.2227   23.7014 C.ar    1  UNL1        0.0375
     36 C          14.6090   86.2904   24.4324 C.ar    1  UNL1        0.0031
     37 C          14.7076   86.2294   25.8490 C.ar    1  UNL1        0.0002
     38 C          14.2427   85.0772   26.5275 C.ar    1  UNL1        0.0028
     39 C          13.7027   84.0376   25.7699 C.ar    1  UNL1        0.0337
     40 C          15.2916   87.3625   26.6107 C.ar    1  UNL1        0.0000
     41 C          16.2349   88.2181   26.0104 C.ar    1  UNL1        0.0000
     42 C          16.7839   89.2836   26.7304 C.ar    1  UNL1        0.0000
     43 C          16.3986   89.5076   28.0540 C.ar    1  UNL1        0.0000
     44 C          15.4635   88.6663   28.6607 C.ar    1  UNL1        0.0000
     45 C          14.9119   87.5987   27.9458 C.ar    1  UNL1        0.0000
@<TRIPOS>BOND
     1    30    31    1
     2    31    32   ar
     3    32    26    1
     4    26    27    2
     5    26    28   am
     6    28     1    1
     7     1     2   ar
     8     2     3   ar
     9     3     4   ar
    10     4     7    1
    11     7     8    1
    12     8     9    1
    13     9    10    1
    14    10    14    1
    15    14    15    1
    16    15    16    1
    17    16    17   ar
    18    17    18   ar
    19    18    19   ar
    20    19    20   ar
    21    20    22    1
    22    22    23    2
    23    22    24    1
    24    20    21   ar
    25    10    11    1
    26    11    12    1
    27    12    13    1
    28     4     5   ar
    29     5     6   ar
    30    32    33   ar
    31    33    34   ar
    32    34    35   ar
    33    35    36   ar
    34    36    37   ar
    35    37    40    1
    36    40    41   ar
    37    41    42   ar
    38    42    43   ar
    39    43    44   ar
    40    44    45   ar
    41    37    38   ar
    42    38    39   ar
    43    39    31   ar
    44     6     1   ar
    45    39    34   ar
    46    12     7    1
    47    45    40   ar
    48    21    16   ar
    49    28    29    1
    50    24    25    1
@<TRIPOS>MOLECULE
*****
 45 50 0 0 0
SMALL
GASTEIGER

@<TRIPOS>ATOM
      1 C           9.9209   79.7496   24.0674 C.ar    1  UNL1        0.0702
      2 C           9.8264   79.5788   22.6785 C.ar    1  UNL1        0.0191
      3 C           9.1140   78.5012   22.1496 C.ar    1  UNL1        0.0356
      4 C           8.4784   77.5903   23.0153 C.ar    1  UNL1        0.1323
      5 N           8.5715   77.7959   24.3603 N.ar    1  UNL1       -0.2279
      6 C           9.2589   78.8378   24.8970 C.ar    1  UNL1        0.1149
      7 N           7.7325   76.4527   22.5114 N.pl3   1  UNL1       -0.2861
      8 C           7.2476   76.4563   21.1181 C.3     1  UNL1        0.0930
      9 C           6.6360   75.1160   20.7061 C.3     1  UNL1        0.0253
     10 C           5.6358   74.6551   21.7702 C.3     1  UNL1        0.0479
     11 C           6.3144   74.4704   23.1503 C.3     1  UNL1        0.0344
     12 C           7.6502   75.2270   23.3306 C.3     1  UNL1        0.1270
     13 I           9.3369   73.9607   22.9106 I       1  UNL1       -0.0531
     14 C           4.9227   73.3663   21.3165 C.3     1  UNL1        0.2054
     15 O           3.7121   73.6666   20.6193 O.3     1  UNL1       -0.4755
     16 C           3.3059   74.9436   20.1987 C.ar    1  UNL1        0.1388
     17 C           3.5322   75.4242   18.8955 C.ar    1  UNL1        0.0369
     18 C           3.1024   76.7024   18.5347 C.ar    1  UNL1        0.0033
     19 C           2.4469   77.5144   19.4627 C.ar    1  UNL1        0.0066
     20 C           2.2156   77.0551   20.7711 C.ar    1  UNL1        0.0785
     21 C           2.6417   75.7606   21.1221 C.ar    1  UNL1        0.0433
     22 C           1.5151   77.9003   21.7688 C.2     1  UNL1        0.3381
     23 O           1.9281   79.0683   21.9984 O.2     1  UNL1       -0.2451
     24 O           0.3917   77.4453   22.4584 O.3     1  UNL1       -0.4771
     25 H          -0.0550   76.5616   22.2511 H       1  UNL1        0.2954
     26 C          12.0553   80.9823   24.6576 C.2     1  UNL1        0.2839
     27 O          12.7753   79.9491   24.6051 O.2     1  UNL1       -0.2665
     28 N          10.6250   80.8612   24.6477 N.am    1  UNL1       -0.2766
     29 H          10.0732   81.5652   25.1869 H       1  UNL1        0.1553
     30 C          13.0121   82.3958   27.4048 C.3     1  UNL1        0.0345
     31 C          13.1310   82.9045   25.9998 C.ar    1  UNL1        0.0202
     32 C          12.7084   82.2941   24.8122 C.ar    1  UNL1        0.1946
     33 O          12.9667   83.0817   23.7829 O.2     1  UNL1       -0.4492
     34 C          13.5547   84.1606   24.2387 C.ar    1  UNL1        0.1452
     35 C          14.0086   85.2505   23.5041 C.ar    1  UNL1        0.0375
     36 C          14.6198   86.3077   24.2010 C.ar    1  UNL1        0.0031
     37 C          14.7672   86.2602   25.6139 C.ar    1  UNL1        0.0002
     38 C          14.2891   85.1324   26.3235 C.ar    1  UNL1        0.0028
     39 C          13.6879   84.1027   25.5992 C.ar    1  UNL1        0.0337
     40 C          15.4155   87.3820   26.3394 C.ar    1  UNL1        0.0000
     41 C          15.0833   87.6545   27.6801 C.ar    1  UNL1        0.0000
     42 C          15.6946   88.7122   28.3604 C.ar    1  UNL1        0.0000
     43 C          16.6424   89.5077   27.7129 C.ar    1  UNL1        0.0000
     44 C          16.9809   89.2474   26.3832 C.ar    1  UNL1        0.0000
     45 C          16.3722   88.1916   25.6977 C.ar    1  UNL1        0.0000
@<TRIPOS>BOND
     1    30    31    1
     2    31    32   ar
     3    32    26    1
     4    26    27    2
     5    26    28   am
     6    28     1    1
     7     1     2   ar
     8     2     3   ar
     9     3     4   ar
    10     4     7    1
    11     7     8    1
    12     8     9    1
    13     9    10    1
    14    10    14    1
    15    14    15    1
    16    15    16    1
    17    16    17   ar
    18    17    18   ar
    19    18    19   ar
    20    19    20   ar
    21    20    22    1
    22    22    23    2
    23    22    24    1
    24    20    21   ar
    25    10    11    1
    26    11    12    1
    27    12    13    1
    28     4     5   ar
    29     5     6   ar
    30    32    33   ar
    31    33    34   ar
    32    34    35   ar
    33    35    36   ar
    34    36    37   ar
    35    37    40    1
    36    40    41   ar
    37    41    42   ar
    38    42    43   ar
    39    43    44   ar
    40    44    45   ar
    41    37    38   ar
    42    38    39   ar
    43    39    31   ar
    44     6     1   ar
    45    39    34   ar
    46    12     7    1
    47    45    40   ar
    48    21    16   ar
    49    28    29    1
    50    24    25    1
@<TRIPOS>MOLECULE
*****
 45 50 0 0 0
SMALL
GASTEIGER

@<TRIPOS>ATOM
      1 C          11.8232   80.6904   25.2113 C.ar    1  UNL1        0.0702
      2 C          13.2077   80.9015   25.2877 C.ar    1  UNL1        0.0191
      3 C          13.7409   82.1669   25.0369 C.ar    1  UNL1        0.0356
      4 C          12.8826   83.2369   24.7179 C.ar    1  UNL1        0.1323
      5 N          11.5397   83.0041   24.6722 N.ar    1  UNL1       -0.2279
      6 C          10.9989   81.7812   24.9132 C.ar    1  UNL1        0.1149
      7 N          13.3918   84.5673   24.4435 N.pl3   1  UNL1       -0.2861
      8 C          14.0596   85.3294   25.5158 C.3     1  UNL1        0.0930
      9 C          14.6829   86.6316   25.0095 C.3     1  UNL1        0.0253
     10 C          13.6611   87.4007   24.1672 C.3     1  UNL1        0.0479
     11 C          13.1992   86.5787   22.9383 C.3     1  UNL1        0.0344
     12 C          13.4201   85.0529   23.0494 C.3     1  UNL1        0.1270
     13 I          15.2589   84.4516   22.1104 I       1  UNL1       -0.0531
     14 C          14.2311   88.7696   23.7469 C.3     1  UNL1        0.2054
     15 O          15.2977   88.6164   22.8087 O.3     1  UNL1       -0.4755
     16 C          16.6629   88.7966   23.0857 C.ar    1  UNL1        0.1388
     17 C          17.6181   89.0414   22.0817 C.ar    1  UNL1        0.0369
     18 C          18.9615   89.2153   22.4189 C.ar    1  UNL1        0.0033
     19 C          19.3686   89.1461   23.7529 C.ar    1  UNL1        0.0066
     20 C          18.4310   88.8974   24.7704 C.ar    1  UNL1        0.0785
     21 C          17.0771   88.7355   24.4221 C.ar    1  UNL1        0.0433
     22 C          18.8432   88.8272   26.1937 C.2     1  UNL1        0.3381
     23 O          18.1754   88.1310   27.0041 O.2     1  UNL1       -0.2451
     24 O          19.9677   89.5022   26.6673 O.3     1  UNL1       -0.4771
     25 H          20.6067   89.9938   26.0563 H       1  UNL1        0.2954
     26 C          10.5857   79.0765   26.7236 C.2     1  UNL1        0.2839
     27 O          10.8984   79.6848   27.7822 O.2     1  UNL1       -0.2665
     28 N          11.2363   79.4070   25.4875 N.am    1  UNL1       -0.2766
     29 H          11.3857   78.6390   24.7955 H       1  UNL1        0.1553
     30 C           9.1134   77.9300   29.3653 C.3     1  UNL1        0.0345
     31 C           8.9648   77.4825   27.9424 C.ar    1  UNL1        0.0202
     32 C           9.6098   77.9752   26.8010 C.ar    1  UNL1        0.1946
     33 O           9.2299   77.2903   25.7366 O.2     1  UNL1       -0.4492
     34 C           8.3557   76.3943   26.1248 C.ar    1  UNL1        0.1452
     35 C           7.6897   75.4647   25.3338 C.ar    1  UNL1        0.0375
     36 C           6.7822   74.5934   25.9617 C.ar    1  UNL1        0.0031
     37 C           6.5554   74.6637   27.3631 C.ar    1  UNL1        0.0002
     38 C           7.2562   75.6240   28.1317 C.ar    1  UNL1        0.0028
     39 C           8.1489   76.4715   27.4752 C.ar    1  UNL1        0.0337
     40 C           5.5937   73.7392   28.0155 C.ar    1  UNL1        0.0000
     41 C           5.4954   72.3978   27.5993 C.ar    1  UNL1        0.0000
     42 C           4.5881   71.5299   28.2147 C.ar    1  UNL1        0.0000
     43 C           3.7710   71.9889   29.2502 C.ar    1  UNL1        0.0000
     44 C           3.8591   73.3172   29.6724 C.ar    1  UNL1        0.0000
     45 C           4.7639   74.1898   29.0600 C.ar    1  UNL1        0.0000
@<TRIPOS>BOND
     1    30    31    1
     2    31    32   ar
     3    32    26    1
     4    26    27    2
     5    26    28   am
     6    28     1    1
     7     1     2   ar
     8     2     3   ar
     9     3     4   ar
    10     4     7    1
    11     7     8    1
    12     8     9    1
    13     9    10    1
    14    10    14    1
    15    14    15    1
    16    15    16    1
    17    16    17   ar
    18    17    18   ar
    19    18    19   ar
    20    19    20   ar
    21    20    22    1
    22    22    23    2
    23    22    24    1
    24    20    21   ar
    25    10    11    1
    26    11    12    1
    27    12    13    1
    28     4     5   ar
    29     5     6   ar
    30    32    33   ar
    31    33    34   ar
    32    34    35   ar
    33    35    36   ar
    34    36    37   ar
    35    37    40    1
    36    40    41   ar
    37    41    42   ar
    38    42    43   ar
    39    43    44   ar
    40    44    45   ar
    41    37    38   ar
    42    38    39   ar
    43    39    31   ar
    44     6     1   ar
    45    39    34   ar
    46    12     7    1
    47    45    40   ar
    48    21    16   ar
    49    28    29    1
    50    24    25    1
@<TRIPOS>MOLECULE
*****
 45 50 0 0 0
SMALL
GASTEIGER

@<TRIPOS>ATOM
      1 C          11.9213   81.0170   25.3408 C.ar    1  UNL1        0.0702
      2 C          13.3070   81.2286   25.3883 C.ar    1  UNL1        0.0191
      3 C          13.8435   82.4602   25.0092 C.ar    1  UNL1        0.0356
      4 C          12.9875   83.4967   24.5894 C.ar    1  UNL1        0.1323
      5 N          11.6435   83.2663   24.5744 N.ar    1  UNL1       -0.2279
      6 C          11.0995   82.0760   24.9394 C.ar    1  UNL1        0.1149
      7 N          13.5002   84.7907   24.1805 N.pl3   1  UNL1       -0.2861
      8 C          14.2959   85.5939   25.1283 C.3     1  UNL1        0.0930
      9 C          14.8970   86.8420   24.4793 C.3     1  UNL1        0.0253
     10 C          13.8136   87.5919   23.6989 C.3     1  UNL1        0.0479
     11 C          13.2047   86.7128   22.5784 C.3     1  UNL1        0.0344
     12 C          13.3958   85.1901   22.7629 C.3     1  UNL1        0.1270
     13 I          15.1102   84.4734   21.6805 I       1  UNL1       -0.0531
     14 C          14.3726   88.9136   23.1366 C.3     1  UNL1        0.2054
     15 O          14.8580   88.7409   21.8038 O.3     1  UNL1       -0.4755
     16 C          14.0681   88.7151   20.6427 C.ar    1  UNL1        0.1388
     17 C          12.9143   89.5060   20.4885 C.ar    1  UNL1        0.0369
     18 C          12.1706   89.4394   19.3090 C.ar    1  UNL1        0.0033
     19 C          12.5634   88.5874   18.2745 C.ar    1  UNL1        0.0066
     20 C          13.7098   87.7853   18.4107 C.ar    1  UNL1        0.0785
     21 C          14.4601   87.8682   19.5985 C.ar    1  UNL1        0.0433
     22 C          14.1467   86.8793   17.3203 C.2     1  UNL1        0.3381
     23 O          14.5723   85.7266   17.5985 O.2     1  UNL1       -0.2451
     24 O          14.0870   87.2600   15.9802 O.3     1  UNL1       -0.4771
     25 H          13.6621   88.1267   15.6775 H       1  UNL1        0.2954
     26 C          10.3663   79.6509   26.8033 C.2     1  UNL1        0.2839
     27 O          10.3372   80.5054   27.7293 O.2     1  UNL1       -0.2665
     28 N          11.3311   79.7702   25.7472 N.am    1  UNL1       -0.2766
     29 H          11.7034   78.8898   25.3263 H       1  UNL1        0.1553
     30 C           8.8404   78.5054   29.4149 C.3     1  UNL1        0.0345
     31 C           8.7855   78.0034   28.0036 C.ar    1  UNL1        0.0202
     32 C           9.4538   78.4962   26.8757 C.ar    1  UNL1        0.1946
     33 O           9.1651   77.7552   25.8202 O.2     1  UNL1       -0.4492
     34 C           8.3274   76.8217   26.2002 C.ar    1  UNL1        0.1452
     35 C           7.7547   75.8284   25.4134 C.ar    1  UNL1        0.0375
     36 C           6.8711   74.9254   26.0303 C.ar    1  UNL1        0.0031
     37 C           6.5747   75.0278   27.4166 C.ar    1  UNL1        0.0002
     38 C           7.1813   76.0530   28.1815 C.ar    1  UNL1        0.0028
     39 C           8.0529   76.9306   27.5362 C.ar    1  UNL1        0.0337
     40 C           5.6389   74.0692   28.0573 C.ar    1  UNL1        0.0000
     41 C           5.5886   72.7271   27.6351 C.ar    1  UNL1        0.0000
     42 C           4.7056   71.8270   28.2395 C.ar    1  UNL1        0.0000
     43 C           3.8652   72.2543   29.2699 C.ar    1  UNL1        0.0000
     44 C           3.9057   73.5831   29.6980 C.ar    1  UNL1        0.0000
     45 C           4.7861   74.4877   29.0966 C.ar    1  UNL1        0.0000
@<TRIPOS>BOND
     1    30    31    1
     2    31    32   ar
     3    32    26    1
     4    26    27    2
     5    26    28   am
     6    28     1    1
     7     1     2   ar
     8     2     3   ar
     9     3     4   ar
    10     4     7    1
    11     7     8    1
    12     8     9    1
    13     9    10    1
    14    10    14    1
    15    14    15    1
    16    15    16    1
    17    16    17   ar
    18    17    18   ar
    19    18    19   ar
    20    19    20   ar
    21    20    22    1
    22    22    23    2
    23    22    24    1
    24    20    21   ar
    25    10    11    1
    26    11    12    1
    27    12    13    1
    28     4     5   ar
    29     5     6   ar
    30    32    33   ar
    31    33    34   ar
    32    34    35   ar
    33    35    36   ar
    34    36    37   ar
    35    37    40    1
    36    40    41   ar
    37    41    42   ar
    38    42    43   ar
    39    43    44   ar
    40    44    45   ar
    41    37    38   ar
    42    38    39   ar
    43    39    31   ar
    44     6     1   ar
    45    39    34   ar
    46    12     7    1
    47    45    40   ar
    48    21    16   ar
    49    28    29    1
    50    24    25    1
@<TRIPOS>MOLECULE
*****
 45 50 0 0 0
SMALL
GASTEIGER

@<TRIPOS>ATOM
      1 C          10.8144   81.2881   24.5779 C.ar    1  UNL1        0.0702
      2 C          10.1906   80.7332   25.7049 C.ar    1  UNL1        0.0191
      3 C           9.5520   79.4950   25.6167 C.ar    1  UNL1        0.0356
      4 C           9.5459   78.7966   24.3938 C.ar    1  UNL1        0.1323
      5 N          10.1794   79.3533   23.3221 N.ar    1  UNL1       -0.2279
      6 C          10.8074   80.5564   23.3852 C.ar    1  UNL1        0.1149
      7 N           8.8899   77.5104   24.2534 N.pl3   1  UNL1       -0.2861
      8 C           9.3729   76.5505   23.2425 C.3     1  UNL1        0.0930
      9 C           8.6827   75.1895   23.3486 C.3     1  UNL1        0.0253
     10 C           7.1657   75.3837   23.4279 C.3     1  UNL1        0.0479
     11 C           6.7614   76.2259   24.6634 C.3     1  UNL1        0.0344
     12 C           7.8886   77.1005   25.2581 C.3     1  UNL1        0.1270
     13 I           8.8700   76.1145   26.8981 I       1  UNL1       -0.0531
     14 C           6.4470   74.0204   23.4162 C.3     1  UNL1        0.2054
     15 O           5.1218   74.1421   22.8959 O.3     1  UNL1       -0.4755
     16 C           4.6604   75.1784   22.0677 C.ar    1  UNL1        0.1388
     17 C           5.0411   75.3023   20.7186 C.ar    1  UNL1        0.0369
     18 C           4.5470   76.3531   19.9438 C.ar    1  UNL1        0.0033
     19 C           3.6734   77.2898   20.5004 C.ar    1  UNL1        0.0066
     20 C           3.2849   77.1869   21.8475 C.ar    1  UNL1        0.0785
     21 C           3.7786   76.1174   22.6174 C.ar    1  UNL1        0.0433
     22 C           2.3526   78.1683   22.4546 C.2     1  UNL1        0.3381
     23 O           2.0144   79.1935   21.8049 O.2     1  UNL1       -0.2451
     24 O           1.8197   77.9841   23.7300 O.3     1  UNL1       -0.4771
     25 H           1.9649   77.1381   24.2651 H       1  UNL1        0.2954
     26 C          12.8772   82.6902   25.0274 C.2     1  UNL1        0.2839
     27 O          13.4096   81.8312   25.7807 O.2     1  UNL1       -0.2665
     28 N          11.5031   82.5491   24.6373 N.am    1  UNL1       -0.2766
     29 H          10.9456   83.4208   24.4947 H       1  UNL1        0.1553
     30 C          15.3526   82.8008   22.9487 C.3     1  UNL1        0.0345
     31 C          14.7318   83.9226   23.7252 C.ar    1  UNL1        0.0202
     32 C          13.6650   83.8708   24.6312 C.ar    1  UNL1        0.1946
     33 O          13.4382   85.0730   25.1311 O.2     1  UNL1       -0.4492
     34 C          14.2874   85.9053   24.5798 C.ar    1  UNL1        0.1452
     35 C          14.3992   87.2727   24.8065 C.ar    1  UNL1        0.0375
     36 C          15.3857   87.9806   24.0976 C.ar    1  UNL1        0.0031
     37 C          16.2411   87.3151   23.1780 C.ar    1  UNL1        0.0002
     38 C          16.0946   85.9212   22.9786 C.ar    1  UNL1        0.0028
     39 C          15.1055   85.2514   23.6993 C.ar    1  UNL1        0.0337
     40 C          17.2787   88.0732   22.4338 C.ar    1  UNL1        0.0000
     41 C          17.0223   88.5509   21.1345 C.ar    1  UNL1        0.0000
     42 C          18.0017   89.2635   20.4357 C.ar    1  UNL1        0.0000
     43 C          19.2446   89.5076   21.0239 C.ar    1  UNL1        0.0000
     44 C          19.5112   89.0393   22.3123 C.ar    1  UNL1        0.0000
     45 C          18.5359   88.3253   23.0154 C.ar    1  UNL1        0.0000
@<TRIPOS>BOND
     1    30    31    1
     2    31    32   ar
     3    32    26    1
     4    26    27    2
     5    26    28   am
     6    28     1    1
     7     1     2   ar
     8     2     3   ar
     9     3     4   ar
    10     4     7    1
    11     7     8    1
    12     8     9    1
    13     9    10    1
    14    10    14    1
    15    14    15    1
    16    15    16    1
    17    16    17   ar
    18    17    18   ar
    19    18    19   ar
    20    19    20   ar
    21    20    22    1
    22    22    23    2
    23    22    24    1
    24    20    21   ar
    25    10    11    1
    26    11    12    1
    27    12    13    1
    28     4     5   ar
    29     5     6   ar
    30    32    33   ar
    31    33    34   ar
    32    34    35   ar
    33    35    36   ar
    34    36    37   ar
    35    37    40    1
    36    40    41   ar
    37    41    42   ar
    38    42    43   ar
    39    43    44   ar
    40    44    45   ar
    41    37    38   ar
    42    38    39   ar
    43    39    31   ar
    44     6     1   ar
    45    39    34   ar
    46    12     7    1
    47    45    40   ar
    48    21    16   ar
    49    28    29    1
    50    24    25    1
