@<TRIPOS>MOLECULE
*****
 51 56 0 0 0
SMALL
GASTEIGER

@<TRIPOS>ATOM
      1 O          59.4866   88.0509   12.4905 O.2     1  UNL1       -0.2701
      2 C          60.1570   87.5599   11.5410 C.2     1  UNL1        0.2483
      3 N          60.9376   86.3744   11.7584 N.am    1  UNL1       -0.2945
      4 H          61.2516   85.8214   10.9286 H       1  UNL1        0.1501
      5 C          60.0995   88.1980   10.2065 C.ar    1  UNL1        0.0808
      6 C          59.6891   87.4441    9.0940 C.ar    1  UNL1        0.0080
      7 C          59.6304   88.0245    7.8246 C.ar    1  UNL1        0.0148
      8 C          59.9738   89.3733    7.6436 C.ar    1  UNL1        0.0502
      9 C          60.3651   90.1338    8.7554 C.ar    1  UNL1        0.0443
     10 C          60.4255   89.5567   10.0277 C.ar    1  UNL1        0.1457
     11 F          60.7510   90.3431   11.0843 F       1  UNL1       -0.2040
     12 N          59.9120   89.9795    6.3387 N.pl3   1  UNL1       -0.3040
     13 C          58.6275   90.4052    5.7721 C.3     1  UNL1        0.1123
     14 C          58.7959   91.7190    5.0040 C.3     1  UNL1        0.1136
     15 N          59.9650   91.6506    4.1152 N.pl3   1  UNL1       -0.2897
     16 C          61.2428   91.2115    4.6910 C.3     1  UNL1        0.1136
     17 C          61.0601   89.8879    5.4305 C.3     1  UNL1        0.1123
     18 C          59.9454   92.2581    2.8075 C.ar    1  UNL1        0.1348
     19 C          61.1134   92.3754    2.0400 C.ar    1  UNL1        0.0708
     20 C          61.0638   92.9664    0.7745 C.ar    1  UNL1        0.1418
     21 O          62.2541   93.0583    0.0490 O.3     1  UNL1       -0.5054
     22 C          59.8309   93.4438    0.2704 C.ar    1  UNL1        0.1242
     23 C          58.6850   93.2944    1.0728 C.ar    1  UNL1        0.1072
     24 N          58.7705   92.7148    2.2978 N.ar    1  UNL1       -0.2290
     25 H          62.3148   93.4658   -0.8743 H       1  UNL1        0.2922
     26 C          59.7329   94.0920   -1.0938 C.3     1  UNL1        0.4228
     27 F          58.6023   94.8831   -1.2068 F       1  UNL1       -0.1657
     28 F          60.8409   94.8913   -1.3098 F       1  UNL1       -0.1657
     29 F          59.6744   93.1140   -2.0702 F       1  UNL1       -0.1657
     30 C          61.1272   85.8043   13.0960 C.3     1  UNL1        0.1535
     31 C          60.7063   84.3605   13.1019 C.2     1  UNL1        0.2443
     32 O          61.4571   83.4949   13.6299 O.2     1  UNL1       -0.2730
     33 N          59.4170   83.9899   12.5893 N.am    1  UNL1       -0.2825
     34 H          58.7039   84.7455   12.4727 H       1  UNL1        0.1549
     35 C          59.0162   82.6352   12.3223 C.ar    1  UNL1        0.0535
     36 C          58.5155   82.3015   11.0564 C.ar    1  UNL1        0.0353
     37 C          58.1463   80.9820   10.7844 C.ar    1  UNL1        0.1002
     38 N          58.2879   80.0239   11.7380 N.ar    1  UNL1       -0.2422
     39 C          58.7886   80.3127   12.9681 C.ar    1  UNL1        0.1002
     40 C          59.1688   81.6199   13.2820 C.ar    1  UNL1        0.0353
     41 C          62.5947   85.9254   13.5387 C.3     1  UNL1        0.0569
     42 C          62.8172   87.1735   14.3425 C.ar    1  UNL1       -0.0017
     43 C          62.8584   87.2707   15.7301 C.ar    1  UNL1        0.0681
     44 N          63.1604   88.5345   16.1059 N.ar    1  UNL1       -0.3523
     45 C          63.3189   89.2327   14.9680 C.ar    1  UNL1        0.0563
     46 C          63.6573   90.5794   14.8427 C.ar    1  UNL1        0.0170
     47 C          63.7915   91.1056   13.5447 C.ar    1  UNL1        0.0015
     48 C          63.5898   90.2827   12.4142 C.ar    1  UNL1        0.0001
     49 C          63.2512   88.9263   12.5709 C.ar    1  UNL1        0.0012
     50 C          63.1211   88.4350   13.8702 C.ar    1  UNL1        0.0131
     51 H          63.2640   88.8880   17.0830 H       1  UNL1        0.1660
@<TRIPOS>BOND
     1     1     2    2
     2     2     3   am
     3     3    30    1
     4    30    41    1
     5    41    42    1
     6    42    43   ar
     7    43    44   ar
     8    44    45   ar
     9    45    46   ar
    10    46    47   ar
    11    47    48   ar
    12    48    49   ar
    13    49    50   ar
    14    30    31    1
    15    31    32    2
    16    31    33   am
    17    33    35    1
    18    35    36   ar
    19    36    37   ar
    20    37    38   ar
    21    38    39   ar
    22    39    40   ar
    23     2     5    1
    24     5     6   ar
    25     6     7   ar
    26     7     8   ar
    27     8    12    1
    28    12    13    1
    29    13    14    1
    30    14    15    1
    31    15    18    1
    32    18    19   ar
    33    19    20   ar
    34    20    21    1
    35    20    22   ar
    36    22    26    1
    37    26    27    1
    38    26    28    1
    39    26    29    1
    40    22    23   ar
    41    23    24   ar
    42    15    16    1
    43    16    17    1
    44     8     9   ar
    45     9    10   ar
    46    10    11    1
    47    50    42   ar
    48    40    35   ar
    49    10     5   ar
    50    50    45   ar
    51    17    12    1
    52    24    18   ar
    53     3     4    1
    54    44    51    1
    55    33    34    1
    56    21    25    1
@<TRIPOS>MOLECULE
*****
 51 56 0 0 0
SMALL
GASTEIGER

@<TRIPOS>ATOM
      1 O          58.5556   86.7195   11.7684 O.2     1  UNL1       -0.2701
      2 C          59.4296   87.6052   11.5593 C.2     1  UNL1        0.2483
      3 N          60.3499   87.9586   12.6035 N.am    1  UNL1       -0.2945
      4 H          61.2274   88.4662   12.3482 H       1  UNL1        0.1501
      5 C          59.5122   88.2422   10.2257 C.ar    1  UNL1        0.0808
      6 C          59.2734   87.4738    9.0738 C.ar    1  UNL1        0.0080
      7 C          59.3491   88.0531    7.8047 C.ar    1  UNL1        0.0148
      8 C          59.6576   89.4149    7.6626 C.ar    1  UNL1        0.0502
      9 C          59.8772   90.1891    8.8114 C.ar    1  UNL1        0.0443
     10 C          59.8028   89.6133   10.0836 C.ar    1  UNL1        0.1457
     11 F          59.9629   90.4108   11.1694 F       1  UNL1       -0.2040
     12 N          59.7336   90.0198    6.3578 N.pl3   1  UNL1       -0.3040
     13 C          58.5273   90.5362    5.7018 C.3     1  UNL1        0.1123
     14 C          58.8454   91.8318    4.9503 C.3     1  UNL1        0.1136
     15 N          60.0669   91.6755    4.1472 N.pl3   1  UNL1       -0.2897
     16 C          61.2649   91.1462    4.8119 C.3     1  UNL1        0.1136
     17 C          60.9338   89.8418    5.5338 C.3     1  UNL1        0.1123
     18 C          60.1851   92.2786    2.8427 C.ar    1  UNL1        0.1348
     19 C          61.4212   92.3579    2.1849 C.ar    1  UNL1        0.0708
     20 C          61.5052   92.9456    0.9197 C.ar    1  UNL1        0.1418
     21 O          62.7590   92.9989    0.3057 O.3     1  UNL1       -0.5054
     22 C          60.3385   93.4581    0.3047 C.ar    1  UNL1        0.1242
     23 C          59.1202   93.3462    0.9994 C.ar    1  UNL1        0.1072
     24 N          59.0760   92.7686    2.2275 N.ar    1  UNL1       -0.2290
     25 H          62.9159   93.4012   -0.6085 H       1  UNL1        0.2922
     26 C          60.3851   94.1041   -1.0632 C.3     1  UNL1        0.4228
     27 F          60.4173   93.1608   -2.0761 F       1  UNL1       -0.1657
     28 F          59.2627   94.8920   -1.2443 F       1  UNL1       -0.1657
     29 F          61.5193   94.8888   -1.1685 F       1  UNL1       -0.1657
     30 C          60.2036   87.4515   13.9716 C.3     1  UNL1        0.1535
     31 C          61.2893   86.4537   14.2668 C.2     1  UNL1        0.2443
     32 O          61.1586   85.6602   15.2390 O.2     1  UNL1       -0.2730
     33 N          62.4220   86.3498   13.3901 N.am    1  UNL1       -0.2825
     34 H          62.3407   86.7725   12.4374 H       1  UNL1        0.1549
     35 C          63.6183   85.6168   13.7044 C.ar    1  UNL1        0.0535
     36 C          64.5051   86.1241   14.6640 C.ar    1  UNL1        0.0353
     37 C          65.6572   85.4044   14.9900 C.ar    1  UNL1        0.1002
     38 N          65.9077   84.2104   14.3911 N.ar    1  UNL1       -0.2422
     39 C          65.0571   83.6832   13.4713 C.ar    1  UNL1        0.1002
     40 C          63.8940   84.3708   13.1156 C.ar    1  UNL1        0.0353
     41 C          60.2570   88.6025   14.9897 C.3     1  UNL1        0.0569
     42 C          61.6745   88.9911   15.2949 C.ar    1  UNL1       -0.0017
     43 C          62.3843   88.6967   16.4551 C.ar    1  UNL1        0.0681
     44 N          63.6605   89.1325   16.3509 N.ar    1  UNL1       -0.3523
     45 C          63.7643   89.6907   15.1322 C.ar    1  UNL1        0.0563
     46 C          64.8985   90.2639   14.5588 C.ar    1  UNL1        0.0170
     47 C          64.7879   90.7751   13.2526 C.ar    1  UNL1        0.0015
     48 C          63.5612   90.7000   12.5558 C.ar    1  UNL1        0.0001
     49 C          62.4334   90.1139   13.1589 C.ar    1  UNL1        0.0012
     50 C          62.5732   89.6201   14.4562 C.ar    1  UNL1        0.0131
     51 H          64.4136   89.0381   17.0681 H       1  UNL1        0.1660
@<TRIPOS>BOND
     1     1     2    2
     2     2     3   am
     3     3    30    1
     4    30    41    1
     5    41    42    1
     6    42    43   ar
     7    43    44   ar
     8    44    45   ar
     9    45    46   ar
    10    46    47   ar
    11    47    48   ar
    12    48    49   ar
    13    49    50   ar
    14    30    31    1
    15    31    32    2
    16    31    33   am
    17    33    35    1
    18    35    36   ar
    19    36    37   ar
    20    37    38   ar
    21    38    39   ar
    22    39    40   ar
    23     2     5    1
    24     5     6   ar
    25     6     7   ar
    26     7     8   ar
    27     8    12    1
    28    12    13    1
    29    13    14    1
    30    14    15    1
    31    15    18    1
    32    18    19   ar
    33    19    20   ar
    34    20    21    1
    35    20    22   ar
    36    22    26    1
    37    26    27    1
    38    26    28    1
    39    26    29    1
    40    22    23   ar
    41    23    24   ar
    42    15    16    1
    43    16    17    1
    44     8     9   ar
    45     9    10   ar
    46    10    11    1
    47    50    42   ar
    48    40    35   ar
    49    10     5   ar
    50    50    45   ar
    51    17    12    1
    52    24    18   ar
    53     3     4    1
    54    44    51    1
    55    33    34    1
    56    21    25    1
@<TRIPOS>MOLECULE
*****
 51 56 0 0 0
SMALL
GASTEIGER

@<TRIPOS>ATOM
      1 O          59.2091   88.2398   12.5099 O.2     1  UNL1       -0.2701
      2 C          59.8649   87.6809   11.5881 C.2     1  UNL1        0.2483
      3 N          60.5672   86.4571   11.8546 N.am    1  UNL1       -0.2945
      4 H          60.8615   85.8616   11.0473 H       1  UNL1        0.1501
      5 C          59.8707   88.2814   10.2351 C.ar    1  UNL1        0.0808
      6 C          60.3844   89.5765   10.0530 C.ar    1  UNL1        0.0080
      7 C          60.3970   90.1644    8.7857 C.ar    1  UNL1        0.0148
      8 C          59.9028   89.4655    7.6734 C.ar    1  UNL1        0.0502
      9 C          59.4073   88.1650    7.8486 C.ar    1  UNL1        0.0443
     10 C          59.3926   87.5728    9.1154 C.ar    1  UNL1        0.1457
     11 F          58.9605   86.2919    9.2301 F       1  UNL1       -0.2040
     12 N          59.9161   90.0636    6.3634 N.pl3   1  UNL1       -0.3040
     13 C          58.6716   90.5290    5.7413 C.3     1  UNL1        0.1123
     14 C          58.9170   91.8305    4.9730 C.3     1  UNL1        0.1136
     15 N          60.1188   91.7153    4.1340 N.pl3   1  UNL1       -0.2897
     16 C          61.3557   91.2368    4.7650 C.3     1  UNL1        0.1136
     17 C          61.0968   89.9258    5.5043 C.3     1  UNL1        0.1123
     18 C          60.1743   92.3132    2.8229 C.ar    1  UNL1        0.1348
     19 C          61.3990   92.6240    2.2141 C.ar    1  UNL1        0.0708
     20 C          61.4223   93.2007    0.9412 C.ar    1  UNL1        0.1418
     21 O          62.6673   93.4899    0.3774 O.3     1  UNL1       -0.5054
     22 C          60.2062   93.4678    0.2691 C.ar    1  UNL1        0.1242
     23 C          59.0037   93.1291    0.9161 C.ar    1  UNL1        0.1072
     24 N          59.0191   92.5696    2.1533 N.ar    1  UNL1       -0.2290
     25 H          62.7829   93.9034   -0.5379 H       1  UNL1        0.2922
     26 C          60.1860   94.0931   -1.1091 C.3     1  UNL1        0.4228
     27 F          59.0686   94.8890   -1.2959 F       1  UNL1       -0.1657
     28 F          61.3095   94.8817   -1.2788 F       1  UNL1       -0.1657
     29 F          60.1729   93.0988   -2.0706 F       1  UNL1       -0.1657
     30 C          60.6976   85.9164   13.2115 C.3     1  UNL1        0.1535
     31 C          61.1893   86.9882   14.1448 C.2     1  UNL1        0.2443
     32 O          60.5217   87.2690   15.1778 O.2     1  UNL1       -0.2730
     33 N          62.4562   87.6199   13.9033 N.am    1  UNL1       -0.2825
     34 H          63.1208   87.1446   13.2511 H       1  UNL1        0.1549
     35 C          62.9044   88.8082   14.5773 C.ar    1  UNL1        0.0535
     36 C          62.7666   88.9045   15.9689 C.ar    1  UNL1        0.0353
     37 C          63.2215   90.0471   16.6315 C.ar    1  UNL1        0.1002
     38 N          63.8097   91.0527   15.9314 N.ar    1  UNL1       -0.2422
     39 C          63.9751   90.9800   14.5843 C.ar    1  UNL1        0.1002
     40 C          63.5334   89.8555   13.8826 C.ar    1  UNL1        0.0353
     41 C          59.3530   85.3619   13.7103 C.3     1  UNL1        0.0569
     42 C          58.6522   84.5877   12.6319 C.ar    1  UNL1       -0.0017
     43 C          57.6362   85.0532   11.8027 C.ar    1  UNL1        0.0681
     44 N          57.2991   84.1097   10.8941 N.ar    1  UNL1       -0.3523
     45 C          58.0994   83.0571   11.1370 C.ar    1  UNL1        0.0563
     46 C          58.1385   81.8474   10.4450 C.ar    1  UNL1        0.0170
     47 C          59.0759   80.8832   10.8589 C.ar    1  UNL1        0.0015
     48 C          59.9452   81.1479   11.9406 C.ar    1  UNL1        0.0001
     49 C          59.8848   82.3787   12.6191 C.ar    1  UNL1        0.0012
     50 C          58.9421   83.3125   12.1883 C.ar    1  UNL1        0.0131
     51 H          56.5743   84.1923   10.1469 H       1  UNL1        0.1660
@<TRIPOS>BOND
     1     1     2    2
     2     2     3   am
     3     3    30    1
     4    30    41    1
     5    41    42    1
     6    42    43   ar
     7    43    44   ar
     8    44    45   ar
     9    45    46   ar
    10    46    47   ar
    11    47    48   ar
    12    48    49   ar
    13    49    50   ar
    14    30    31    1
    15    31    32    2
    16    31    33   am
    17    33    35    1
    18    35    36   ar
    19    36    37   ar
    20    37    38   ar
    21    38    39   ar
    22    39    40   ar
    23     2     5    1
    24     5     6   ar
    25     6     7   ar
    26     7     8   ar
    27     8    12    1
    28    12    13    1
    29    13    14    1
    30    14    15    1
    31    15    18    1
    32    18    19   ar
    33    19    20   ar
    34    20    21    1
    35    20    22   ar
    36    22    26    1
    37    26    27    1
    38    26    28    1
    39    26    29    1
    40    22    23   ar
    41    23    24   ar
    42    15    16    1
    43    16    17    1
    44     8     9   ar
    45     9    10   ar
    46    10    11    1
    47    50    42   ar
    48    40    35   ar
    49    10     5   ar
    50    50    45   ar
    51    17    12    1
    52    24    18   ar
    53     3     4    1
    54    44    51    1
    55    33    34    1
    56    21    25    1
@<TRIPOS>MOLECULE
*****
 51 56 0 0 0
SMALL
GASTEIGER

@<TRIPOS>ATOM
      1 O          59.0301   87.0367   12.0362 O.2     1  UNL1       -0.2701
      2 C          60.0866   87.4555   11.4881 C.2     1  UNL1        0.2483
      3 N          61.3481   87.2916   12.1544 N.am    1  UNL1       -0.2945
      4 H          62.2262   87.3740   11.5932 H       1  UNL1        0.1501
      5 C          60.0103   88.0800   10.1482 C.ar    1  UNL1        0.0808
      6 C          60.5119   89.3788    9.9585 C.ar    1  UNL1        0.0080
      7 C          60.4476   89.9893    8.7035 C.ar    1  UNL1        0.0148
      8 C          59.8870   89.3097    7.6108 C.ar    1  UNL1        0.0502
      9 C          59.4032   88.0057    7.7924 C.ar    1  UNL1        0.0443
     10 C          59.4654   87.3910    9.0469 C.ar    1  UNL1        0.1457
     11 F          59.0411   86.1077    9.1646 F       1  UNL1       -0.2040
     12 N          59.8208   89.9312    6.3133 N.pl3   1  UNL1       -0.3040
     13 C          58.5371   90.3828    5.7653 C.3     1  UNL1        0.1123
     14 C          58.7176   91.7024    5.0098 C.3     1  UNL1        0.1136
     15 N          59.8760   91.6259    4.1078 N.pl3   1  UNL1       -0.2897
     16 C          61.1529   91.1609    4.6650 C.3     1  UNL1        0.1136
     17 C          60.9576   89.8321    5.3919 C.3     1  UNL1        0.1123
     18 C          59.8519   92.2481    2.8071 C.ar    1  UNL1        0.1348
     19 C          61.0366   92.6111    2.1500 C.ar    1  UNL1        0.0708
     20 C          60.9829   93.2102    0.8885 C.ar    1  UNL1        0.1418
     21 O          62.1907   93.5517    0.2751 O.3     1  UNL1       -0.5054
     22 C          59.7292   93.4472    0.2766 C.ar    1  UNL1        0.1242
     23 C          58.5694   93.0562    0.9704 C.ar    1  UNL1        0.1072
     24 N          58.6596   92.4763    2.1949 N.ar    1  UNL1       -0.2290
     25 H          62.2506   93.9847   -0.6366 H       1  UNL1        0.2922
     26 C          59.6256   94.0951   -1.0872 C.3     1  UNL1        0.4228
     27 F          60.7252   94.8897   -1.3635 F       1  UNL1       -0.1657
     28 F          59.5452   93.1173   -2.0621 F       1  UNL1       -0.1657
     29 F          58.4949   94.8902   -1.1395 F       1  UNL1       -0.1657
     30 C          61.4392   86.8090   13.5361 C.3     1  UNL1        0.1535
     31 C          60.6935   85.5104   13.6753 C.2     1  UNL1        0.2443
     32 O          60.2663   85.1557   14.8082 O.2     1  UNL1       -0.2730
     33 N          60.3948   84.7292   12.5078 N.am    1  UNL1       -0.2825
     34 H          60.4632   85.1996   11.5767 H       1  UNL1        0.1549
     35 C          59.9131   83.3751   12.5473 C.ar    1  UNL1        0.0535
     36 C          60.6804   82.3891   13.1826 C.ar    1  UNL1        0.0353
     37 C          60.2062   81.0765   13.2441 C.ar    1  UNL1        0.1002
     38 N          58.9990   80.7616   12.7047 N.ar    1  UNL1       -0.2422
     39 C          58.2235   81.6995   12.0996 C.ar    1  UNL1        0.1002
     40 C          58.6606   83.0238   12.0152 C.ar    1  UNL1        0.0353
     41 C          62.9070   86.6191   13.9529 C.3     1  UNL1        0.0569
     42 C          63.4055   85.2543   13.5758 C.ar    1  UNL1       -0.0017
     43 C          63.7711   84.2339   14.4485 C.ar    1  UNL1        0.0681
     44 N          64.0931   83.1158   13.7587 N.ar    1  UNL1       -0.3523
     45 C          63.9251   83.4191   12.4598 C.ar    1  UNL1        0.0563
     46 C          64.1155   82.5786   11.3639 C.ar    1  UNL1        0.0170
     47 C          63.8602   83.1008   10.0826 C.ar    1  UNL1        0.0015
     48 C          63.4224   84.4350    9.9274 C.ar    1  UNL1        0.0001
     49 C          63.2367   85.2598   11.0518 C.ar    1  UNL1        0.0012
     50 C          63.5022   84.7149   12.3083 C.ar    1  UNL1        0.0131
     51 H          64.3951   82.1998   14.1590 H       1  UNL1        0.1660
@<TRIPOS>BOND
     1     1     2    2
     2     2     3   am
     3     3    30    1
     4    30    41    1
     5    41    42    1
     6    42    43   ar
     7    43    44   ar
     8    44    45   ar
     9    45    46   ar
    10    46    47   ar
    11    47    48   ar
    12    48    49   ar
    13    49    50   ar
    14    30    31    1
    15    31    32    2
    16    31    33   am
    17    33    35    1
    18    35    36   ar
    19    36    37   ar
    20    37    38   ar
    21    38    39   ar
    22    39    40   ar
    23     2     5    1
    24     5     6   ar
    25     6     7   ar
    26     7     8   ar
    27     8    12    1
    28    12    13    1
    29    13    14    1
    30    14    15    1
    31    15    18    1
    32    18    19   ar
    33    19    20   ar
    34    20    21    1
    35    20    22   ar
    36    22    26    1
    37    26    27    1
    38    26    28    1
    39    26    29    1
    40    22    23   ar
    41    23    24   ar
    42    15    16    1
    43    16    17    1
    44     8     9   ar
    45     9    10   ar
    46    10    11    1
    47    50    42   ar
    48    40    35   ar
    49    10     5   ar
    50    50    45   ar
    51    17    12    1
    52    24    18   ar
    53     3     4    1
    54    44    51    1
    55    33    34    1
    56    21    25    1
@<TRIPOS>MOLECULE
*****
 51 56 0 0 0
SMALL
GASTEIGER

@<TRIPOS>ATOM
      1 O          58.5513   82.8046   11.7292 O.2     1  UNL1       -0.2701
      2 C          59.6529   82.9898   11.1425 C.2     1  UNL1        0.2483
      3 N          60.0075   82.1706   10.0176 N.am    1  UNL1       -0.2945
      4 H          60.7618   82.5017    9.3740 H       1  UNL1        0.1501
      5 C          60.5480   84.0742   11.6052 C.ar    1  UNL1        0.0808
      6 C          60.7854   85.1807   10.7723 C.ar    1  UNL1        0.0080
      7 C          61.6289   86.2144   11.1868 C.ar    1  UNL1        0.0148
      8 C          62.2461   86.1657   12.4465 C.ar    1  UNL1        0.0502
      9 C          61.9956   85.0720   13.2881 C.ar    1  UNL1        0.0443
     10 C          61.1522   84.0351   12.8771 C.ar    1  UNL1        0.1457
     11 F          60.8901   83.0262   13.7456 F       1  UNL1       -0.2040
     12 N          63.1138   87.2294   12.8821 N.pl3   1  UNL1       -0.3040
     13 C          63.2582   88.4512   12.0830 C.3     1  UNL1        0.1123
     14 C          63.3600   89.6746   12.9981 C.3     1  UNL1        0.1136
     15 N          64.3223   89.4291   14.0821 N.pl3   1  UNL1       -0.2897
     16 C          64.1751   88.1967   14.8674 C.3     1  UNL1        0.1136
     17 C          64.1011   86.9863   13.9391 C.3     1  UNL1        0.1123
     18 C          65.1972   90.4735   14.5547 C.ar    1  UNL1        0.1348
     19 C          64.8254   91.3124   15.6154 C.ar    1  UNL1        0.0708
     20 C          65.6950   92.3146   16.0540 C.ar    1  UNL1        0.1418
     21 O          65.2789   93.1228   17.1149 O.3     1  UNL1       -0.5054
     22 C          66.9520   92.4782   15.4253 C.ar    1  UNL1        0.1242
     23 C          67.2843   91.6059   14.3726 C.ar    1  UNL1        0.1072
     24 N          66.4144   90.6430   13.9729 N.ar    1  UNL1       -0.2290
     25 H          65.8406   93.8692   17.5014 H       1  UNL1        0.2922
     26 C          67.9229   93.5518   15.8675 C.3     1  UNL1        0.4228
     27 F          69.2366   93.1877   15.6258 F       1  UNL1       -0.1657
     28 F          67.6670   94.7232   15.1778 F       1  UNL1       -0.1657
     29 F          67.7804   93.7771   17.2247 F       1  UNL1       -0.1657
     30 C          59.2122   81.0023    9.6267 C.3     1  UNL1        0.1535
     31 C          58.6836   80.3092   10.8522 C.2     1  UNL1        0.2443
     32 O          57.5557   79.7455   10.8113 O.2     1  UNL1       -0.2730
     33 N          59.5015   80.2158   12.0290 N.am    1  UNL1       -0.2825
     34 H          60.5268   80.3907   11.9244 H       1  UNL1        0.1549
     35 C          59.0145   79.8004   13.3164 C.ar    1  UNL1        0.0535
     36 C          58.4452   80.7494   14.1767 C.ar    1  UNL1        0.0353
     37 C          57.9493   80.3471   15.4192 C.ar    1  UNL1        0.1002
     38 N          58.0042   79.0391   15.7844 N.ar    1  UNL1       -0.2422
     39 C          58.5325   78.0928   14.9640 C.ar    1  UNL1        0.1002
     40 C          59.0405   78.4525   13.7133 C.ar    1  UNL1        0.0353
     41 C          58.0466   81.4156    8.7130 C.3     1  UNL1        0.0569
     42 C          57.9827   82.9072    8.5568 C.ar    1  UNL1       -0.0017
     43 C          56.9835   83.7497    9.0346 C.ar    1  UNL1        0.0681
     44 N          57.2944   85.0415    8.7814 N.ar    1  UNL1       -0.3523
     45 C          58.4847   85.0217    8.1566 C.ar    1  UNL1        0.0563
     46 C          59.2249   86.1168    7.7131 C.ar    1  UNL1        0.0170
     47 C          60.4649   85.8662    7.0973 C.ar    1  UNL1        0.0015
     48 C          60.9333   84.5422    6.9432 C.ar    1  UNL1        0.0001
     49 C          60.1656   83.4565    7.4026 C.ar    1  UNL1        0.0012
     50 C          58.9388   83.7367    8.0047 C.ar    1  UNL1        0.0131
     51 H          56.7290   85.8818    9.0358 H       1  UNL1        0.1660
@<TRIPOS>BOND
     1     1     2    2
     2     2     3   am
     3     3    30    1
     4    30    41    1
     5    41    42    1
     6    42    43   ar
     7    43    44   ar
     8    44    45   ar
     9    45    46   ar
    10    46    47   ar
    11    47    48   ar
    12    48    49   ar
    13    49    50   ar
    14    30    31    1
    15    31    32    2
    16    31    33   am
    17    33    35    1
    18    35    36   ar
    19    36    37   ar
    20    37    38   ar
    21    38    39   ar
    22    39    40   ar
    23     2     5    1
    24     5     6   ar
    25     6     7   ar
    26     7     8   ar
    27     8    12    1
    28    12    13    1
    29    13    14    1
    30    14    15    1
    31    15    18    1
    32    18    19   ar
    33    19    20   ar
    34    20    21    1
    35    20    22   ar
    36    22    26    1
    37    26    27    1
    38    26    28    1
    39    26    29    1
    40    22    23   ar
    41    23    24   ar
    42    15    16    1
    43    16    17    1
    44     8     9   ar
    45     9    10   ar
    46    10    11    1
    47    50    42   ar
    48    40    35   ar
    49    10     5   ar
    50    50    45   ar
    51    17    12    1
    52    24    18   ar
    53     3     4    1
    54    44    51    1
    55    33    34    1
    56    21    25    1
@<TRIPOS>MOLECULE
*****
 51 56 0 0 0
SMALL
GASTEIGER

@<TRIPOS>ATOM
      1 O          58.5964   87.1002   12.0895 O.2     1  UNL1       -0.2701
      2 C          59.6754   87.5761   11.6408 C.2     1  UNL1        0.2483
      3 N          60.8729   87.4928   12.4289 N.am    1  UNL1       -0.2945
      4 H          61.7955   87.6222   11.9547 H       1  UNL1        0.1501
      5 C          59.6945   88.1837   10.2911 C.ar    1  UNL1        0.0808
      6 C          60.1522   89.5024   10.1303 C.ar    1  UNL1        0.0080
      7 C          60.1761   90.0973    8.8664 C.ar    1  UNL1        0.0148
      8 C          59.7496   89.3822    7.7365 C.ar    1  UNL1        0.0502
      9 C          59.3106   88.0590    7.8910 C.ar    1  UNL1        0.0443
     10 C          59.2848   87.4598    9.1542 C.ar    1  UNL1        0.1457
     11 F          58.9099   86.1594    9.2502 F       1  UNL1       -0.2040
     12 N          59.7750   89.9876    6.4300 N.pl3   1  UNL1       -0.3040
     13 C          58.5332   90.4318    5.7876 C.3     1  UNL1        0.1123
     14 C          58.7669   91.7420    5.0305 C.3     1  UNL1        0.1136
     15 N          59.9858   91.6550    4.2131 N.pl3   1  UNL1       -0.2897
     16 C          61.2202   91.1974    4.8643 C.3     1  UNL1        0.1136
     17 C          60.9737   89.8776    5.5921 C.3     1  UNL1        0.1123
     18 C          60.0534   92.2610    2.9064 C.ar    1  UNL1        0.1348
     19 C          61.2640   92.3456    2.2031 C.ar    1  UNL1        0.0708
     20 C          61.2990   92.9361    0.9369 C.ar    1  UNL1        0.1418
     21 O          62.5288   92.9946    0.2768 O.3     1  UNL1       -0.5054
     22 C          60.1086   93.4461    0.3669 C.ar    1  UNL1        0.1242
     23 C          58.9173   93.3289    1.1062 C.ar    1  UNL1        0.1072
     24 N          58.9207   92.7488    2.3339 N.ar    1  UNL1       -0.2290
     25 H          62.6504   93.3991   -0.6418 H       1  UNL1        0.2922
     26 C          60.1022   94.0950   -1.0004 C.3     1  UNL1        0.4228
     27 F          61.2201   94.8875   -1.1984 F       1  UNL1       -0.1657
     28 F          60.0885   93.1177   -1.9792 F       1  UNL1       -0.1657
     29 F          58.9796   94.8923   -1.1315 F       1  UNL1       -0.1657
     30 C          60.8562   87.0281   13.8196 C.3     1  UNL1        0.1535
     31 C          61.5504   85.6981   13.9236 C.2     1  UNL1        0.2443
     32 O          61.7150   85.1682   15.0567 O.2     1  UNL1       -0.2730
     33 N          61.9395   84.9999   12.7304 N.am    1  UNL1       -0.2825
     34 H          61.5017   85.2958   11.8285 H       1  UNL1        0.1549
     35 C          62.8144   83.8590   12.7148 C.ar    1  UNL1        0.0535
     36 C          63.7740   83.7405   11.7001 C.ar    1  UNL1        0.0353
     37 C          64.6419   82.6459   11.6933 C.ar    1  UNL1        0.1002
     38 N          64.5663   81.7095   12.6756 N.ar    1  UNL1       -0.2422
     39 C          63.6596   81.8071   13.6835 C.ar    1  UNL1        0.1002
     40 C          62.7722   82.8853   13.7273 C.ar    1  UNL1        0.0353
     41 C          61.5370   88.0497   14.7454 C.3     1  UNL1        0.0569
     42 C          62.5509   88.8668   13.9986 C.ar    1  UNL1       -0.0017
     43 C          62.8147   88.8161   12.6332 C.ar    1  UNL1        0.0681
     44 N          63.7330   89.7499   12.2950 N.ar    1  UNL1       -0.3523
     45 C          64.0436   90.3949   13.4330 C.ar    1  UNL1        0.0563
     46 C          64.9342   91.4564   13.5869 C.ar    1  UNL1        0.0170
     47 C          65.0941   91.9989   14.8752 C.ar    1  UNL1        0.0015
     48 C          64.3665   91.4762   15.9676 C.ar    1  UNL1        0.0001
     49 C          63.4729   90.4056   15.7821 C.ar    1  UNL1        0.0012
     50 C          63.3393   89.8864   14.4942 C.ar    1  UNL1        0.0131
     51 H          64.1096   89.9387   11.3395 H       1  UNL1        0.1660
@<TRIPOS>BOND
     1     1     2    2
     2     2     3   am
     3     3    30    1
     4    30    41    1
     5    41    42    1
     6    42    43   ar
     7    43    44   ar
     8    44    45   ar
     9    45    46   ar
    10    46    47   ar
    11    47    48   ar
    12    48    49   ar
    13    49    50   ar
    14    30    31    1
    15    31    32    2
    16    31    33   am
    17    33    35    1
    18    35    36   ar
    19    36    37   ar
    20    37    38   ar
    21    38    39   ar
    22    39    40   ar
    23     2     5    1
    24     5     6   ar
    25     6     7   ar
    26     7     8   ar
    27     8    12    1
    28    12    13    1
    29    13    14    1
    30    14    15    1
    31    15    18    1
    32    18    19   ar
    33    19    20   ar
    34    20    21    1
    35    20    22   ar
    36    22    26    1
    37    26    27    1
    38    26    28    1
    39    26    29    1
    40    22    23   ar
    41    23    24   ar
    42    15    16    1
    43    16    17    1
    44     8     9   ar
    45     9    10   ar
    46    10    11    1
    47    50    42   ar
    48    40    35   ar
    49    10     5   ar
    50    50    45   ar
    51    17    12    1
    52    24    18   ar
    53     3     4    1
    54    44    51    1
    55    33    34    1
    56    21    25    1
@<TRIPOS>MOLECULE
*****
 51 56 0 0 0
SMALL
GASTEIGER

@<TRIPOS>ATOM
      1 O          59.6392   84.7513   13.9430 O.2     1  UNL1       -0.2701
      2 C          60.5721   84.6572   13.0986 C.2     1  UNL1        0.2483
      3 N          61.5997   83.6705   13.2792 N.am    1  UNL1       -0.2945
      4 H          62.1920   83.4072   12.4591 H       1  UNL1        0.1501
      5 C          60.5718   85.5464   11.9152 C.ar    1  UNL1        0.0808
      6 C          59.3897   85.7157   11.1748 C.ar    1  UNL1        0.0080
      7 C          59.3669   86.5475   10.0525 C.ar    1  UNL1        0.0148
      8 C          60.5246   87.2329    9.6527 C.ar    1  UNL1        0.0502
      9 C          61.7011   87.0813   10.4012 C.ar    1  UNL1        0.0443
     10 C          61.7284   86.2496   11.5250 C.ar    1  UNL1        0.1457
     11 F          62.8701   86.1786   12.2546 F       1  UNL1       -0.2040
     12 N          60.5077   88.0950    8.4991 N.pl3   1  UNL1       -0.3040
     13 C          59.9352   87.6339    7.2295 C.3     1  UNL1        0.1123
     14 C          59.1793   88.7748    6.5430 C.3     1  UNL1        0.1136
     15 N          59.9886   90.0022    6.5415 N.pl3   1  UNL1       -0.2897
     16 C          60.5665   90.4474    7.8162 C.3     1  UNL1        0.1136
     17 C          61.3373   89.3042    8.4729 C.3     1  UNL1        0.1123
     18 C          59.9860   90.8970    5.4106 C.ar    1  UNL1        0.1348
     19 C          61.1702   91.2166    4.7305 C.ar    1  UNL1        0.0708
     20 C          61.1370   92.0849    3.6359 C.ar    1  UNL1        0.1418
     21 O          62.3431   92.3705    2.9913 O.3     1  UNL1       -0.5054
     22 C          59.9044   92.6382    3.2157 C.ar    1  UNL1        0.1242
     23 C          58.7423   92.2797    3.9231 C.ar    1  UNL1        0.1072
     24 N          58.8121   91.4328    4.9822 N.ar    1  UNL1       -0.2290
     25 H          62.4164   92.9832    2.1904 H       1  UNL1        0.2922
     26 C          59.8238   93.5840    2.0368 C.3     1  UNL1        0.4228
     27 F          60.8889   93.4148    1.1686 F       1  UNL1       -0.1657
     28 F          58.6548   93.3533    1.3343 F       1  UNL1       -0.1657
     29 F          59.8385   94.8915    2.4879 F       1  UNL1       -0.1657
     30 C          61.7056   82.8758   14.5071 C.3     1  UNL1        0.1535
     31 C          61.1575   81.4952   14.2726 C.2     1  UNL1        0.2443
     32 O          61.8429   80.4886   14.6025 O.2     1  UNL1       -0.2730
     33 N          59.8259   81.3325   13.7601 N.am    1  UNL1       -0.2825
     34 H          59.1802   82.1530   13.8131 H       1  UNL1        0.1549
     35 C          59.2978   80.0872   13.2726 C.ar    1  UNL1        0.0535
     36 C          59.0385   79.9377   11.9033 C.ar    1  UNL1        0.0353
     37 C          58.5473   78.7221   11.4211 C.ar    1  UNL1        0.1002
     38 N          58.3378   77.6848   12.2739 N.ar    1  UNL1       -0.2422
     39 C          58.5982   77.7929   13.6035 C.ar    1  UNL1        0.1002
     40 C          59.0893   78.9913   14.1274 C.ar    1  UNL1        0.0353
     41 C          63.1671   82.7880   14.9768 C.3     1  UNL1        0.0569
     42 C          63.8037   84.1467   15.0247 C.ar    1  UNL1       -0.0017
     43 C          64.9734   84.5382   14.3806 C.ar    1  UNL1        0.0681
     44 N          65.2040   85.8559   14.5808 N.ar    1  UNL1       -0.3523
     45 C          64.1856   86.3006   15.3375 C.ar    1  UNL1        0.0563
     46 C          63.9733   87.6026   15.7886 C.ar    1  UNL1        0.0170
     47 C          62.8218   87.8525   16.5575 C.ar    1  UNL1        0.0015
     48 C          61.9171   86.8082   16.8522 C.ar    1  UNL1        0.0001
     49 C          62.1559   85.5041   16.3817 C.ar    1  UNL1        0.0012
     50 C          63.3082   85.2868   15.6258 C.ar    1  UNL1        0.0131
     51 H          66.0039   86.4141   14.2079 H       1  UNL1        0.1660
@<TRIPOS>BOND
     1     1     2    2
     2     2     3   am
     3     3    30    1
     4    30    41    1
     5    41    42    1
     6    42    43   ar
     7    43    44   ar
     8    44    45   ar
     9    45    46   ar
    10    46    47   ar
    11    47    48   ar
    12    48    49   ar
    13    49    50   ar
    14    30    31    1
    15    31    32    2
    16    31    33   am
    17    33    35    1
    18    35    36   ar
    19    36    37   ar
    20    37    38   ar
    21    38    39   ar
    22    39    40   ar
    23     2     5    1
    24     5     6   ar
    25     6     7   ar
    26     7     8   ar
    27     8    12    1
    28    12    13    1
    29    13    14    1
    30    14    15    1
    31    15    18    1
    32    18    19   ar
    33    19    20   ar
    34    20    21    1
    35    20    22   ar
    36    22    26    1
    37    26    27    1
    38    26    28    1
    39    26    29    1
    40    22    23   ar
    41    23    24   ar
    42    15    16    1
    43    16    17    1
    44     8     9   ar
    45     9    10   ar
    46    10    11    1
    47    50    42   ar
    48    40    35   ar
    49    10     5   ar
    50    50    45   ar
    51    17    12    1
    52    24    18   ar
    53     3     4    1
    54    44    51    1
    55    33    34    1
    56    21    25    1
