@<TRIPOS>MOLECULE
*****
 43 49 0 0 0
SMALL
GASTEIGER

@<TRIPOS>ATOM
      1 C         -10.0943   -6.0624   31.2613 C.3     1  UNL1        0.1158
      2 N          -9.0000   -5.5705   31.8981 N.3     1  UNL1       -0.2851
      3 C          -8.1987   -6.6395   32.0090 C.3     1  UNL1        0.0910
      4 C          -6.9562   -6.6884   32.6200 C.3     1  UNL1        0.1018
      5 C          -6.3067   -7.9300   32.6607 C.3     1  UNL1        0.3136
      6 N          -6.8905   -9.0559   32.1214 N.am    1  UNL1       -0.1293
      7 C          -8.1317   -8.9859   31.5228 C.2     1  UNL1        0.4047
      8 O          -8.6754  -10.0236   31.0607 O.2     1  UNL1       -0.2174
      9 C          -8.7784   -7.7397   31.4569 C.3     1  UNL1        0.2038
     10 N          -9.9808   -7.3902   30.9405 N.3     1  UNL1       -0.2473
     11 H          -9.2469   -5.2025   32.8168 H       1  UNL1        0.1244
     12 C         -10.9607   -8.2657   30.2624 C.3     1  UNL1        0.0817
     13 C         -10.3922   -8.8621   28.9554 C.3     1  UNL1        0.0252
     14 C         -10.6227  -10.3855   29.0134 C.3     1  UNL1        0.0278
     15 C         -11.1553  -10.6204   30.3770 C.ar    1  UNL1       -0.0248
     16 C         -11.4659  -11.8553   30.9483 C.ar    1  UNL1       -0.0045
     17 C         -11.9907  -11.8905   32.2563 C.ar    1  UNL1       -0.0002
     18 C         -12.1774  -10.6828   32.9642 C.ar    1  UNL1       -0.0003
     19 C         -11.8596   -9.4547   32.3670 C.ar    1  UNL1       -0.0033
     20 C         -11.3330   -9.4522   31.0733 C.ar    1  UNL1       -0.0117
     21 C         -12.3156  -13.1854   32.8955 C.ar    1  UNL1        0.0030
     22 C         -13.4516  -13.8811   32.4465 C.ar    1  UNL1        0.0001
     23 C         -13.8503  -15.0663   33.0649 C.ar    1  UNL1        0.0000
     24 C         -13.1213  -15.5726   34.1391 C.ar    1  UNL1        0.0001
     25 C         -11.9827  -14.9036   34.5913 C.ar    1  UNL1        0.0031
     26 C         -11.5561  -13.7126   33.9748 C.ar    1  UNL1        0.0371
     27 C         -10.2961  -13.0815   34.4384 C.ar    1  UNL1        0.1806
     28 N          -9.5811  -12.1811   33.7360 N.ar    1  UNL1       -0.1084
     29 N          -8.5297  -11.9069   34.4952 N.ar    1  UNL1       -0.0229
     30 N          -8.5865  -12.6099   35.6161 N.ar    1  UNL1       -0.0464
     31 N          -9.6776  -13.3535   35.6004 N.ar    1  UNL1       -0.2388
     32 H          -9.9771  -13.9993   36.3636 H       1  UNL1        0.1923
     33 C         -11.0286   -4.2760   29.7382 C.3     1  UNL1        0.0029
     34 C         -11.2846   -5.1930   30.9324 C.3     1  UNL1        0.0326
     35 C          -6.1847  -10.3446   32.2312 C.3     1  UNL1        0.3404
     36 C          -5.2791  -10.5577   31.0359 C.ar    1  UNL1        0.0640
     37 C          -5.6982  -10.0763   29.7823 C.ar    1  UNL1        0.0031
     38 C          -4.8903  -10.2296   28.6536 C.ar    1  UNL1       -0.0001
     39 C          -3.6542  -10.8664   28.7594 C.ar    1  UNL1        0.0007
     40 C          -3.2226  -11.3552   29.9937 C.ar    1  UNL1        0.0102
     41 C          -4.0238  -11.2084   31.1354 C.ar    1  UNL1        0.0710
     42 C          -3.5366  -11.7426   32.3845 C.1     1  UNL1        0.1003
     43 N          -3.1451  -12.1701   33.3861 N.1     1  UNL1       -0.1908
@<TRIPOS>BOND
     1    33    34    1
     2    34     1    1
     3     1     2    1
     4     2     3    1
     5     3     4    1
     6     4     5    1
     7     5     6    1
     8     6    35    1
     9    35    36    1
    10    36    37   ar
    11    37    38   ar
    12    38    39   ar
    13    39    40   ar
    14    40    41   ar
    15    41    42    1
    16    42    43    3
    17     6     7    1
    18     7     8    2
    19     7     9    1
    20     9    10    1
    21    10    12    1
    22    12    13    1
    23    13    14    1
    24    14    15    1
    25    15    16   ar
    26    16    17   ar
    27    17    21    1
    28    21    22   ar
    29    22    23   ar
    30    23    24   ar
    31    24    25   ar
    32    25    26   ar
    33    26    27    1
    34    27    28   ar
    35    28    29   ar
    36    29    30   ar
    37    30    31   ar
    38    17    18   ar
    39    18    19   ar
    40    19    20   ar
    41    10     1    1
    42    20    12    1
    43     9     3    1
    44    20    15   ar
    45    41    36   ar
    46    26    21   ar
    47    31    27   ar
    48    31    32    1
    49     2    11    1
@<TRIPOS>MOLECULE
*****
 43 49 0 0 0
SMALL
GASTEIGER

@<TRIPOS>ATOM
      1 C         -11.2696   -6.7679   30.8799 C.3     1  UNL1        0.1158
      2 N         -10.5322   -5.7192   31.3289 N.3     1  UNL1       -0.2851
      3 C          -9.2918   -6.0111   30.9126 C.3     1  UNL1        0.0910
      4 C          -8.1419   -5.2730   31.1415 C.3     1  UNL1        0.1018
      5 C          -6.9356   -5.7903   30.6491 C.3     1  UNL1        0.3136
      6 N          -6.8999   -6.9910   29.9734 N.am    1  UNL1       -0.1293
      7 C          -8.0565   -7.7129   29.7617 C.2     1  UNL1        0.4047
      8 O          -8.0143   -8.8251   29.1726 O.2     1  UNL1       -0.2174
      9 C          -9.2732   -7.1888   30.2315 C.3     1  UNL1        0.2038
     10 N         -10.5343   -7.6789   30.1672 N.3     1  UNL1       -0.2473
     11 H         -10.5702   -5.6551   32.3461 H       1  UNL1        0.1244
     12 C         -10.9812   -8.9407   29.5387 C.3     1  UNL1        0.0817
     13 C          -9.8542   -9.6052   28.7168 C.3     1  UNL1        0.0252
     14 C          -9.7606  -11.0733   29.1785 C.3     1  UNL1        0.0278
     15 C         -10.6997  -11.1546   30.3229 C.ar    1  UNL1       -0.0248
     16 C         -10.9309  -12.2674   31.1329 C.ar    1  UNL1       -0.0045
     17 C         -11.8846  -12.1736   32.1670 C.ar    1  UNL1       -0.0002
     18 C         -12.5733  -10.9576   32.3706 C.ar    1  UNL1       -0.0003
     19 C         -12.3246   -9.8546   31.5415 C.ar    1  UNL1       -0.0033
     20 C         -11.3676   -9.9749   30.5312 C.ar    1  UNL1       -0.0117
     21 C         -12.1412  -13.3313   33.0528 C.ar    1  UNL1        0.0030
     22 C         -13.2586  -14.1401   32.7817 C.ar    1  UNL1        0.0001
     23 C         -13.5939  -15.1969   33.6284 C.ar    1  UNL1        0.0000
     24 C         -12.8193  -15.4604   34.7563 C.ar    1  UNL1        0.0001
     25 C         -11.6981  -14.6771   35.0355 C.ar    1  UNL1        0.0031
     26 C         -11.3351  -13.6133   34.1887 C.ar    1  UNL1        0.0371
     27 C         -10.0909  -12.8607   34.4826 C.ar    1  UNL1        0.1806
     28 N          -9.6224  -11.8304   33.7517 N.ar    1  UNL1       -0.1084
     29 N          -8.4877  -11.4779   34.3392 N.ar    1  UNL1       -0.0229
     30 N          -8.2591  -12.2582   35.3845 N.ar    1  UNL1       -0.0464
     31 N          -9.2438  -13.1315   35.4905 N.ar    1  UNL1       -0.2388
     32 H          -9.3241  -13.8613   36.2323 H       1  UNL1        0.1923
     33 C         -13.1412   -6.3845   32.5334 C.3     1  UNL1        0.0029
     34 C         -12.7544   -6.8680   31.1373 C.3     1  UNL1        0.0326
     35 C          -5.5993   -7.5112   29.5164 C.3     1  UNL1        0.3404
     36 C          -5.3376   -8.8807   30.1083 C.ar    1  UNL1        0.0640
     37 C          -5.3486   -9.0200   31.5081 C.ar    1  UNL1        0.0031
     38 C          -5.1332  -10.2654   32.1020 C.ar    1  UNL1       -0.0001
     39 C          -4.9022  -11.3884   31.3082 C.ar    1  UNL1        0.0007
     40 C          -4.8826  -11.2698   29.9174 C.ar    1  UNL1        0.0102
     41 C          -5.0973  -10.0253   29.3075 C.ar    1  UNL1        0.0710
     42 C          -5.0544   -9.9548   27.8666 C.1     1  UNL1        0.1003
     43 N          -5.0210   -9.8975   26.7113 N.1     1  UNL1       -0.1908
@<TRIPOS>BOND
     1    33    34    1
     2    34     1    1
     3     1     2    1
     4     2     3    1
     5     3     4    1
     6     4     5    1
     7     5     6    1
     8     6    35    1
     9    35    36    1
    10    36    37   ar
    11    37    38   ar
    12    38    39   ar
    13    39    40   ar
    14    40    41   ar
    15    41    42    1
    16    42    43    3
    17     6     7    1
    18     7     8    2
    19     7     9    1
    20     9    10    1
    21    10    12    1
    22    12    13    1
    23    13    14    1
    24    14    15    1
    25    15    16   ar
    26    16    17   ar
    27    17    21    1
    28    21    22   ar
    29    22    23   ar
    30    23    24   ar
    31    24    25   ar
    32    25    26   ar
    33    26    27    1
    34    27    28   ar
    35    28    29   ar
    36    29    30   ar
    37    30    31   ar
    38    17    18   ar
    39    18    19   ar
    40    19    20   ar
    41    10     1    1
    42    20    12    1
    43     9     3    1
    44    20    15   ar
    45    41    36   ar
    46    26    21   ar
    47    31    27   ar
    48    31    32    1
    49     2    11    1
@<TRIPOS>MOLECULE
*****
 43 49 0 0 0
SMALL
GASTEIGER

@<TRIPOS>ATOM
      1 C         -11.3251   -6.7746   30.8233 C.3     1  UNL1        0.1158
      2 N         -10.5862   -5.7279   31.2744 N.3     1  UNL1       -0.2851
      3 C          -9.3396   -6.0407   30.8932 C.3     1  UNL1        0.0910
      4 C          -8.1868   -5.3126   31.1391 C.3     1  UNL1        0.1018
      5 C          -6.9752   -5.8515   30.6845 C.3     1  UNL1        0.3136
      6 N          -6.9375   -7.0628   30.0280 N.am    1  UNL1       -0.1293
      7 C          -8.0973   -7.7743   29.7989 C.2     1  UNL1        0.4047
      8 O          -8.0540   -8.8959   29.2279 O.2     1  UNL1       -0.2174
      9 C          -9.3186   -7.2288   30.2307 C.3     1  UNL1        0.2038
     10 N         -10.5836   -7.7051   30.1428 N.3     1  UNL1       -0.2473
     11 H         -10.6483   -5.6477   32.2893 H       1  UNL1        0.1244
     12 C         -11.0302   -8.9711   29.5226 C.3     1  UNL1        0.0817
     13 C          -9.9046   -9.6382   28.7009 C.3     1  UNL1        0.0252
     14 C          -9.8070  -11.1036   29.1704 C.3     1  UNL1        0.0278
     15 C         -10.7425  -11.1801   30.3181 C.ar    1  UNL1       -0.0248
     16 C         -10.9693  -12.2888   31.1350 C.ar    1  UNL1       -0.0045
     17 C         -11.9200  -12.1910   32.1714 C.ar    1  UNL1       -0.0002
     18 C         -12.6102  -10.9750   32.3704 C.ar    1  UNL1       -0.0003
     19 C         -12.3659   -9.8762   31.5344 C.ar    1  UNL1       -0.0033
     20 C         -11.4118  -10.0004   30.5219 C.ar    1  UNL1       -0.0117
     21 C         -12.1719  -13.3442   33.0643 C.ar    1  UNL1        0.0030
     22 C         -13.2907  -14.1544   32.8031 C.ar    1  UNL1        0.0001
     23 C         -13.6215  -15.2069   33.6569 C.ar    1  UNL1        0.0000
     24 C         -12.8410  -15.4647   34.7820 C.ar    1  UNL1        0.0001
     25 C         -11.7185  -14.6799   35.0515 C.ar    1  UNL1        0.0031
     26 C         -11.3600  -13.6204   34.1975 C.ar    1  UNL1        0.0371
     27 C         -10.1143  -12.8663   34.4811 C.ar    1  UNL1        0.1806
     28 N          -9.6452  -11.8453   33.7377 N.ar    1  UNL1       -0.1084
     29 N          -8.5092  -11.4877   34.3197 N.ar    1  UNL1       -0.0229
     30 N          -8.2806  -12.2559   35.3739 N.ar    1  UNL1       -0.0464
     31 N          -9.2665  -13.1265   35.4912 N.ar    1  UNL1       -0.2388
     32 H          -9.3470  -13.8475   36.2416 H       1  UNL1        0.1923
     33 C         -13.2189   -6.4653   32.4669 C.3     1  UNL1        0.0029
     34 C         -12.8168   -6.8534   31.0455 C.3     1  UNL1        0.0326
     35 C          -5.6325   -7.6051   29.6111 C.3     1  UNL1        0.3404
     36 C          -5.4159   -8.9821   30.2039 C.ar    1  UNL1        0.0640
     37 C          -5.4506  -10.0956   29.3450 C.ar    1  UNL1        0.0031
     38 C          -5.2364  -11.3839   29.8393 C.ar    1  UNL1       -0.0001
     39 C          -4.9864  -11.5796   31.1971 C.ar    1  UNL1        0.0007
     40 C          -4.9527  -10.4880   32.0665 C.ar    1  UNL1        0.0102
     41 C          -5.1662   -9.1886   31.5838 C.ar    1  UNL1        0.0710
     42 C          -5.1331   -8.0963   32.5265 C.1     1  UNL1        0.1003
     43 N          -5.1055   -7.2201   33.2820 N.1     1  UNL1       -0.1908
@<TRIPOS>BOND
     1    33    34    1
     2    34     1    1
     3     1     2    1
     4     2     3    1
     5     3     4    1
     6     4     5    1
     7     5     6    1
     8     6    35    1
     9    35    36    1
    10    36    37   ar
    11    37    38   ar
    12    38    39   ar
    13    39    40   ar
    14    40    41   ar
    15    41    42    1
    16    42    43    3
    17     6     7    1
    18     7     8    2
    19     7     9    1
    20     9    10    1
    21    10    12    1
    22    12    13    1
    23    13    14    1
    24    14    15    1
    25    15    16   ar
    26    16    17   ar
    27    17    21    1
    28    21    22   ar
    29    22    23   ar
    30    23    24   ar
    31    24    25   ar
    32    25    26   ar
    33    26    27    1
    34    27    28   ar
    35    28    29   ar
    36    29    30   ar
    37    30    31   ar
    38    17    18   ar
    39    18    19   ar
    40    19    20   ar
    41    10     1    1
    42    20    12    1
    43     9     3    1
    44    20    15   ar
    45    41    36   ar
    46    26    21   ar
    47    31    27   ar
    48    31    32    1
    49     2    11    1
