@<TRIPOS>MOLECULE
*****
 35 39 0 0 0
SMALL
GASTEIGER

@<TRIPOS>ATOM
      1 C          49.2746   12.2569  -23.7072 C.2     1  UNL1        0.2498
      2 O          49.0351   11.5100  -22.7195 O.2     1  UNL1       -0.2699
      3 N          48.3797   13.3523  -23.9958 N.am    1  UNL1       -0.2759
      4 C          48.8561   14.5965  -24.6143 C.3     1  UNL1        0.0954
      5 C          47.9781   14.9791  -25.8209 C.3     1  UNL1        0.0399
      6 C          46.4779   14.5576  -25.6820 C.3     1  UNL1        0.0645
      7 C          46.1163   14.3687  -24.1852 C.3     1  UNL1        0.0399
      8 C          46.9907   13.2904  -23.5182 C.3     1  UNL1        0.0954
      9 C          46.2113   13.2104  -26.4499 C.3     1  UNL1        0.0477
     10 C          46.1431   13.4358  -27.9288 C.ar    1  UNL1        0.0220
     11 C          46.1885   12.5397  -28.9716 C.ar    1  UNL1        0.0923
     12 N          45.8488   13.2024  -30.1078 N.ar    1  UNL1       -0.2534
     13 N          45.5394   14.4611  -29.8075 N.ar    1  UNL1       -0.1651
     14 C          45.7250   14.6042  -28.4843 C.ar    1  UNL1        0.1515
     15 C          45.4079   15.7571  -27.6552 C.2     1  UNL1        0.2650
     16 O          44.9221   16.8075  -28.1514 O.2     1  UNL1       -0.2684
     17 N          45.6369   15.6438  -26.2414 N.am    1  UNL1       -0.3023
     18 H          45.3560   16.4448  -25.6310 H       1  UNL1        0.1497
     19 C          51.1218   10.0132  -27.7032 C.ar    1  UNL1        0.2248
     20 N          52.1834    9.7339  -28.5110 N.ar    1  UNL1       -0.2101
     21 C          53.4326   10.2005  -28.2503 C.ar    1  UNL1        0.1021
     22 C          53.6633   11.0032  -27.1328 C.ar    1  UNL1        0.0209
     23 C          52.5983   11.3145  -26.2779 C.ar    1  UNL1        0.0069
     24 C          52.7951   12.1359  -25.1597 C.ar    1  UNL1        0.0117
     25 C          51.7248   12.4614  -24.3177 C.ar    1  UNL1        0.0620
     26 CL         52.0375   13.5629  -22.9792 Cl      1  UNL1       -0.0821
     27 C          50.4350   11.9479  -24.5812 C.ar    1  UNL1        0.0643
     28 C          50.2495   11.1037  -25.6891 C.ar    1  UNL1        0.0100
     29 C          51.3119   10.8032  -26.5538 C.ar    1  UNL1        0.0534
     30 C          49.6304    8.3304  -28.7494 C.3     1  UNL1        0.2542
     31 O          49.8454    9.5342  -28.0237 O.3     1  UNL1       -0.4561
     32 C          45.6492   12.6292  -31.4549 C.3     1  UNL1        0.0867
     33 C          46.0514   13.6262  -32.5648 C.3     1  UNL1        0.0244
     34 C          46.5056   11.3582  -31.5855 C.3     1  UNL1        0.0244
     35 C          44.1621   12.2672  -31.6396 C.3     1  UNL1        0.0244
@<TRIPOS>BOND
     1    30    31    1
     2    31    19    1
     3    19    20   ar
     4    20    21   ar
     5    21    22   ar
     6    22    23   ar
     7    23    24   ar
     8    24    25   ar
     9    25    26    1
    10    25    27   ar
    11    27     1    1
    12     1     2    2
    13     1     3   am
    14     3     4    1
    15     4     5    1
    16     5     6    1
    17     6     7    1
    18     7     8    1
    19     6     9    1
    20     9    10    1
    21    10    11   ar
    22    11    12   ar
    23    12    32    1
    24    32    33    1
    25    32    34    1
    26    32    35    1
    27    12    13   ar
    28    13    14   ar
    29    14    15    1
    30    15    16    2
    31    15    17   am
    32    27    28   ar
    33    28    29   ar
    34    29    19   ar
    35    29    23   ar
    36     8     3    1
    37    14    10   ar
    38    17     6    1
    39    17    18    1
@<TRIPOS>MOLECULE
*****
 35 39 0 0 0
SMALL
GASTEIGER

@<TRIPOS>ATOM
      1 C          49.2801   13.2536  -24.5852 C.2     1  UNL1        0.2498
      2 O          49.4870   12.6369  -25.6657 O.2     1  UNL1       -0.2699
      3 N          49.6407   12.6268  -23.3357 N.am    1  UNL1       -0.2759
      4 C          50.0690   13.4140  -22.1720 C.3     1  UNL1        0.0954
      5 C          49.2866   12.9982  -20.9118 C.3     1  UNL1        0.0399
      6 C          48.8790   11.4881  -20.8788 C.3     1  UNL1        0.0645
      7 C          49.8085   10.6673  -21.8111 C.3     1  UNL1        0.0399
      8 C          49.7363   11.1614  -23.2681 C.3     1  UNL1        0.0954
      9 C          47.3888   11.3099  -21.3510 C.3     1  UNL1        0.0477
     10 C          46.4290   11.7235  -20.2784 C.ar    1  UNL1        0.0220
     11 C          45.0783   11.9776  -20.3384 C.ar    1  UNL1        0.0923
     12 N          44.6153   12.0823  -19.0656 N.ar    1  UNL1       -0.2534
     13 N          45.6109   11.8486  -18.2144 N.ar    1  UNL1       -0.1651
     14 C          46.7141   11.6373  -18.9519 C.ar    1  UNL1        0.1515
     15 C          48.0314   11.2223  -18.4938 C.2     1  UNL1        0.2650
     16 O          48.2730   11.0400  -17.2715 O.2     1  UNL1       -0.2684
     17 N          49.0414   10.9937  -19.4898 N.am    1  UNL1       -0.3023
     18 H          49.9725   10.6377  -19.1747 H       1  UNL1        0.1497
     19 C          49.4938   18.1046  -25.4996 C.ar    1  UNL1        0.2248
     20 N          48.8820   19.3216  -25.5462 N.ar    1  UNL1       -0.2101
     21 C          47.5802   19.4902  -25.1956 C.ar    1  UNL1        0.1021
     22 C          46.8175   18.3979  -24.7815 C.ar    1  UNL1        0.0209
     23 C          47.4087   17.1295  -24.7209 C.ar    1  UNL1        0.0069
     24 C          46.6621   16.0102  -24.3293 C.ar    1  UNL1        0.0117
     25 C          47.2504   14.7403  -24.2883 C.ar    1  UNL1        0.0620
     26 CL         46.2251   13.3728  -23.8626 Cl      1  UNL1       -0.0821
     27 C          48.6127   14.5798  -24.6274 C.ar    1  UNL1        0.0643
     28 C          49.3627   15.7100  -24.9941 C.ar    1  UNL1        0.0100
     29 C          48.7681   16.9779  -25.0691 C.ar    1  UNL1        0.0534
     30 C          51.9244   18.3338  -25.0631 C.3     1  UNL1        0.2542
     31 O          50.8305   17.9706  -25.8958 O.3     1  UNL1       -0.4561
     32 C          43.2114   12.2364  -18.6315 C.3     1  UNL1        0.0867
     33 C          42.7518   11.0505  -17.7541 C.3     1  UNL1        0.0244
     34 C          43.0813   13.5396  -17.8249 C.3     1  UNL1        0.0244
     35 C          42.2992   12.3076  -19.8723 C.3     1  UNL1        0.0244
@<TRIPOS>BOND
     1    30    31    1
     2    31    19    1
     3    19    20   ar
     4    20    21   ar
     5    21    22   ar
     6    22    23   ar
     7    23    24   ar
     8    24    25   ar
     9    25    26    1
    10    25    27   ar
    11    27     1    1
    12     1     2    2
    13     1     3   am
    14     3     4    1
    15     4     5    1
    16     5     6    1
    17     6     7    1
    18     7     8    1
    19     6     9    1
    20     9    10    1
    21    10    11   ar
    22    11    12   ar
    23    12    32    1
    24    32    33    1
    25    32    34    1
    26    32    35    1
    27    12    13   ar
    28    13    14   ar
    29    14    15    1
    30    15    16    2
    31    15    17   am
    32    27    28   ar
    33    28    29   ar
    34    29    19   ar
    35    29    23   ar
    36     8     3    1
    37    14    10   ar
    38    17     6    1
    39    17    18    1
@<TRIPOS>MOLECULE
*****
 35 39 0 0 0
SMALL
GASTEIGER

@<TRIPOS>ATOM
      1 C          49.0023    8.3073  -27.8825 C.2     1  UNL1        0.2498
      2 O          48.5723    7.1458  -27.6445 O.2     1  UNL1       -0.2699
      3 N          50.1544    8.7937  -27.1614 N.am    1  UNL1       -0.2759
      4 C          51.0974    9.7454  -27.7635 C.3     1  UNL1        0.0954
      5 C          51.3518   10.9357  -26.8193 C.3     1  UNL1        0.0399
      6 C          51.2821   10.5746  -25.2986 C.3     1  UNL1        0.0645
      7 C          51.5272    9.0553  -25.1024 C.3     1  UNL1        0.0399
      8 C          50.4846    8.2070  -25.8545 C.3     1  UNL1        0.0954
      9 C          49.8728   10.9492  -24.7080 C.3     1  UNL1        0.0477
     10 C          49.7522   12.4264  -24.4930 C.ar    1  UNL1        0.0220
     11 C          48.6451   13.2059  -24.2502 C.ar    1  UNL1        0.0923
     12 N          49.0753   14.4428  -23.8891 N.ar    1  UNL1       -0.2534
     13 N          50.4049   14.4503  -23.8427 N.ar    1  UNL1       -0.1651
     14 C          50.8159   13.2267  -24.2164 C.ar    1  UNL1        0.1515
     15 C          52.1712   12.6969  -24.2111 C.2     1  UNL1        0.2650
     16 O          53.1501   13.4046  -23.8554 O.2     1  UNL1       -0.2684
     17 N          52.3510   11.3239  -24.5942 N.am    1  UNL1       -0.3023
     18 H          53.3127   10.9180  -24.5358 H       1  UNL1        0.1497
     19 C          46.3454   12.3647  -28.8268 C.ar    1  UNL1        0.2248
     20 N          45.6801   13.1556  -29.7153 N.ar    1  UNL1       -0.2101
     21 C          45.5743   12.8341  -31.0312 C.ar    1  UNL1        0.1021
     22 C          46.1656   11.6683  -31.5189 C.ar    1  UNL1        0.0209
     23 C          46.8595   10.8287  -30.6382 C.ar    1  UNL1        0.0069
     24 C          47.4818    9.6622  -31.1028 C.ar    1  UNL1        0.0117
     25 C          48.1913    8.8349  -30.2239 C.ar    1  UNL1        0.0620
     26 CL         49.0115    7.4299  -30.8991 Cl      1  UNL1       -0.0821
     27 C          48.2715    9.1630  -28.8518 C.ar    1  UNL1        0.0643
     28 C          47.6234   10.3201  -28.3875 C.ar    1  UNL1        0.0100
     29 C          46.9408   11.1690  -29.2708 C.ar    1  UNL1        0.0534
     30 C          46.3380   14.0975  -27.0525 C.3     1  UNL1        0.2542
     31 O          46.4535   12.7475  -27.4839 O.3     1  UNL1       -0.4561
     32 C          48.2523   15.5786  -23.4244 C.3     1  UNL1        0.0867
     33 C          46.7423   15.2624  -23.5112 C.3     1  UNL1        0.0244
     34 C          48.6180   15.8917  -21.9636 C.3     1  UNL1        0.0244
     35 C          48.5438   16.8120  -24.3021 C.3     1  UNL1        0.0244
@<TRIPOS>BOND
     1    30    31    1
     2    31    19    1
     3    19    20   ar
     4    20    21   ar
     5    21    22   ar
     6    22    23   ar
     7    23    24   ar
     8    24    25   ar
     9    25    26    1
    10    25    27   ar
    11    27     1    1
    12     1     2    2
    13     1     3   am
    14     3     4    1
    15     4     5    1
    16     5     6    1
    17     6     7    1
    18     7     8    1
    19     6     9    1
    20     9    10    1
    21    10    11   ar
    22    11    12   ar
    23    12    32    1
    24    32    33    1
    25    32    34    1
    26    32    35    1
    27    12    13   ar
    28    13    14   ar
    29    14    15    1
    30    15    16    2
    31    15    17   am
    32    27    28   ar
    33    28    29   ar
    34    29    19   ar
    35    29    23   ar
    36     8     3    1
    37    14    10   ar
    38    17     6    1
    39    17    18    1
@<TRIPOS>MOLECULE
*****
 35 39 0 0 0
SMALL
GASTEIGER

@<TRIPOS>ATOM
      1 C          48.2582   10.8837  -23.6622 C.2     1  UNL1        0.2498
      2 O          48.9539    9.8672  -23.9334 O.2     1  UNL1       -0.2699
      3 N          47.3152   11.3734  -24.6393 N.am    1  UNL1       -0.2759
      4 C          46.0690   12.0421  -24.2427 C.3     1  UNL1        0.0954
      5 C          45.8972   13.3731  -24.9992 C.3     1  UNL1        0.0399
      6 C          46.5013   13.3735  -26.4423 C.3     1  UNL1        0.0645
      7 C          46.6233   11.9185  -26.9666 C.3     1  UNL1        0.0399
      8 C          47.5238   11.0585  -26.0601 C.3     1  UNL1        0.0954
      9 C          47.9257   14.0419  -26.4425 C.3     1  UNL1        0.0477
     10 C          47.8229   15.5329  -26.3478 C.ar    1  UNL1        0.0220
     11 C          48.7809   16.4775  -26.0608 C.ar    1  UNL1        0.0923
     12 N          48.2560   17.7011  -26.3304 N.ar    1  UNL1       -0.2534
     13 N          47.0301   17.5547  -26.8265 N.ar    1  UNL1       -0.1651
     14 C          46.7649   16.2373  -26.8305 C.ar    1  UNL1        0.1515
     15 C          45.6049   15.5593  -27.3890 C.2     1  UNL1        0.2650
     16 O          44.6680   16.2023  -27.9315 O.2     1  UNL1       -0.2684
     17 N          45.5806   14.1239  -27.3307 N.am    1  UNL1       -0.3023
     18 H          44.7801   13.6259  -27.7826 H       1  UNL1        0.1497
     19 C          46.6145   12.1770  -19.1856 C.ar    1  UNL1        0.2248
     20 N          46.8145   12.8126  -17.9967 N.ar    1  UNL1       -0.2101
     21 C          47.9604   13.4894  -17.7225 C.ar    1  UNL1        0.1021
     22 C          48.9871   13.5426  -18.6656 C.ar    1  UNL1        0.0209
     23 C          48.8214   12.9012  -19.8998 C.ar    1  UNL1        0.0069
     24 C          49.8434   12.9193  -20.8583 C.ar    1  UNL1        0.0117
     25 C          49.6827   12.2609  -22.0835 C.ar    1  UNL1        0.0620
     26 CL         51.0430   12.2631  -23.2025 Cl      1  UNL1       -0.0821
     27 C          48.4761   11.5838  -22.3706 C.ar    1  UNL1        0.0643
     28 C          47.4452   11.5914  -21.4158 C.ar    1  UNL1        0.0100
     29 C          47.6156   12.2208  -20.1742 C.ar    1  UNL1        0.0534
     30 C          44.1453   11.9744  -19.0738 C.3     1  UNL1        0.2542
     31 O          45.4290   11.4679  -19.4165 O.3     1  UNL1       -0.4561
     32 C          48.9499   19.0048  -26.2848 C.3     1  UNL1        0.0867
     33 C          49.1273   19.6067  -27.6968 C.3     1  UNL1        0.0244
     34 C          48.1254   19.9762  -25.4233 C.3     1  UNL1        0.0244
     35 C          50.3447   18.8179  -25.6553 C.3     1  UNL1        0.0244
@<TRIPOS>BOND
     1    30    31    1
     2    31    19    1
     3    19    20   ar
     4    20    21   ar
     5    21    22   ar
     6    22    23   ar
     7    23    24   ar
     8    24    25   ar
     9    25    26    1
    10    25    27   ar
    11    27     1    1
    12     1     2    2
    13     1     3   am
    14     3     4    1
    15     4     5    1
    16     5     6    1
    17     6     7    1
    18     7     8    1
    19     6     9    1
    20     9    10    1
    21    10    11   ar
    22    11    12   ar
    23    12    32    1
    24    32    33    1
    25    32    34    1
    26    32    35    1
    27    12    13   ar
    28    13    14   ar
    29    14    15    1
    30    15    16    2
    31    15    17   am
    32    27    28   ar
    33    28    29   ar
    34    29    19   ar
    35    29    23   ar
    36     8     3    1
    37    14    10   ar
    38    17     6    1
    39    17    18    1
@<TRIPOS>MOLECULE
*****
 35 39 0 0 0
SMALL
GASTEIGER

@<TRIPOS>ATOM
      1 C          50.2740   16.1442  -24.6267 C.2     1  UNL1        0.2498
      2 O          51.1730   17.0286  -24.6081 O.2     1  UNL1       -0.2699
      3 N          50.4129   14.9803  -23.7841 N.am    1  UNL1       -0.2759
      4 C          49.2445   14.2858  -23.2274 C.3     1  UNL1        0.0954
      5 C          49.3311   12.7705  -23.4916 C.3     1  UNL1        0.0399
      6 C          50.7898   12.2056  -23.5148 C.3     1  UNL1        0.0645
      7 C          51.7384   13.1540  -22.7352 C.3     1  UNL1        0.0399
      8 C          51.7531   14.5704  -23.3401 C.3     1  UNL1        0.0954
      9 C          51.3031   12.0675  -24.9956 C.3     1  UNL1        0.0477
     10 C          50.6952   10.8760  -25.6692 C.ar    1  UNL1        0.0220
     11 C          50.6522   10.5277  -26.9994 C.ar    1  UNL1        0.0923
     12 N          50.2049    9.2477  -27.0824 N.ar    1  UNL1       -0.2534
     13 N          50.0206    8.7653  -25.8562 N.ar    1  UNL1       -0.1651
     14 C          50.3122    9.7574  -24.9980 C.ar    1  UNL1        0.1515
     15 C          50.3824    9.6936  -23.5460 C.2     1  UNL1        0.2650
     16 O          50.1288    8.6287  -22.9238 O.2     1  UNL1       -0.2684
     17 N          50.7855   10.8817  -22.8459 N.am    1  UNL1       -0.3023
     18 H          50.8967   10.8281  -21.8078 H       1  UNL1        0.1497
     19 C          46.7993   14.0937  -27.4790 C.ar    1  UNL1        0.2248
     20 N          45.7454   14.2304  -28.3324 N.ar    1  UNL1       -0.2101
     21 C          45.2810   15.4476  -28.7184 C.ar    1  UNL1        0.1021
     22 C          45.8755   16.6124  -28.2323 C.ar    1  UNL1        0.0209
     23 C          46.9606   16.5150  -27.3520 C.ar    1  UNL1        0.0069
     24 C          47.5645   17.6670  -26.8307 C.ar    1  UNL1        0.0117
     25 C          48.6365   17.5666  -25.9357 C.ar    1  UNL1        0.0620
     26 CL         49.2890   19.0585  -25.2639 Cl      1  UNL1       -0.0821
     27 C          49.1308   16.2965  -25.5625 C.ar    1  UNL1        0.0643
     28 C          48.5380   15.1457  -26.1090 C.ar    1  UNL1        0.0100
     29 C          47.4422   15.2417  -26.9790 C.ar    1  UNL1        0.0534
     30 C          46.5794   11.6235  -27.4965 C.3     1  UNL1        0.2542
     31 O          47.2287   12.8200  -27.0858 O.3     1  UNL1       -0.4561
     32 C          50.1037    8.4097  -28.2952 C.3     1  UNL1        0.0867
     33 C          51.3970    8.4682  -29.1389 C.3     1  UNL1        0.0244
     34 C          49.8438    6.9538  -27.8724 C.3     1  UNL1        0.0244
     35 C          48.9317    8.9090  -29.1634 C.3     1  UNL1        0.0244
@<TRIPOS>BOND
     1    30    31    1
     2    31    19    1
     3    19    20   ar
     4    20    21   ar
     5    21    22   ar
     6    22    23   ar
     7    23    24   ar
     8    24    25   ar
     9    25    26    1
    10    25    27   ar
    11    27     1    1
    12     1     2    2
    13     1     3   am
    14     3     4    1
    15     4     5    1
    16     5     6    1
    17     6     7    1
    18     7     8    1
    19     6     9    1
    20     9    10    1
    21    10    11   ar
    22    11    12   ar
    23    12    32    1
    24    32    33    1
    25    32    34    1
    26    32    35    1
    27    12    13   ar
    28    13    14   ar
    29    14    15    1
    30    15    16    2
    31    15    17   am
    32    27    28   ar
    33    28    29   ar
    34    29    19   ar
    35    29    23   ar
    36     8     3    1
    37    14    10   ar
    38    17     6    1
    39    17    18    1
@<TRIPOS>MOLECULE
*****
 35 39 0 0 0
SMALL
GASTEIGER

@<TRIPOS>ATOM
      1 C          48.2216   15.1553  -22.6802 C.2     1  UNL1        0.2498
      2 O          48.6951   16.1140  -22.0114 O.2     1  UNL1       -0.2699
      3 N          48.4421   13.8027  -22.2266 N.am    1  UNL1       -0.2759
      4 C          47.4654   12.7347  -22.4777 C.3     1  UNL1        0.0954
      5 C          48.1525   11.4957  -23.0826 C.3     1  UNL1        0.0399
      6 C          49.6236   11.2768  -22.5974 C.3     1  UNL1        0.0645
      7 C          49.8489   12.0007  -21.2438 C.3     1  UNL1        0.0399
      8 C          49.5916   13.5150  -21.3564 C.3     1  UNL1        0.0954
      9 C          50.6420   11.8383  -23.6571 C.3     1  UNL1        0.0477
     10 C          50.7588   10.9195  -24.8339 C.ar    1  UNL1        0.0220
     11 C          51.3115   11.1260  -26.0766 C.ar    1  UNL1        0.0923
     12 N          51.3893    9.9242  -26.7050 N.ar    1  UNL1       -0.2534
     13 N          50.9596    8.9695  -25.8839 N.ar    1  UNL1       -0.1651
     14 C          50.5702    9.5757  -24.7496 C.ar    1  UNL1        0.1515
     15 C          50.1391    8.9559  -23.5057 C.2     1  UNL1        0.2650
     16 O          50.0620    7.7045  -23.3892 O.2     1  UNL1       -0.2684
     17 N          49.8357    9.8221  -22.4003 N.am    1  UNL1       -0.3023
     18 H          49.5832    9.3835  -21.4854 H       1  UNL1        0.1497
     19 C          46.7962   13.7259  -27.1901 C.ar    1  UNL1        0.2248
     20 N          46.1340   13.9858  -28.3528 N.ar    1  UNL1       -0.2101
     21 C          45.5018   15.1675  -28.5760 C.ar    1  UNL1        0.1021
     22 C          45.5044   16.1612  -27.5967 C.ar    1  UNL1        0.0209
     23 C          46.1727   15.9331  -26.3870 C.ar    1  UNL1        0.0069
     24 C          46.1745   16.9039  -25.3766 C.ar    1  UNL1        0.0117
     25 C          46.8268   16.6655  -24.1608 C.ar    1  UNL1        0.0620
     26 CL         46.7160   17.9028  -22.9120 Cl      1  UNL1       -0.0821
     27 C          47.5058   15.4445  -23.9491 C.ar    1  UNL1        0.0643
     28 C          47.5224   14.4856  -24.9760 C.ar    1  UNL1        0.0100
     29 C          46.8414   14.7071  -26.1818 C.ar    1  UNL1        0.0534
     30 C          46.9876   11.2959  -27.6469 C.3     1  UNL1        0.2542
     31 O          47.4116   12.4838  -26.9905 O.3     1  UNL1       -0.4561
     32 C          52.0172    9.6334  -28.0105 C.3     1  UNL1        0.0867
     33 C          53.1178    8.5560  -27.8872 C.3     1  UNL1        0.0244
     34 C          50.9337    9.1374  -28.9831 C.3     1  UNL1        0.0244
     35 C          52.6556   10.9216  -28.5671 C.3     1  UNL1        0.0244
@<TRIPOS>BOND
     1    30    31    1
     2    31    19    1
     3    19    20   ar
     4    20    21   ar
     5    21    22   ar
     6    22    23   ar
     7    23    24   ar
     8    24    25   ar
     9    25    26    1
    10    25    27   ar
    11    27     1    1
    12     1     2    2
    13     1     3   am
    14     3     4    1
    15     4     5    1
    16     5     6    1
    17     6     7    1
    18     7     8    1
    19     6     9    1
    20     9    10    1
    21    10    11   ar
    22    11    12   ar
    23    12    32    1
    24    32    33    1
    25    32    34    1
    26    32    35    1
    27    12    13   ar
    28    13    14   ar
    29    14    15    1
    30    15    16    2
    31    15    17   am
    32    27    28   ar
    33    28    29   ar
    34    29    19   ar
    35    29    23   ar
    36     8     3    1
    37    14    10   ar
    38    17     6    1
    39    17    18    1
@<TRIPOS>MOLECULE
*****
 35 39 0 0 0
SMALL
GASTEIGER

@<TRIPOS>ATOM
      1 C          46.2271   14.8034  -25.7121 C.2     1  UNL1        0.2498
      2 O          45.0461   15.2459  -25.7209 O.2     1  UNL1       -0.2699
      3 N          46.4601   13.4234  -25.3581 N.am    1  UNL1       -0.2759
      4 C          47.5784   12.6586  -25.9254 C.3     1  UNL1        0.0954
      5 C          48.3789   11.9534  -24.8140 C.3     1  UNL1        0.0399
      6 C          47.5185   11.5147  -23.5833 C.3     1  UNL1        0.0645
      7 C          46.0287   11.3856  -23.9966 C.3     1  UNL1        0.0399
      8 C          45.4685   12.7152  -24.5356 C.3     1  UNL1        0.0954
      9 C          47.6410   12.5692  -22.4221 C.3     1  UNL1        0.0477
     10 C          48.9530   12.4405  -21.7116 C.ar    1  UNL1        0.0220
     11 C          49.5808   13.2941  -20.8343 C.ar    1  UNL1        0.0923
     12 N          50.6279   12.6290  -20.2804 N.ar    1  UNL1       -0.2534
     13 N          50.6450   11.3785  -20.7344 N.ar    1  UNL1       -0.1651
     14 C          49.6311   11.2665  -21.6092 C.ar    1  UNL1        0.1515
     15 C          49.1580   10.0664  -22.2825 C.2     1  UNL1        0.2650
     16 O          49.7203    8.9531  -22.1099 O.2     1  UNL1       -0.2684
     17 N          48.0025   10.1887  -23.1276 N.am    1  UNL1       -0.3023
     18 H          47.6198    9.3209  -23.5676 H       1  UNL1        0.1497
     19 C          50.6163   16.7070  -24.4771 C.ar    1  UNL1        0.2248
     20 N          51.6499   17.5537  -24.7465 N.ar    1  UNL1       -0.2101
     21 C          51.6558   18.3632  -25.8377 C.ar    1  UNL1        0.1021
     22 C          50.5876   18.3398  -26.7350 C.ar    1  UNL1        0.0209
     23 C          49.5062   17.4827  -26.4948 C.ar    1  UNL1        0.0069
     24 C          48.4292   17.4218  -27.3892 C.ar    1  UNL1        0.0117
     25 C          47.3586   16.5499  -27.1569 C.ar    1  UNL1        0.0620
     26 CL         46.0820   16.4746  -28.3683 Cl      1  UNL1       -0.0821
     27 C          47.3483   15.7327  -26.0042 C.ar    1  UNL1        0.0643
     28 C          48.4186   15.8173  -25.0978 C.ar    1  UNL1        0.0100
     29 C          49.5086   16.6644  -25.3447 C.ar    1  UNL1        0.0534
     30 C          51.4177   14.6652  -23.3199 C.3     1  UNL1        0.2542
     31 O          50.6633   15.8700  -23.3553 O.3     1  UNL1       -0.4561
     32 C          51.5201   13.1004  -19.2010 C.3     1  UNL1        0.0867
     33 C          52.7301   12.1588  -19.0087 C.3     1  UNL1        0.0244
     34 C          52.0288   14.5078  -19.5565 C.3     1  UNL1        0.0244
     35 C          50.7319   13.1587  -17.8774 C.3     1  UNL1        0.0244
@<TRIPOS>BOND
     1    30    31    1
     2    31    19    1
     3    19    20   ar
     4    20    21   ar
     5    21    22   ar
     6    22    23   ar
     7    23    24   ar
     8    24    25   ar
     9    25    26    1
    10    25    27   ar
    11    27     1    1
    12     1     2    2
    13     1     3   am
    14     3     4    1
    15     4     5    1
    16     5     6    1
    17     6     7    1
    18     7     8    1
    19     6     9    1
    20     9    10    1
    21    10    11   ar
    22    11    12   ar
    23    12    32    1
    24    32    33    1
    25    32    34    1
    26    32    35    1
    27    12    13   ar
    28    13    14   ar
    29    14    15    1
    30    15    16    2
    31    15    17   am
    32    27    28   ar
    33    28    29   ar
    34    29    19   ar
    35    29    23   ar
    36     8     3    1
    37    14    10   ar
    38    17     6    1
    39    17    18    1
@<TRIPOS>MOLECULE
*****
 35 39 0 0 0
SMALL
GASTEIGER

@<TRIPOS>ATOM
      1 C          48.0877   14.9128  -25.4658 C.2     1  UNL1        0.2498
      2 O          48.3354   16.1124  -25.1653 O.2     1  UNL1       -0.2699
      3 N          48.6269   13.8548  -24.6449 N.am    1  UNL1       -0.2759
      4 C          47.9231   12.5774  -24.4704 C.3     1  UNL1        0.0954
      5 C          48.8703   11.3906  -24.7304 C.3     1  UNL1        0.0399
      6 C          50.3602   11.6606  -24.3370 C.3     1  UNL1        0.0645
      7 C          50.4340   12.8061  -23.2933 C.3     1  UNL1        0.0399
      8 C          49.8272   14.1134  -23.8364 C.3     1  UNL1        0.0954
      9 C          51.1996   12.0647  -25.6049 C.3     1  UNL1        0.0477
     10 C          51.5072   10.8692  -26.4528 C.ar    1  UNL1        0.0220
     11 C          51.9738   10.7867  -27.7443 C.ar    1  UNL1        0.0923
     12 N          52.3195    9.4948  -27.9825 N.ar    1  UNL1       -0.2534
     13 N          52.1402    8.7796  -26.8750 N.ar    1  UNL1       -0.1651
     14 C          51.6401    9.6139  -25.9478 C.ar    1  UNL1        0.1515
     15 C          51.3884    9.3414  -24.5407 C.2     1  UNL1        0.2650
     16 O          51.6087    8.2058  -24.0434 O.2     1  UNL1       -0.2684
     17 N          50.9106   10.4254  -23.7277 N.am    1  UNL1       -0.3023
     18 H          50.7843   10.2549  -22.7040 H       1  UNL1        0.1497
     19 C          46.7689   11.7648  -29.0386 C.ar    1  UNL1        0.2248
     20 N          46.0430   11.4942  -30.1600 N.ar    1  UNL1       -0.2101
     21 C          45.2340   12.4199  -30.7383 C.ar    1  UNL1        0.1021
     22 C          45.1141   13.6935  -30.1815 C.ar    1  UNL1        0.0209
     23 C          45.8425   14.0113  -29.0281 C.ar    1  UNL1        0.0069
     24 C          45.7262   15.2750  -28.4340 C.ar    1  UNL1        0.0117
     25 C          46.4406   15.5835  -27.2701 C.ar    1  UNL1        0.0620
     26 CL         46.1794   17.1653  -26.5402 Cl      1  UNL1       -0.0821
     27 C          47.3014   14.6235  -26.6922 C.ar    1  UNL1        0.0643
     28 C          47.4338   13.3671  -27.3074 C.ar    1  UNL1        0.0100
     29 C          46.6939   13.0429  -28.4537 C.ar    1  UNL1        0.0534
     30 C          47.8852    9.5516  -29.1164 C.3     1  UNL1        0.2542
     31 O          47.5698   10.7725  -28.4594 O.3     1  UNL1       -0.4561
     32 C          52.9746    8.9494  -29.1895 C.3     1  UNL1        0.0867
     33 C          54.2060    8.0877  -28.8306 C.3     1  UNL1        0.0244
     34 C          51.9606    8.0837  -29.9564 C.3     1  UNL1        0.0244
     35 C          53.4385   10.1134  -30.0876 C.3     1  UNL1        0.0244
@<TRIPOS>BOND
     1    30    31    1
     2    31    19    1
     3    19    20   ar
     4    20    21   ar
     5    21    22   ar
     6    22    23   ar
     7    23    24   ar
     8    24    25   ar
     9    25    26    1
    10    25    27   ar
    11    27     1    1
    12     1     2    2
    13     1     3   am
    14     3     4    1
    15     4     5    1
    16     5     6    1
    17     6     7    1
    18     7     8    1
    19     6     9    1
    20     9    10    1
    21    10    11   ar
    22    11    12   ar
    23    12    32    1
    24    32    33    1
    25    32    34    1
    26    32    35    1
    27    12    13   ar
    28    13    14   ar
    29    14    15    1
    30    15    16    2
    31    15    17   am
    32    27    28   ar
    33    28    29   ar
    34    29    19   ar
    35    29    23   ar
    36     8     3    1
    37    14    10   ar
    38    17     6    1
    39    17    18    1
@<TRIPOS>MOLECULE
*****
 35 39 0 0 0
SMALL
GASTEIGER

@<TRIPOS>ATOM
      1 C          49.6266   10.7035  -24.2758 C.2     1  UNL1        0.2498
      2 O          50.3535    9.7964  -24.7651 O.2     1  UNL1       -0.2699
      3 N          48.4560   11.1366  -25.0013 N.am    1  UNL1       -0.2759
      4 C          47.2558   11.6256  -24.3099 C.3     1  UNL1        0.0954
      5 C          46.7932   12.9708  -24.9013 C.3     1  UNL1        0.0399
      6 C          47.0825   13.1329  -26.4302 C.3     1  UNL1        0.0645
      7 C          47.2448   11.7382  -27.0901 C.3     1  UNL1        0.0399
      8 C          48.3981   10.9376  -26.4567 C.3     1  UNL1        0.0954
      9 C          48.3983   13.9655  -26.6561 C.3     1  UNL1        0.0477
     10 C          48.1620   15.4248  -26.4166 C.ar    1  UNL1        0.0220
     11 C          49.0546   16.4576  -26.2461 C.ar    1  UNL1        0.0923
     12 N          48.3604   17.6240  -26.3012 N.ar    1  UNL1       -0.2534
     13 N          47.0807   17.3630  -26.5548 N.ar    1  UNL1       -0.1651
     14 C          46.9595   16.0262  -26.6181 C.ar    1  UNL1        0.1515
     15 C          45.7864   15.2502  -26.9909 C.2     1  UNL1        0.2650
     16 O          44.6956   15.8089  -27.2801 O.2     1  UNL1       -0.2684
     17 N          45.9248   13.8214  -27.0512 N.am    1  UNL1       -0.3023
     18 H          45.1046   13.2602  -27.3760 H       1  UNL1        0.1497
     19 C          49.8504   10.6010  -19.3409 C.ar    1  UNL1        0.2248
     20 N          50.2281   11.1824  -18.1675 N.ar    1  UNL1       -0.2101
     21 C          50.8521   12.3886  -18.1263 C.ar    1  UNL1        0.1021
     22 C          51.1383   13.0717  -19.3087 C.ar    1  UNL1        0.0209
     23 C          50.7677   12.5076  -20.5360 C.ar    1  UNL1        0.0069
     24 C          51.0609   13.1602  -21.7409 C.ar    1  UNL1        0.0117
     25 C          50.7066   12.5848  -22.9672 C.ar    1  UNL1        0.0620
     26 CL         51.1806   13.4289  -24.4388 Cl      1  UNL1       -0.0821
     27 C          50.0324   11.3433  -22.9984 C.ar    1  UNL1        0.0643
     28 C          49.7180   10.7066  -21.7859 C.ar    1  UNL1        0.0100
     29 C          50.1015   11.2634  -20.5573 C.ar    1  UNL1        0.0534
     30 C          48.1199    9.0270  -20.1649 C.3     1  UNL1        0.2542
     31 O          49.2337    9.3435  -19.3395 O.3     1  UNL1       -0.4561
     32 C          48.9088   18.9959  -26.2835 C.3     1  UNL1        0.0867
     33 C          48.9900   19.5965  -27.7048 C.3     1  UNL1        0.0244
     34 C          48.0012   19.8821  -25.4135 C.3     1  UNL1        0.0244
     35 C          50.3284   18.9696  -25.6829 C.3     1  UNL1        0.0244
@<TRIPOS>BOND
     1    30    31    1
     2    31    19    1
     3    19    20   ar
     4    20    21   ar
     5    21    22   ar
     6    22    23   ar
     7    23    24   ar
     8    24    25   ar
     9    25    26    1
    10    25    27   ar
    11    27     1    1
    12     1     2    2
    13     1     3   am
    14     3     4    1
    15     4     5    1
    16     5     6    1
    17     6     7    1
    18     7     8    1
    19     6     9    1
    20     9    10    1
    21    10    11   ar
    22    11    12   ar
    23    12    32    1
    24    32    33    1
    25    32    34    1
    26    32    35    1
    27    12    13   ar
    28    13    14   ar
    29    14    15    1
    30    15    16    2
    31    15    17   am
    32    27    28   ar
    33    28    29   ar
    34    29    19   ar
    35    29    23   ar
    36     8     3    1
    37    14    10   ar
    38    17     6    1
    39    17    18    1
