@<TRIPOS>MOLECULE
*****
 47 52 0 0 0
SMALL
GASTEIGER

@<TRIPOS>ATOM
      1 C         -66.1904  -54.1986  -23.4082 C.ar    1  UNL1        0.0702
      2 C         -67.1016  -54.2498  -22.3463 C.ar    1  UNL1        0.0191
      3 C         -68.3394  -54.8729  -22.5103 C.ar    1  UNL1        0.0356
      4 C         -68.6676  -55.4452  -23.7493 C.ar    1  UNL1        0.1318
      5 N         -67.7826  -55.3490  -24.7802 N.ar    1  UNL1       -0.2279
      6 C         -66.5704  -54.7494  -24.6429 C.ar    1  UNL1        0.1149
      7 N         -69.9440  -56.0771  -23.9636 N.pl3   1  UNL1       -0.2932
      8 C         -70.3214  -56.4783  -25.3271 C.3     1  UNL1        0.0923
      9 C         -71.8011  -56.8835  -25.4089 C.3     1  UNL1        0.0252
     10 C         -72.6606  -55.9191  -24.5684 C.3     1  UNL1        0.0472
     11 C         -72.2510  -55.9496  -23.0713 C.3     1  UNL1        0.0252
     12 C         -70.8147  -56.4498  -22.8398 C.3     1  UNL1        0.0923
     13 C         -74.1621  -56.2262  -24.7305 C.3     1  UNL1        0.2054
     14 O         -74.5481  -56.2159  -26.1062 O.3     1  UNL1       -0.4755
     15 C         -74.6617  -55.0738  -26.9164 C.ar    1  UNL1        0.1388
     16 C         -74.6365  -55.2486  -28.3039 C.ar    1  UNL1        0.0369
     17 C         -74.7425  -54.1507  -29.1592 C.ar    1  UNL1        0.0033
     18 C         -74.8773  -52.8636  -28.6357 C.ar    1  UNL1        0.0066
     19 C         -74.9105  -52.6618  -27.2448 C.ar    1  UNL1        0.0785
     20 C         -74.8053  -53.7740  -26.3894 C.ar    1  UNL1        0.0433
     21 C         -75.0540  -51.2991  -26.6851 C.2     1  UNL1        0.3381
     22 O         -75.0390  -50.2922  -27.4438 O.2     1  UNL1       -0.2451
     23 O         -75.2063  -51.1155  -25.3130 O.3     1  UNL1       -0.4771
     24 H         -75.3047  -50.1871  -24.9199 H       1  UNL1        0.2954
     25 C         -64.2954  -52.7417  -24.2505 C.2     1  UNL1        0.2839
     26 O         -64.5414  -52.9655  -25.4663 O.2     1  UNL1       -0.2665
     27 N         -64.9281  -53.5322  -23.2332 N.am    1  UNL1       -0.2766
     28 H         -64.3895  -53.7214  -22.3585 H       1  UNL1        0.1553
     29 C         -60.4222  -48.3339  -22.9487 C.ar    1  UNL1        0.0002
     30 C         -59.7014  -49.4541  -22.4528 C.ar    1  UNL1        0.0031
     31 C         -60.2333  -50.7521  -22.5460 C.ar    1  UNL1        0.0375
     32 C         -61.4829  -50.9046  -23.1368 C.ar    1  UNL1        0.1452
     33 O         -62.1485  -52.0191  -23.3170 O.2     1  UNL1       -0.4492
     34 C         -63.2921  -51.7185  -23.9073 C.ar    1  UNL1        0.1946
     35 C         -63.3614  -50.3395  -24.1423 C.ar    1  UNL1        0.0202
     36 C         -64.4529  -49.5603  -24.8121 C.3     1  UNL1        0.0345
     37 C         -62.1873  -49.8352  -23.6192 C.ar    1  UNL1        0.0337
     38 C         -61.6911  -48.5336  -23.5434 C.ar    1  UNL1        0.0028
     39 C         -60.1134  -44.5921  -22.2968 C.ar    1  UNL1        0.0347
     40 C         -58.7663  -44.3820  -22.6479 C.ar    1  UNL1        0.0028
     41 C         -57.9745  -45.4440  -23.0880 C.ar    1  UNL1        0.0001
     42 C         -58.5099  -46.7283  -23.1858 C.ar    1  UNL1        0.0000
     43 C         -59.8512  -46.9672  -22.8438 C.ar    1  UNL1        0.0001
     44 C         -60.6445  -45.8930  -22.3997 C.ar    1  UNL1        0.0028
     45 C         -60.4052  -42.3000  -21.0780 C.3     1  UNL1        0.0773
     46 C         -60.9714  -43.4725  -21.8219 C.2     1  UNL1        0.1735
     47 O         -62.2125  -43.4964  -22.0450 O.2     1  UNL1       -0.2913
@<TRIPOS>BOND
     1    45    46    1
     2    46    47    2
     3    46    39    1
     4    39    40   ar
     5    40    41   ar
     6    41    42   ar
     7    42    43   ar
     8    43    29    1
     9    29    30   ar
    10    30    31   ar
    11    31    32   ar
    12    32    33   ar
    13    33    34   ar
    14    34    25    1
    15    25    26    2
    16    25    27   am
    17    27     1    1
    18     1     2   ar
    19     2     3   ar
    20     3     4   ar
    21     4     7    1
    22     7     8    1
    23     8     9    1
    24     9    10    1
    25    10    13    1
    26    13    14    1
    27    14    15    1
    28    15    16   ar
    29    16    17   ar
    30    17    18   ar
    31    18    19   ar
    32    19    21    1
    33    21    22    2
    34    21    23    1
    35    19    20   ar
    36    10    11    1
    37    11    12    1
    38     4     5   ar
    39     5     6   ar
    40    34    35   ar
    41    35    36    1
    42    35    37   ar
    43    37    38   ar
    44    43    44   ar
    45    44    39   ar
    46    38    29   ar
    47    37    32   ar
    48     6     1   ar
    49    12     7    1
    50    20    15   ar
    51    27    28    1
    52    23    24    1
@<TRIPOS>MOLECULE
*****
 47 52 0 0 0
SMALL
GASTEIGER

@<TRIPOS>ATOM
      1 C         -66.2903  -54.0393  -23.3976 C.ar    1  UNL1        0.0702
      2 C         -67.3114  -53.7509  -22.4840 C.ar    1  UNL1        0.0191
      3 C         -68.5650  -54.3492  -22.6172 C.ar    1  UNL1        0.0356
      4 C         -68.7978  -55.2400  -23.6767 C.ar    1  UNL1        0.1318
      5 N         -67.8029  -55.4756  -24.5767 N.ar    1  UNL1       -0.2279
      6 C         -66.5735  -54.9065  -24.4654 C.ar    1  UNL1        0.1149
      7 N         -70.0849  -55.8598  -23.8601 N.pl3   1  UNL1       -0.2932
      8 C         -71.0923  -55.1804  -24.6883 C.3     1  UNL1        0.0923
      9 C         -72.4731  -55.8408  -24.5557 C.3     1  UNL1        0.0252
     10 C         -72.7383  -56.2212  -23.0858 C.3     1  UNL1        0.0472
     11 C         -71.6849  -57.2339  -22.5614 C.3     1  UNL1        0.0252
     12 C         -70.3661  -57.2104  -23.3531 C.3     1  UNL1        0.0923
     13 C         -74.1655  -56.7731  -22.9023 C.3     1  UNL1        0.2054
     14 O         -74.8398  -56.1197  -21.8253 O.3     1  UNL1       -0.4755
     15 C         -74.4036  -56.0785  -20.4905 C.ar    1  UNL1        0.1388
     16 C         -74.6769  -57.1827  -19.6766 C.ar    1  UNL1        0.0369
     17 C         -74.2706  -57.1977  -18.3414 C.ar    1  UNL1        0.0033
     18 C         -73.5832  -56.1076  -17.8046 C.ar    1  UNL1        0.0066
     19 C         -73.2917  -54.9879  -18.6032 C.ar    1  UNL1        0.0785
     20 C         -73.7028  -54.9815  -19.9489 C.ar    1  UNL1        0.0433
     21 C         -72.5625  -53.8301  -18.0388 C.2     1  UNL1        0.3381
     22 O         -72.1226  -53.8665  -16.8577 O.2     1  UNL1       -0.2451
     23 O         -72.3557  -52.6873  -18.8074 O.3     1  UNL1       -0.4771
     24 H         -71.8585  -51.8894  -18.4304 H       1  UNL1        0.2954
     25 C         -64.3629  -52.6788  -24.3234 C.2     1  UNL1        0.2839
     26 O         -64.6205  -52.9609  -25.5246 O.2     1  UNL1       -0.2665
     27 N         -65.0106  -53.3974  -23.2630 N.am    1  UNL1       -0.2766
     28 H         -64.4727  -53.5533  -22.3814 H       1  UNL1        0.1553
     29 C         -60.3796  -48.3073  -23.2521 C.ar    1  UNL1        0.0002
     30 C         -59.6474  -49.4322  -22.7845 C.ar    1  UNL1        0.0031
     31 C         -60.1979  -50.7245  -22.8408 C.ar    1  UNL1        0.0375
     32 C         -61.4773  -50.8667  -23.3668 C.ar    1  UNL1        0.1452
     33 O         -62.1636  -51.9747  -23.5047 O.2     1  UNL1       -0.4492
     34 C         -63.3321  -51.6650  -24.0389 C.ar    1  UNL1        0.1946
     35 C         -63.3976  -50.2870  -24.2808 C.ar    1  UNL1        0.0202
     36 C         -64.5127  -49.5000  -24.9008 C.3     1  UNL1        0.0345
     37 C         -62.1931  -49.7927  -23.8214 C.ar    1  UNL1        0.0337
     38 C         -61.6790  -48.4964  -23.7806 C.ar    1  UNL1        0.0028
     39 C         -59.9964  -44.5237  -23.4956 C.ar    1  UNL1        0.0347
     40 C         -58.6655  -44.3733  -23.0620 C.ar    1  UNL1        0.0028
     41 C         -57.9090  -45.4879  -22.6959 C.ar    1  UNL1        0.0001
     42 C         -58.4638  -46.7663  -22.7562 C.ar    1  UNL1        0.0000
     43 C         -59.7886  -46.9466  -23.1866 C.ar    1  UNL1        0.0001
     44 C         -60.5471  -45.8193  -23.5534 C.ar    1  UNL1        0.0028
     45 C         -61.9193  -43.4491  -24.8999 C.3     1  UNL1        0.0773
     46 C         -60.8192  -43.3464  -23.8861 C.2     1  UNL1        0.1735
     47 O         -60.5968  -42.2236  -23.3565 O.2     1  UNL1       -0.2913
@<TRIPOS>BOND
     1    45    46    1
     2    46    47    2
     3    46    39    1
     4    39    40   ar
     5    40    41   ar
     6    41    42   ar
     7    42    43   ar
     8    43    29    1
     9    29    30   ar
    10    30    31   ar
    11    31    32   ar
    12    32    33   ar
    13    33    34   ar
    14    34    25    1
    15    25    26    2
    16    25    27   am
    17    27     1    1
    18     1     2   ar
    19     2     3   ar
    20     3     4   ar
    21     4     7    1
    22     7     8    1
    23     8     9    1
    24     9    10    1
    25    10    13    1
    26    13    14    1
    27    14    15    1
    28    15    16   ar
    29    16    17   ar
    30    17    18   ar
    31    18    19   ar
    32    19    21    1
    33    21    22    2
    34    21    23    1
    35    19    20   ar
    36    10    11    1
    37    11    12    1
    38     4     5   ar
    39     5     6   ar
    40    34    35   ar
    41    35    36    1
    42    35    37   ar
    43    37    38   ar
    44    43    44   ar
    45    44    39   ar
    46    38    29   ar
    47    37    32   ar
    48     6     1   ar
    49    12     7    1
    50    20    15   ar
    51    27    28    1
    52    23    24    1
@<TRIPOS>MOLECULE
*****
 47 52 0 0 0
SMALL
GASTEIGER

@<TRIPOS>ATOM
      1 C         -63.7684  -51.5635  -24.1150 C.ar    1  UNL1        0.0702
      2 C         -63.8057  -50.2737  -24.6585 C.ar    1  UNL1        0.0191
      3 C         -62.8282  -49.3377  -24.3179 C.ar    1  UNL1        0.0356
      4 C         -61.8085  -49.6963  -23.4225 C.ar    1  UNL1        0.1318
      5 N         -61.8141  -50.9436  -22.8751 N.ar    1  UNL1       -0.2279
      6 C         -62.7540  -51.8723  -23.1941 C.ar    1  UNL1        0.1149
      7 N         -60.7952  -48.7512  -23.0296 N.pl3   1  UNL1       -0.2932
      8 C         -60.7611  -48.2794  -21.6372 C.3     1  UNL1        0.0923
      9 C         -59.8015  -47.0920  -21.4652 C.3     1  UNL1        0.0252
     10 C         -59.9378  -46.1250  -22.6575 C.3     1  UNL1        0.0472
     11 C         -59.5818  -46.8215  -23.9985 C.3     1  UNL1        0.0252
     12 C         -59.7191  -48.3529  -23.9481 C.3     1  UNL1        0.0923
     13 C         -59.0775  -44.8629  -22.4520 C.3     1  UNL1        0.2054
     14 O         -59.4809  -43.8113  -23.3311 O.3     1  UNL1       -0.4755
     15 C         -60.5797  -42.9577  -23.1369 C.ar    1  UNL1        0.1388
     16 C         -61.6327  -43.0242  -24.0551 C.ar    1  UNL1        0.0369
     17 C         -62.7492  -42.1986  -23.9152 C.ar    1  UNL1        0.0033
     18 C         -62.8266  -41.2969  -22.8522 C.ar    1  UNL1        0.0066
     19 C         -61.7839  -41.2144  -21.9128 C.ar    1  UNL1        0.0785
     20 C         -60.6628  -42.0517  -22.0598 C.ar    1  UNL1        0.0433
     21 C         -61.8618  -40.2605  -20.7837 C.2     1  UNL1        0.3381
     22 O         -61.7152  -40.6618  -19.5974 O.2     1  UNL1       -0.2451
     23 O         -62.0992  -38.9089  -21.0208 O.3     1  UNL1       -0.4771
     24 H         -62.1549  -38.2481  -20.2550 H       1  UNL1        0.2954
     25 C         -65.3404  -53.4636  -23.5307 C.2     1  UNL1        0.2839
     26 O         -64.6532  -53.8520  -22.5481 O.2     1  UNL1       -0.2665
     27 N         -64.7954  -52.5108  -24.4556 N.am    1  UNL1       -0.2766
     28 H         -65.0841  -52.5842  -25.4567 H       1  UNL1        0.1553
     29 C         -70.8469  -55.7965  -24.1316 C.ar    1  UNL1        0.0002
     30 C         -70.2979  -56.1224  -25.4013 C.ar    1  UNL1        0.0031
     31 C         -68.9778  -55.7663  -25.7287 C.ar    1  UNL1        0.0375
     32 C         -68.2291  -55.0873  -24.7737 C.ar    1  UNL1        0.1452
     33 O         -66.9919  -54.6683  -24.8813 O.2     1  UNL1       -0.4492
     34 C         -66.6668  -54.0667  -23.7504 C.ar    1  UNL1        0.1946
     35 C         -67.7422  -54.1184  -22.8545 C.ar    1  UNL1        0.0202
     36 C         -67.8143  -53.5958  -21.4514 C.3     1  UNL1        0.0345
     37 C         -68.7446  -54.7678  -23.5471 C.ar    1  UNL1        0.0337
     38 C         -70.0500  -55.1047  -23.1881 C.ar    1  UNL1        0.0028
     39 C         -74.0755  -56.3159  -22.1749 C.ar    1  UNL1        0.0347
     40 C         -74.8853  -56.8983  -23.1684 C.ar    1  UNL1        0.0028
     41 C         -74.3851  -57.1155  -24.4533 C.ar    1  UNL1        0.0001
     42 C         -73.0742  -56.7579  -24.7686 C.ar    1  UNL1        0.0000
     43 C         -72.2429  -56.1764  -23.7971 C.ar    1  UNL1        0.0001
     44 C         -72.7528  -55.9588  -22.5035 C.ar    1  UNL1        0.0028
     45 C         -74.5911  -57.1449  -19.7519 C.3     1  UNL1        0.0773
     46 C         -74.5932  -56.0732  -20.8007 C.2     1  UNL1        0.1735
     47 O         -75.0492  -54.9378  -20.4947 O.2     1  UNL1       -0.2913
@<TRIPOS>BOND
     1    45    46    1
     2    46    47    2
     3    46    39    1
     4    39    40   ar
     5    40    41   ar
     6    41    42   ar
     7    42    43   ar
     8    43    29    1
     9    29    30   ar
    10    30    31   ar
    11    31    32   ar
    12    32    33   ar
    13    33    34   ar
    14    34    25    1
    15    25    26    2
    16    25    27   am
    17    27     1    1
    18     1     2   ar
    19     2     3   ar
    20     3     4   ar
    21     4     7    1
    22     7     8    1
    23     8     9    1
    24     9    10    1
    25    10    13    1
    26    13    14    1
    27    14    15    1
    28    15    16   ar
    29    16    17   ar
    30    17    18   ar
    31    18    19   ar
    32    19    21    1
    33    21    22    2
    34    21    23    1
    35    19    20   ar
    36    10    11    1
    37    11    12    1
    38     4     5   ar
    39     5     6   ar
    40    34    35   ar
    41    35    36    1
    42    35    37   ar
    43    37    38   ar
    44    43    44   ar
    45    44    39   ar
    46    38    29   ar
    47    37    32   ar
    48     6     1   ar
    49    12     7    1
    50    20    15   ar
    51    27    28    1
    52    23    24    1
@<TRIPOS>MOLECULE
*****
 47 52 0 0 0
SMALL
GASTEIGER

@<TRIPOS>ATOM
      1 C         -66.1722  -54.1891  -23.1275 C.ar    1  UNL1        0.0702
      2 C         -67.3516  -53.4600  -22.9333 C.ar    1  UNL1        0.0191
      3 C         -68.5932  -54.0885  -23.0383 C.ar    1  UNL1        0.0356
      4 C         -68.6526  -55.4570  -23.3445 C.ar    1  UNL1        0.1318
      5 N         -67.4944  -56.1380  -23.5686 N.ar    1  UNL1       -0.2279
      6 C         -66.2741  -55.5476  -23.4690 C.ar    1  UNL1        0.1149
      7 N         -69.9155  -56.1355  -23.4834 N.pl3   1  UNL1       -0.2932
      8 C         -70.2318  -56.8006  -24.7562 C.3     1  UNL1        0.0923
      9 C         -71.7046  -57.2334  -24.8180 C.3     1  UNL1        0.0252
     10 C         -72.6042  -56.1346  -24.2190 C.3     1  UNL1        0.0472
     11 C         -72.2593  -55.8664  -22.7293 C.3     1  UNL1        0.0252
     12 C         -70.8320  -56.2927  -22.3452 C.3     1  UNL1        0.0923
     13 C         -74.0958  -56.4874  -24.3796 C.3     1  UNL1        0.2054
     14 O         -74.7675  -55.5363  -25.2078 O.3     1  UNL1       -0.4755
     15 C         -74.2261  -54.9134  -26.3446 C.ar    1  UNL1        0.1388
     16 C         -74.0595  -53.5249  -26.3154 C.ar    1  UNL1        0.0369
     17 C         -73.5292  -52.8507  -27.4164 C.ar    1  UNL1        0.0033
     18 C         -73.1567  -53.5588  -28.5603 C.ar    1  UNL1        0.0066
     19 C         -73.3092  -54.9554  -28.6129 C.ar    1  UNL1        0.0785
     20 C         -73.8425  -55.6279  -27.4980 C.ar    1  UNL1        0.0433
     21 C         -72.9149  -55.7106  -29.8233 C.2     1  UNL1        0.3381
     22 O         -73.7764  -56.0253  -30.6886 O.2     1  UNL1       -0.2451
     23 O         -71.5870  -56.0824  -30.0181 O.3     1  UNL1       -0.4771
     24 H         -71.3070  -56.5999  -30.8426 H       1  UNL1        0.2954
     25 C         -64.3058  -52.7933  -24.1232 C.2     1  UNL1        0.2839
     26 O         -64.6033  -53.0792  -25.3142 O.2     1  UNL1       -0.2665
     27 N         -64.9001  -53.5242  -23.0402 N.am    1  UNL1       -0.2766
     28 H         -64.3267  -53.6709  -22.1796 H       1  UNL1        0.1553
     29 C         -60.3608  -48.3519  -23.2094 C.ar    1  UNL1        0.0002
     30 C         -59.6119  -49.4557  -22.7188 C.ar    1  UNL1        0.0031
     31 C         -60.1487  -50.7550  -22.7348 C.ar    1  UNL1        0.0375
     32 C         -61.4314  -50.9250  -23.2442 C.ar    1  UNL1        0.1452
     33 O         -62.1068  -52.0436  -23.3454 O.2     1  UNL1       -0.4492
     34 C         -63.2836  -51.7612  -23.8764 C.ar    1  UNL1        0.1946
     35 C         -63.3665  -50.3910  -24.1547 C.ar    1  UNL1        0.0202
     36 C         -64.4960  -49.6331  -24.7848 C.3     1  UNL1        0.0345
     37 C         -62.1632  -49.8715  -23.7206 C.ar    1  UNL1        0.0337
     38 C         -61.6631  -48.5691  -23.7199 C.ar    1  UNL1        0.0028
     39 C         -60.0023  -44.5796  -23.6134 C.ar    1  UNL1        0.0347
     40 C         -58.6884  -44.3960  -23.1422 C.ar    1  UNL1        0.0028
     41 C         -57.9354  -45.4849  -22.6998 C.ar    1  UNL1        0.0001
     42 C         -58.4766  -46.7703  -22.7201 C.ar    1  UNL1        0.0000
     43 C         -59.7843  -46.9836  -23.1865 C.ar    1  UNL1        0.0001
     44 C         -60.5394  -45.8820  -23.6302 C.ar    1  UNL1        0.0028
     45 C         -61.5354  -43.4531  -25.4036 C.3     1  UNL1        0.0773
     46 C         -60.8213  -43.4298  -24.0852 C.2     1  UNL1        0.1735
     47 O         -60.9278  -42.3996  -23.3655 O.2     1  UNL1       -0.2913
@<TRIPOS>BOND
     1    45    46    1
     2    46    47    2
     3    46    39    1
     4    39    40   ar
     5    40    41   ar
     6    41    42   ar
     7    42    43   ar
     8    43    29    1
     9    29    30   ar
    10    30    31   ar
    11    31    32   ar
    12    32    33   ar
    13    33    34   ar
    14    34    25    1
    15    25    26    2
    16    25    27   am
    17    27     1    1
    18     1     2   ar
    19     2     3   ar
    20     3     4   ar
    21     4     7    1
    22     7     8    1
    23     8     9    1
    24     9    10    1
    25    10    13    1
    26    13    14    1
    27    14    15    1
    28    15    16   ar
    29    16    17   ar
    30    17    18   ar
    31    18    19   ar
    32    19    21    1
    33    21    22    2
    34    21    23    1
    35    19    20   ar
    36    10    11    1
    37    11    12    1
    38     4     5   ar
    39     5     6   ar
    40    34    35   ar
    41    35    36    1
    42    35    37   ar
    43    37    38   ar
    44    43    44   ar
    45    44    39   ar
    46    38    29   ar
    47    37    32   ar
    48     6     1   ar
    49    12     7    1
    50    20    15   ar
    51    27    28    1
    52    23    24    1
@<TRIPOS>MOLECULE
*****
 47 52 0 0 0
SMALL
GASTEIGER

@<TRIPOS>ATOM
      1 C         -63.6707  -51.4514  -24.1805 C.ar    1  UNL1        0.0702
      2 C         -63.7659  -50.1624  -24.7189 C.ar    1  UNL1        0.0191
      3 C         -62.8258  -49.1876  -24.3820 C.ar    1  UNL1        0.0356
      4 C         -61.7852  -49.5065  -23.4956 C.ar    1  UNL1        0.1318
      5 N         -61.7346  -50.7548  -22.9529 N.ar    1  UNL1       -0.2279
      6 C         -62.6373  -51.7208  -23.2684 C.ar    1  UNL1        0.1149
      7 N         -60.8093  -48.5212  -23.1068 N.pl3   1  UNL1       -0.2932
      8 C         -60.7944  -48.0417  -21.7167 C.3     1  UNL1        0.0923
      9 C         -59.8813  -46.8175  -21.5499 C.3     1  UNL1        0.0252
     10 C         -60.0537  -45.8622  -22.7470 C.3     1  UNL1        0.0472
     11 C         -59.6701  -46.5511  -24.0843 C.3     1  UNL1        0.0252
     12 C         -59.7485  -48.0864  -24.0265 C.3     1  UNL1        0.0923
     13 C         -59.2426  -44.5671  -22.5472 C.3     1  UNL1        0.2054
     14 O         -60.0832  -43.4134  -22.6113 O.3     1  UNL1       -0.4755
     15 C         -60.8702  -43.0337  -23.7113 C.ar    1  UNL1        0.1388
     16 C         -62.2188  -42.7409  -23.4834 C.ar    1  UNL1        0.0369
     17 C         -63.0503  -42.3610  -24.5380 C.ar    1  UNL1        0.0033
     18 C         -62.5413  -42.2672  -25.8345 C.ar    1  UNL1        0.0066
     19 C         -61.1881  -42.5512  -26.0891 C.ar    1  UNL1        0.0785
     20 C         -60.3560  -42.9314  -25.0201 C.ar    1  UNL1        0.0433
     21 C         -60.6436  -42.4524  -27.4619 C.2     1  UNL1        0.3381
     22 O         -60.0049  -43.4153  -27.9665 O.2     1  UNL1       -0.2451
     23 O         -60.8309  -41.2930  -28.2103 O.3     1  UNL1       -0.4771
     24 H         -60.4618  -41.2150  -29.1504 H       1  UNL1        0.2954
     25 C         -65.2060  -53.3748  -23.5749 C.2     1  UNL1        0.2839
     26 O         -64.5385  -53.7082  -22.5591 O.2     1  UNL1       -0.2665
     27 N         -64.6598  -52.4396  -24.5169 N.am    1  UNL1       -0.2766
     28 H         -64.9156  -52.5565  -25.5229 H       1  UNL1        0.1553
     29 C         -70.6207  -55.8948  -24.2491 C.ar    1  UNL1        0.0002
     30 C         -70.0392  -56.2129  -25.5063 C.ar    1  UNL1        0.0031
     31 C         -68.7262  -55.8157  -25.8142 C.ar    1  UNL1        0.0375
     32 C         -68.0171  -55.1042  -24.8527 C.ar    1  UNL1        0.1452
     33 O         -66.7928  -54.6451  -24.9428 O.2     1  UNL1       -0.4492
     34 C         -66.5076  -54.0236  -23.8119 C.ar    1  UNL1        0.1946
     35 C         -67.5961  -54.1036  -22.9341 C.ar    1  UNL1        0.0202
     36 C         -67.7099  -53.5719  -21.5372 C.3     1  UNL1        0.0345
     37 C         -68.5642  -54.7918  -23.6379 C.ar    1  UNL1        0.0337
     38 C         -69.8638  -55.1690  -23.2984 C.ar    1  UNL1        0.0028
     39 C         -73.8268  -56.6064  -22.3160 C.ar    1  UNL1        0.0347
     40 C         -74.6367  -57.1222  -23.3456 C.ar    1  UNL1        0.0028
     41 C         -74.1437  -57.2337  -24.6468 C.ar    1  UNL1        0.0001
     42 C         -72.8402  -56.8350  -24.9427 C.ar    1  UNL1        0.0000
     43 C         -72.0089  -56.3183  -23.9352 C.ar    1  UNL1        0.0001
     44 C         -72.5115  -56.2072  -22.6253 C.ar    1  UNL1        0.0028
     45 C         -73.7003  -55.5525  -19.9291 C.3     1  UNL1        0.0773
     46 C         -74.3368  -56.4766  -20.9238 C.2     1  UNL1        0.1735
     47 O         -75.3332  -57.1567  -20.5558 O.2     1  UNL1       -0.2913
@<TRIPOS>BOND
     1    45    46    1
     2    46    47    2
     3    46    39    1
     4    39    40   ar
     5    40    41   ar
     6    41    42   ar
     7    42    43   ar
     8    43    29    1
     9    29    30   ar
    10    30    31   ar
    11    31    32   ar
    12    32    33   ar
    13    33    34   ar
    14    34    25    1
    15    25    26    2
    16    25    27   am
    17    27     1    1
    18     1     2   ar
    19     2     3   ar
    20     3     4   ar
    21     4     7    1
    22     7     8    1
    23     8     9    1
    24     9    10    1
    25    10    13    1
    26    13    14    1
    27    14    15    1
    28    15    16   ar
    29    16    17   ar
    30    17    18   ar
    31    18    19   ar
    32    19    21    1
    33    21    22    2
    34    21    23    1
    35    19    20   ar
    36    10    11    1
    37    11    12    1
    38     4     5   ar
    39     5     6   ar
    40    34    35   ar
    41    35    36    1
    42    35    37   ar
    43    37    38   ar
    44    43    44   ar
    45    44    39   ar
    46    38    29   ar
    47    37    32   ar
    48     6     1   ar
    49    12     7    1
    50    20    15   ar
    51    27    28    1
    52    23    24    1
@<TRIPOS>MOLECULE
*****
 47 52 0 0 0
SMALL
GASTEIGER

@<TRIPOS>ATOM
      1 C         -66.2562  -54.4197  -22.5687 C.ar    1  UNL1        0.0702
      2 C         -66.3636  -55.5630  -21.7676 C.ar    1  UNL1        0.0191
      3 C         -67.5882  -56.2196  -21.6385 C.ar    1  UNL1        0.0356
      4 C         -68.7142  -55.7237  -22.3141 C.ar    1  UNL1        0.1318
      5 N         -68.5961  -54.5875  -23.0560 N.ar    1  UNL1       -0.2279
      6 C         -67.4133  -53.9330  -23.1985 C.ar    1  UNL1        0.1149
      7 N         -69.9997  -56.3608  -22.1876 N.pl3   1  UNL1       -0.2932
      8 C         -70.9663  -56.2419  -23.2894 C.3     1  UNL1        0.0923
      9 C         -72.3583  -56.7453  -22.8780 C.3     1  UNL1        0.0252
     10 C         -72.6852  -56.2836  -21.4444 C.3     1  UNL1        0.0472
     11 C         -71.6644  -56.8460  -20.4189 C.3     1  UNL1        0.0252
     12 C         -70.3152  -57.2340  -21.0482 C.3     1  UNL1        0.0923
     13 C         -74.1245  -56.6687  -21.0500 C.3     1  UNL1        0.2054
     14 O         -74.7960  -55.5810  -20.4115 O.3     1  UNL1       -0.4755
     15 C         -74.6017  -55.1644  -19.0840 C.ar    1  UNL1        0.1388
     16 C         -74.6311  -56.1377  -18.0799 C.ar    1  UNL1        0.0369
     17 C         -74.4473  -55.7830  -16.7426 C.ar    1  UNL1        0.0033
     18 C         -74.2294  -54.4490  -16.3938 C.ar    1  UNL1        0.0066
     19 C         -74.1902  -53.4525  -17.3847 C.ar    1  UNL1        0.0785
     20 C         -74.3743  -53.8185  -18.7308 C.ar    1  UNL1        0.0433
     21 C         -73.9587  -52.0368  -17.0198 C.2     1  UNL1        0.3381
     22 O         -74.7478  -51.4418  -16.2368 O.2     1  UNL1       -0.2451
     23 O         -72.8662  -51.3469  -17.5393 O.3     1  UNL1       -0.4771
     24 H         -72.6992  -50.3778  -17.2964 H       1  UNL1        0.2954
     25 C         -64.5619  -53.0362  -23.8487 C.2     1  UNL1        0.2839
     26 O         -65.0127  -53.3629  -24.9795 O.2     1  UNL1       -0.2665
     27 N         -64.9940  -53.7387  -22.6740 N.am    1  UNL1       -0.2766
     28 H         -64.3079  -53.8519  -21.8946 H       1  UNL1        0.1553
     29 C         -60.5946  -48.5270  -23.6194 C.ar    1  UNL1        0.0002
     30 C         -59.7813  -49.5986  -23.1608 C.ar    1  UNL1        0.0031
     31 C         -60.3002  -50.9004  -23.0487 C.ar    1  UNL1        0.0375
     32 C         -61.6300  -51.1054  -23.3996 C.ar    1  UNL1        0.1452
     33 O         -62.2985  -52.2322  -23.3656 O.2     1  UNL1       -0.4492
     34 C         -63.5313  -51.9858  -23.7732 C.ar    1  UNL1        0.1946
     35 C         -63.6623  -50.6327  -24.1106 C.ar    1  UNL1        0.0202
     36 C         -64.8652  -49.9165  -24.6464 C.3     1  UNL1        0.0345
     37 C         -62.4242  -50.0833  -23.8434 C.ar    1  UNL1        0.0337
     38 C         -61.9434  -48.7794  -23.9667 C.ar    1  UNL1        0.0028
     39 C         -58.3548  -45.4881  -23.0996 C.ar    1  UNL1        0.0347
     40 C         -58.9840  -44.5587  -23.9494 C.ar    1  UNL1        0.0028
     41 C         -60.1180  -44.9198  -24.6790 C.ar    1  UNL1        0.0001
     42 C         -60.6423  -46.2081  -24.5740 C.ar    1  UNL1        0.0000
     43 C         -60.0363  -47.1557  -23.7327 C.ar    1  UNL1        0.0001
     44 C         -58.8927  -46.7865  -23.0003 C.ar    1  UNL1        0.0028
     45 C         -56.7684  -43.6935  -22.0570 C.3     1  UNL1        0.0773
     46 C         -57.1427  -45.1221  -22.3172 C.2     1  UNL1        0.1735
     47 O         -56.3997  -46.0291  -21.8525 O.2     1  UNL1       -0.2913
@<TRIPOS>BOND
     1    45    46    1
     2    46    47    2
     3    46    39    1
     4    39    40   ar
     5    40    41   ar
     6    41    42   ar
     7    42    43   ar
     8    43    29    1
     9    29    30   ar
    10    30    31   ar
    11    31    32   ar
    12    32    33   ar
    13    33    34   ar
    14    34    25    1
    15    25    26    2
    16    25    27   am
    17    27     1    1
    18     1     2   ar
    19     2     3   ar
    20     3     4   ar
    21     4     7    1
    22     7     8    1
    23     8     9    1
    24     9    10    1
    25    10    13    1
    26    13    14    1
    27    14    15    1
    28    15    16   ar
    29    16    17   ar
    30    17    18   ar
    31    18    19   ar
    32    19    21    1
    33    21    22    2
    34    21    23    1
    35    19    20   ar
    36    10    11    1
    37    11    12    1
    38     4     5   ar
    39     5     6   ar
    40    34    35   ar
    41    35    36    1
    42    35    37   ar
    43    37    38   ar
    44    43    44   ar
    45    44    39   ar
    46    38    29   ar
    47    37    32   ar
    48     6     1   ar
    49    12     7    1
    50    20    15   ar
    51    27    28    1
    52    23    24    1
@<TRIPOS>MOLECULE
*****
 47 52 0 0 0
SMALL
GASTEIGER

@<TRIPOS>ATOM
      1 C         -65.4283  -53.8265  -22.7268 C.ar    1  UNL1        0.0702
      2 C         -65.3147  -55.0961  -22.1474 C.ar    1  UNL1        0.0191
      3 C         -66.4347  -55.9207  -22.0334 C.ar    1  UNL1        0.0356
      4 C         -67.6785  -55.4673  -22.4999 C.ar    1  UNL1        0.1318
      5 N         -67.7741  -54.2135  -23.0237 N.ar    1  UNL1       -0.2279
      6 C         -66.6966  -53.3941  -23.1473 C.ar    1  UNL1        0.1149
      7 N         -68.8612  -56.2804  -22.3794 N.pl3   1  UNL1       -0.2932
      8 C         -69.8262  -56.3048  -23.4888 C.3     1  UNL1        0.0923
      9 C         -71.1356  -56.9996  -23.0849 C.3     1  UNL1        0.0252
     10 C         -71.5362  -56.5833  -21.6560 C.3     1  UNL1        0.0472
     11 C         -70.4537  -56.9904  -20.6203 C.3     1  UNL1        0.0252
     12 C         -69.0582  -57.1849  -21.2378 C.3     1  UNL1        0.0923
     13 C         -72.9090  -57.1678  -21.2701 C.3     1  UNL1        0.2054
     14 O         -73.8125  -56.1407  -20.8573 O.3     1  UNL1       -0.4755
     15 C         -73.9395  -55.6377  -19.5517 C.ar    1  UNL1        0.1388
     16 C         -74.2744  -56.5352  -18.5325 C.ar    1  UNL1        0.0369
     17 C         -74.4172  -56.0929  -17.2165 C.ar    1  UNL1        0.0033
     18 C         -74.2242  -54.7461  -16.9038 C.ar    1  UNL1        0.0066
     19 C         -73.8820  -53.8249  -17.9092 C.ar    1  UNL1        0.0785
     20 C         -73.7378  -54.2792  -19.2330 C.ar    1  UNL1        0.0433
     21 C         -73.6756  -52.3961  -17.5824 C.2     1  UNL1        0.3381
     22 O         -72.9931  -52.0633  -16.5758 O.2     1  UNL1       -0.2451
     23 O         -74.2348  -51.4041  -18.3840 O.3     1  UNL1       -0.4771
     24 H         -74.1001  -50.4235  -18.1687 H       1  UNL1        0.2954
     25 C         -63.9143  -52.2362  -23.9924 C.2     1  UNL1        0.2839
     26 O         -64.2891  -52.6368  -25.1272 O.2     1  UNL1       -0.2665
     27 N         -64.2712  -52.9772  -22.8161 N.am    1  UNL1       -0.2766
     28 H         -63.5941  -52.9837  -22.0209 H       1  UNL1        0.1553
     29 C         -60.6237  -47.2132  -23.7355 C.ar    1  UNL1        0.0002
     30 C         -59.6601  -48.1651  -23.3049 C.ar    1  UNL1        0.0031
     31 C         -59.9875  -49.5289  -23.2084 C.ar    1  UNL1        0.0375
     32 C         -61.2797  -49.9155  -23.5465 C.ar    1  UNL1        0.1452
     33 O         -61.7811  -51.1262  -23.5234 O.2     1  UNL1       -0.4492
     34 C         -63.0421  -51.0513  -23.9117 C.ar    1  UNL1        0.1946
     35 C         -63.3686  -49.7257  -24.2247 C.ar    1  UNL1        0.0202
     36 C         -64.6685  -49.1796  -24.7337 C.3     1  UNL1        0.0345
     37 C         -62.2172  -49.0100  -23.9633 C.ar    1  UNL1        0.0337
     38 C         -61.9280  -47.6493  -24.0705 C.ar    1  UNL1        0.0028
     39 C         -60.3474  -43.6437  -25.0409 C.ar    1  UNL1        0.0347
     40 C         -59.5892  -43.0534  -24.0119 C.ar    1  UNL1        0.0028
     41 C         -59.1777  -43.8083  -22.9123 C.ar    1  UNL1        0.0001
     42 C         -59.5131  -45.1591  -22.8199 C.ar    1  UNL1        0.0000
     43 C         -60.2673  -45.7750  -23.8324 C.ar    1  UNL1        0.0001
     44 C         -60.6803  -45.0088  -24.9383 C.ar    1  UNL1        0.0028
     45 C         -61.6681  -43.4472  -27.2862 C.3     1  UNL1        0.0773
     46 C         -60.7981  -42.8534  -26.2189 C.2     1  UNL1        0.1735
     47 O         -60.4467  -41.6478  -26.3359 O.2     1  UNL1       -0.2913
@<TRIPOS>BOND
     1    45    46    1
     2    46    47    2
     3    46    39    1
     4    39    40   ar
     5    40    41   ar
     6    41    42   ar
     7    42    43   ar
     8    43    29    1
     9    29    30   ar
    10    30    31   ar
    11    31    32   ar
    12    32    33   ar
    13    33    34   ar
    14    34    25    1
    15    25    26    2
    16    25    27   am
    17    27     1    1
    18     1     2   ar
    19     2     3   ar
    20     3     4   ar
    21     4     7    1
    22     7     8    1
    23     8     9    1
    24     9    10    1
    25    10    13    1
    26    13    14    1
    27    14    15    1
    28    15    16   ar
    29    16    17   ar
    30    17    18   ar
    31    18    19   ar
    32    19    21    1
    33    21    22    2
    34    21    23    1
    35    19    20   ar
    36    10    11    1
    37    11    12    1
    38     4     5   ar
    39     5     6   ar
    40    34    35   ar
    41    35    36    1
    42    35    37   ar
    43    37    38   ar
    44    43    44   ar
    45    44    39   ar
    46    38    29   ar
    47    37    32   ar
    48     6     1   ar
    49    12     7    1
    50    20    15   ar
    51    27    28    1
    52    23    24    1
@<TRIPOS>MOLECULE
*****
 47 52 0 0 0
SMALL
GASTEIGER

@<TRIPOS>ATOM
      1 C         -64.2125  -51.5303  -24.1986 C.ar    1  UNL1        0.0702
      2 C         -64.2798  -50.3431  -24.9379 C.ar    1  UNL1        0.0191
      3 C         -63.3195  -49.3466  -24.7582 C.ar    1  UNL1        0.0356
      4 C         -62.2868  -49.5401  -23.8275 C.ar    1  UNL1        0.1318
      5 N         -62.2632  -50.6855  -23.0907 N.ar    1  UNL1       -0.2279
      6 C         -63.1859  -51.6707  -23.2506 C.ar    1  UNL1        0.1149
      7 N         -61.2905  -48.5256  -23.5981 N.pl3   1  UNL1       -0.2932
      8 C         -60.4410  -48.6177  -22.4013 C.3     1  UNL1        0.0923
      9 C         -59.6332  -47.3298  -22.1800 C.3     1  UNL1        0.0252
     10 C         -60.5122  -46.0977  -22.4711 C.3     1  UNL1        0.0472
     11 C         -61.0101  -46.0887  -23.9415 C.3     1  UNL1        0.0252
     12 C         -61.0140  -47.4815  -24.5949 C.3     1  UNL1        0.0923
     13 C         -59.7663  -44.7906  -22.1389 C.3     1  UNL1        0.2054
     14 O         -60.6127  -43.6523  -22.3110 O.3     1  UNL1       -0.4755
     15 C         -61.4970  -43.1363  -21.3491 C.ar    1  UNL1        0.1388
     16 C         -61.0360  -42.1109  -20.5170 C.ar    1  UNL1        0.0369
     17 C         -61.8684  -41.5610  -19.5409 C.ar    1  UNL1        0.0033
     18 C         -63.1745  -42.0295  -19.3871 C.ar    1  UNL1        0.0066
     19 C         -63.6635  -43.0557  -20.2144 C.ar    1  UNL1        0.0785
     20 C         -62.8187  -43.6033  -21.1973 C.ar    1  UNL1        0.0433
     21 C         -65.0477  -43.5552  -20.0556 C.2     1  UNL1        0.3381
     22 O         -66.0295  -42.7857  -20.2396 O.2     1  UNL1       -0.2451
     23 O         -65.2796  -44.8816  -19.7000 O.3     1  UNL1       -0.4771
     24 H         -66.2231  -45.2332  -19.5881 H       1  UNL1        0.2954
     25 C         -65.3962  -53.6574  -23.4933 C.2     1  UNL1        0.2839
     26 O         -64.4213  -54.0851  -22.8184 O.2     1  UNL1       -0.2665
     27 N         -65.2220  -52.5390  -24.3759 N.am    1  UNL1       -0.2766
     28 H         -65.7892  -52.5181  -25.2528 H       1  UNL1        0.1553
     29 C         -70.7537  -56.3373  -23.0036 C.ar    1  UNL1        0.0002
     30 C         -70.1079  -57.2322  -23.8992 C.ar    1  UNL1        0.0031
     31 C         -68.7838  -57.0062  -24.3141 C.ar    1  UNL1        0.0375
     32 C         -68.1284  -55.8828  -23.8220 C.ar    1  UNL1        0.1452
     33 O         -66.9042  -55.4956  -24.0848 O.2     1  UNL1       -0.4492
     34 C         -66.6800  -54.3767  -23.4180 C.ar    1  UNL1        0.1946
     35 C         -67.8105  -54.0331  -22.6659 C.ar    1  UNL1        0.0202
     36 C         -67.9974  -52.8687  -21.7405 C.3     1  UNL1        0.0345
     37 C         -68.7376  -55.0134  -22.9587 C.ar    1  UNL1        0.0337
     38 C         -70.0500  -55.2057  -22.5262 C.ar    1  UNL1        0.0028
     39 C         -73.7929  -56.9504  -20.7879 C.ar    1  UNL1        0.0347
     40 C         -74.8028  -57.0557  -21.7632 C.ar    1  UNL1        0.0028
     41 C         -74.4954  -56.9274  -23.1187 C.ar    1  UNL1        0.0001
     42 C         -73.1813  -56.6933  -23.5238 C.ar    1  UNL1        0.0000
     43 C         -72.1530  -56.5853  -22.5731 C.ar    1  UNL1        0.0001
     44 C         -72.4688  -56.7145  -21.2077 C.ar    1  UNL1        0.0028
     45 C         -73.0237  -57.2200  -18.3060 C.3     1  UNL1        0.0773
     46 C         -74.1027  -57.0807  -19.3380 C.2     1  UNL1        0.1735
     47 O         -75.3031  -57.0744  -18.9510 O.2     1  UNL1       -0.2913
@<TRIPOS>BOND
     1    45    46    1
     2    46    47    2
     3    46    39    1
     4    39    40   ar
     5    40    41   ar
     6    41    42   ar
     7    42    43   ar
     8    43    29    1
     9    29    30   ar
    10    30    31   ar
    11    31    32   ar
    12    32    33   ar
    13    33    34   ar
    14    34    25    1
    15    25    26    2
    16    25    27   am
    17    27     1    1
    18     1     2   ar
    19     2     3   ar
    20     3     4   ar
    21     4     7    1
    22     7     8    1
    23     8     9    1
    24     9    10    1
    25    10    13    1
    26    13    14    1
    27    14    15    1
    28    15    16   ar
    29    16    17   ar
    30    17    18   ar
    31    18    19   ar
    32    19    21    1
    33    21    22    2
    34    21    23    1
    35    19    20   ar
    36    10    11    1
    37    11    12    1
    38     4     5   ar
    39     5     6   ar
    40    34    35   ar
    41    35    36    1
    42    35    37   ar
    43    37    38   ar
    44    43    44   ar
    45    44    39   ar
    46    38    29   ar
    47    37    32   ar
    48     6     1   ar
    49    12     7    1
    50    20    15   ar
    51    27    28    1
    52    23    24    1
