@<TRIPOS>MOLECULE
*****
 42 46 0 0 0
SMALL
GASTEIGER

@<TRIPOS>ATOM
      1 C          -8.4425   -9.6375   32.7536 C.3     1  UNL1        0.1333
      2 N          -8.6877  -10.7561   31.8423 N.ar    1  UNL1       -0.2950
      3 C          -9.7089  -11.6579   31.8621 C.ar    1  UNL1        0.2019
      4 N          -9.5939  -12.6336   30.9256 N.ar    1  UNL1       -0.2134
      5 C          -8.4655  -12.2947   30.2771 C.ar    1  UNL1        0.1033
      6 C          -7.8784  -12.9642   29.2062 C.ar    1  UNL1        0.0284
      7 C          -6.6818  -12.4443   28.6625 C.ar    1  UNL1        0.0922
      8 C          -6.1413  -11.2388   29.1903 C.ar    1  UNL1        0.1782
      9 C          -6.7494  -10.6047   30.2946 C.ar    1  UNL1        0.1897
     10 C          -7.9207  -11.1634   30.8134 C.ar    1  UNL1        0.1173
     11 O          -6.1802   -9.4385   30.8145 O.3     1  UNL1       -0.4669
     12 C          -4.8656   -9.0282   30.4345 C.3     1  UNL1        0.2527
     13 C          -4.6421   -9.2924   28.9412 C.3     1  UNL1        0.2526
     14 O          -5.0170  -10.6328   28.6150 O.3     1  UNL1       -0.4682
     15 C          -6.0440  -13.1421   27.5262 C.2     1  UNL1        0.2526
     16 O          -4.9659  -12.6854   27.0579 O.2     1  UNL1       -0.2697
     17 N          -6.6420  -14.3214   26.9581 N.am    1  UNL1       -0.2803
     18 H          -7.5107  -14.7029   27.3946 H       1  UNL1        0.1552
     19 C          -6.0743  -15.0652   25.8670 C.ar    1  UNL1        0.0506
     20 C          -4.9693  -15.9117   26.0548 C.ar    1  UNL1        0.0170
     21 C          -4.4196  -16.6013   24.9727 C.ar    1  UNL1        0.0309
     22 C          -4.9551  -16.4459   23.6919 C.ar    1  UNL1        0.1441
     23 F          -4.3985  -17.1246   22.6563 F       1  UNL1       -0.2042
     24 C          -6.0485  -15.5865   23.4790 C.ar    1  UNL1        0.1000
     25 C          -6.5935  -14.8907   24.5753 C.ar    1  UNL1        0.0208
     26 C          -6.6051  -15.4149   22.0857 C.3     1  UNL1        0.4207
     27 F          -6.8782  -16.6332   21.4875 F       1  UNL1       -0.1658
     28 F          -5.6883  -14.7384   21.3013 F       1  UNL1       -0.1658
     29 F          -7.7762  -14.6817   22.1452 F       1  UNL1       -0.1658
     30 N         -10.8136  -11.6145   32.7760 N.pl3   1  UNL1       -0.2815
     31 H         -11.1380  -10.6738   33.0939 H       1  UNL1        0.1551
     32 C         -11.3783  -12.7779   33.4054 C.ar    1  UNL1        0.0887
     33 C         -10.7439  -13.3725   34.5128 C.ar    1  UNL1        0.1543
     34 F          -9.6025  -12.8478   35.0258 F       1  UNL1       -0.2028
     35 C         -11.2954  -14.5021   35.1161 C.ar    1  UNL1        0.0307
     36 C         -12.4882  -15.0426   34.6390 C.ar    1  UNL1        0.0014
     37 C         -13.1588  -14.4491   33.5586 C.ar    1  UNL1        0.0189
     38 C         -12.5941  -13.3145   32.9312 C.ar    1  UNL1        0.0717
     39 CL        -13.3706  -12.5854   31.5215 Cl      1  UNL1       -0.0811
     40 C         -14.4323  -15.0838   33.0556 C.3     1  UNL1        0.1645
     41 O         -14.3783  -16.4737   33.2261 O.3     1  UNL1       -0.3772
     42 H         -13.8145  -16.8297   32.4908 H       1  UNL1        0.2109
@<TRIPOS>BOND
     1     1     2    1
     2     2     3   ar
     3     3    30    1
     4    30    32    1
     5    32    33   ar
     6    33    34    1
     7    33    35   ar
     8    35    36   ar
     9    36    37   ar
    10    37    40    1
    11    40    41    1
    12    37    38   ar
    13    38    39    1
    14     3     4   ar
    15     4     5   ar
    16     5     6   ar
    17     6     7   ar
    18     7    15    1
    19    15    16    2
    20    15    17   am
    21    17    19    1
    22    19    20   ar
    23    20    21   ar
    24    21    22   ar
    25    22    23    1
    26    22    24   ar
    27    24    26    1
    28    26    27    1
    29    26    28    1
    30    26    29    1
    31    24    25   ar
    32     7     8   ar
    33     8     9   ar
    34     9    10   ar
    35     9    11    1
    36    11    12    1
    37    12    13    1
    38    13    14    1
    39    10     2   ar
    40    38    32   ar
    41    10     5   ar
    42    25    19   ar
    43    14     8    1
    44    30    31    1
    45    41    42    1
    46    17    18    1
@<TRIPOS>MOLECULE
*****
 42 46 0 0 0
SMALL
GASTEIGER

@<TRIPOS>ATOM
      1 C          -6.0844  -17.5629   22.2160 C.3     1  UNL1        0.1333
      2 N          -5.9126  -16.5127   23.2207 N.ar    1  UNL1       -0.2950
      3 C          -4.9063  -15.6007   23.3307 C.ar    1  UNL1        0.2019
      4 N          -4.9967  -14.8187   24.4363 N.ar    1  UNL1       -0.2134
      5 C          -6.1321  -15.2483   25.0150 C.ar    1  UNL1        0.1033
      6 C          -6.7048  -14.7771   26.1939 C.ar    1  UNL1        0.0284
      7 C          -7.9092  -15.3678   26.6395 C.ar    1  UNL1        0.0922
      8 C          -8.5195  -16.3855   25.8548 C.ar    1  UNL1        0.1782
      9 C          -7.8940  -16.8562   24.6807 C.ar    1  UNL1        0.1897
     10 C          -6.6942  -16.2573   24.2869 C.ar    1  UNL1        0.1173
     11 O          -8.4987  -17.8794   23.9448 O.3     1  UNL1       -0.4669
     12 C          -9.5806  -18.6373   24.4889 C.3     1  UNL1        0.2527
     13 C         -10.5166  -17.7220   25.2863 C.3     1  UNL1        0.2526
     14 O          -9.7644  -16.9245   26.2038 O.3     1  UNL1       -0.4682
     15 C          -8.5309  -14.8812   27.8891 C.2     1  UNL1        0.2526
     16 O          -9.1037  -15.7098   28.6478 O.2     1  UNL1       -0.2697
     17 N          -8.4890  -13.4852   28.2363 N.am    1  UNL1       -0.2803
     18 H          -7.9693  -12.8288   27.6121 H       1  UNL1        0.1552
     19 C          -9.0527  -12.9386   29.4402 C.ar    1  UNL1        0.0506
     20 C         -10.4285  -13.0265   29.7098 C.ar    1  UNL1        0.0170
     21 C         -10.9546  -12.4624   30.8732 C.ar    1  UNL1        0.0309
     22 C         -10.1204  -11.7947   31.7730 C.ar    1  UNL1        0.1441
     23 F         -10.6587  -11.2513   32.8945 F       1  UNL1       -0.2042
     24 C          -8.7430  -11.6773   31.5110 C.ar    1  UNL1        0.1000
     25 C          -8.2215  -12.2447   30.3324 C.ar    1  UNL1        0.0208
     26 C          -7.8568  -10.9369   32.4842 C.3     1  UNL1        0.4207
     27 F          -7.9702  -11.4408   33.7686 F       1  UNL1       -0.1658
     28 F          -8.2098   -9.5997   32.5062 F       1  UNL1       -0.1658
     29 F          -6.5382  -11.0491   32.0825 F       1  UNL1       -0.1658
     30 N          -3.8336  -15.4570   22.3893 N.pl3   1  UNL1       -0.2815
     31 H          -3.4461  -14.4977   22.2446 H       1  UNL1        0.1551
     32 C          -3.3858  -16.5107   21.5188 C.ar    1  UNL1        0.0887
     33 C          -3.7841  -16.5427   20.1687 C.ar    1  UNL1        0.1543
     34 F          -4.5764  -15.5690   19.6534 F       1  UNL1       -0.2028
     35 C          -3.3486  -17.5689   19.3313 C.ar    1  UNL1        0.0307
     36 C          -2.5015  -18.5625   19.8187 C.ar    1  UNL1        0.0014
     37 C          -2.0618  -18.5351   21.1511 C.ar    1  UNL1        0.0189
     38 C          -2.5156  -17.5071   22.0096 C.ar    1  UNL1        0.0717
     39 CL         -2.0436  -17.4820   23.7120 Cl      1  UNL1       -0.0811
     40 C          -1.1685  -19.6466   21.6453 C.3     1  UNL1        0.1645
     41 O           0.1382  -19.1724   21.8220 O.3     1  UNL1       -0.3772
     42 H           0.5513  -19.1316   20.9204 H       1  UNL1        0.2109
@<TRIPOS>BOND
     1     1     2    1
     2     2     3   ar
     3     3    30    1
     4    30    32    1
     5    32    33   ar
     6    33    34    1
     7    33    35   ar
     8    35    36   ar
     9    36    37   ar
    10    37    40    1
    11    40    41    1
    12    37    38   ar
    13    38    39    1
    14     3     4   ar
    15     4     5   ar
    16     5     6   ar
    17     6     7   ar
    18     7    15    1
    19    15    16    2
    20    15    17   am
    21    17    19    1
    22    19    20   ar
    23    20    21   ar
    24    21    22   ar
    25    22    23    1
    26    22    24   ar
    27    24    26    1
    28    26    27    1
    29    26    28    1
    30    26    29    1
    31    24    25   ar
    32     7     8   ar
    33     8     9   ar
    34     9    10   ar
    35     9    11    1
    36    11    12    1
    37    12    13    1
    38    13    14    1
    39    10     2   ar
    40    38    32   ar
    41    10     5   ar
    42    25    19   ar
    43    14     8    1
    44    30    31    1
    45    41    42    1
    46    17    18    1
@<TRIPOS>MOLECULE
*****
 42 46 0 0 0
SMALL
GASTEIGER

@<TRIPOS>ATOM
      1 C          -6.1420  -16.8022   21.2983 C.3     1  UNL1        0.1333
      2 N          -5.7317  -16.2749   22.6004 N.ar    1  UNL1       -0.2950
      3 C          -4.4716  -16.0318   23.0580 C.ar    1  UNL1        0.2019
      4 N          -4.4296  -15.6274   24.3530 N.ar    1  UNL1       -0.2134
      5 C          -5.7293  -15.5873   24.6965 C.ar    1  UNL1        0.1033
      6 C          -6.2610  -15.2275   25.9324 C.ar    1  UNL1        0.0284
      7 C          -7.6650  -15.2531   26.0937 C.ar    1  UNL1        0.0922
      8 C          -8.4886  -15.5986   24.9864 C.ar    1  UNL1        0.1782
      9 C          -7.9115  -15.9849   23.7579 C.ar    1  UNL1        0.1897
     10 C          -6.5184  -15.9638   23.6479 C.ar    1  UNL1        0.1173
     11 O          -8.7426  -16.3505   22.6950 O.3     1  UNL1       -0.4669
     12 C         -10.1339  -16.6010   22.9007 C.3     1  UNL1        0.2527
     13 C         -10.7080  -15.5940   23.9038 C.3     1  UNL1        0.2526
     14 O          -9.8854  -15.5360   25.0714 O.3     1  UNL1       -0.4682
     15 C          -8.2472  -14.8753   27.3988 C.2     1  UNL1        0.2526
     16 O          -8.7773  -15.7701   28.1118 O.2     1  UNL1       -0.2697
     17 N          -8.2152  -13.5093   27.8506 N.am    1  UNL1       -0.2803
     18 H          -7.7302  -12.7973   27.2602 H       1  UNL1        0.1552
     19 C          -8.7421  -13.0669   29.1126 C.ar    1  UNL1        0.0506
     20 C         -10.0489  -13.3899   29.5138 C.ar    1  UNL1        0.0170
     21 C         -10.5460  -12.9240   30.7322 C.ar    1  UNL1        0.0309
     22 C          -9.7534  -12.1223   31.5570 C.ar    1  UNL1        0.1441
     23 F         -10.2630  -11.6788   32.7345 F       1  UNL1       -0.2042
     24 C          -8.4493  -11.7700   31.1638 C.ar    1  UNL1        0.1000
     25 C          -7.9577  -12.2400   29.9307 C.ar    1  UNL1        0.0208
     26 C          -7.6109  -10.8877   32.0577 C.3     1  UNL1        0.4207
     27 F          -8.0158   -9.5651   32.0006 F       1  UNL1       -0.1658
     28 F          -6.2863  -10.9569   31.6654 F       1  UNL1       -0.1658
     29 F          -7.7176  -11.3243   33.3657 F       1  UNL1       -0.1658
     30 N          -3.2794  -16.1841   22.2752 N.pl3   1  UNL1       -0.2815
     31 H          -2.9158  -15.3375   21.7830 H       1  UNL1        0.1551
     32 C          -2.6644  -17.4530   21.9917 C.ar    1  UNL1        0.0887
     33 C          -3.2791  -18.6535   22.3959 C.ar    1  UNL1        0.1543
     34 F          -4.4748  -18.6417   23.0374 F       1  UNL1       -0.2028
     35 C          -2.6757  -19.8798   22.1204 C.ar    1  UNL1        0.0307
     36 C          -1.4673  -19.9291   21.4277 C.ar    1  UNL1        0.0014
     37 C          -0.8508  -18.7494   20.9835 C.ar    1  UNL1        0.0189
     38 C          -1.4489  -17.5020   21.2766 C.ar    1  UNL1        0.0717
     39 CL         -0.6641  -15.9927   20.7992 Cl      1  UNL1       -0.0811
     40 C           0.4715  -18.8467   20.2625 C.3     1  UNL1        0.1645
     41 O           1.5209  -18.5286   21.1351 O.3     1  UNL1       -0.3772
     42 H           1.5412  -17.5389   21.2082 H       1  UNL1        0.2109
@<TRIPOS>BOND
     1     1     2    1
     2     2     3   ar
     3     3    30    1
     4    30    32    1
     5    32    33   ar
     6    33    34    1
     7    33    35   ar
     8    35    36   ar
     9    36    37   ar
    10    37    40    1
    11    40    41    1
    12    37    38   ar
    13    38    39    1
    14     3     4   ar
    15     4     5   ar
    16     5     6   ar
    17     6     7   ar
    18     7    15    1
    19    15    16    2
    20    15    17   am
    21    17    19    1
    22    19    20   ar
    23    20    21   ar
    24    21    22   ar
    25    22    23    1
    26    22    24   ar
    27    24    26    1
    28    26    27    1
    29    26    28    1
    30    26    29    1
    31    24    25   ar
    32     7     8   ar
    33     8     9   ar
    34     9    10   ar
    35     9    11    1
    36    11    12    1
    37    12    13    1
    38    13    14    1
    39    10     2   ar
    40    38    32   ar
    41    10     5   ar
    42    25    19   ar
    43    14     8    1
    44    30    31    1
    45    41    42    1
    46    17    18    1
@<TRIPOS>MOLECULE
*****
 42 46 0 0 0
SMALL
GASTEIGER

@<TRIPOS>ATOM
      1 C          -8.3338  -10.3604   31.7353 C.3     1  UNL1        0.1333
      2 N          -8.7513  -11.5155   30.9395 N.ar    1  UNL1       -0.2950
      3 C          -9.8678  -12.2835   31.0805 C.ar    1  UNL1        0.2019
      4 N          -9.9126  -13.3425   30.2327 N.ar    1  UNL1       -0.2134
      5 C          -8.7857  -13.1978   29.5130 C.ar    1  UNL1        0.1033
      6 C          -8.3335  -14.0219   28.4853 C.ar    1  UNL1        0.0284
      7 C          -7.1128  -13.6973   27.8508 C.ar    1  UNL1        0.0922
      8 C          -6.4112  -12.5244   28.2457 C.ar    1  UNL1        0.1782
      9 C          -6.8868  -11.7301   29.3106 C.ar    1  UNL1        0.1897
     10 C          -8.0880  -12.0981   29.9229 C.ar    1  UNL1        0.1173
     11 O          -6.1616  -10.6002   29.7001 O.3     1  UNL1       -0.4669
     12 C          -4.8286  -10.3841   29.2339 C.3     1  UNL1        0.2527
     13 C          -4.7108  -10.7999   27.7632 C.3     1  UNL1        0.2526
     14 O          -5.2539  -12.1088   27.5748 O.3     1  UNL1       -0.4682
     15 C          -6.6167  -14.5611   26.7587 C.2     1  UNL1        0.2526
     16 O          -5.8737  -15.5390   27.0447 O.2     1  UNL1       -0.2697
     17 N          -6.9700  -14.2919   25.3899 N.am    1  UNL1       -0.2803
     18 H          -7.6229  -13.5026   25.1866 H       1  UNL1        0.1552
     19 C          -6.5438  -15.0947   24.2764 C.ar    1  UNL1        0.0506
     20 C          -7.2623  -15.1128   23.0696 C.ar    1  UNL1        0.0170
     21 C          -6.8424  -15.9229   22.0131 C.ar    1  UNL1        0.0309
     22 C          -5.7121  -16.7321   22.1509 C.ar    1  UNL1        0.1441
     23 F          -5.3283  -17.5138   21.1095 F       1  UNL1       -0.2042
     24 C          -4.9908  -16.7444   23.3588 C.ar    1  UNL1        0.1000
     25 C          -5.4243  -15.9280   24.4212 C.ar    1  UNL1        0.0208
     26 C          -3.7815  -17.6379   23.4990 C.3     1  UNL1        0.4207
     27 F          -2.6927  -17.1427   22.8019 F       1  UNL1       -0.1658
     28 F          -4.0777  -18.8974   23.0100 F       1  UNL1       -0.1658
     29 F          -3.4384  -17.7415   24.8348 F       1  UNL1       -0.1658
     30 N         -10.9138  -12.0302   32.0287 N.pl3   1  UNL1       -0.2815
     31 H         -11.2920  -11.0577   32.0791 H       1  UNL1        0.1551
     32 C         -11.3437  -12.9801   33.0194 C.ar    1  UNL1        0.0887
     33 C         -10.6090  -13.1589   34.2071 C.ar    1  UNL1        0.1543
     34 F          -9.4963  -12.4229   34.4548 F       1  UNL1       -0.2028
     35 C         -11.0300  -14.0838   35.1617 C.ar    1  UNL1        0.0307
     36 C         -12.1909  -14.8272   34.9566 C.ar    1  UNL1        0.0014
     37 C         -12.9603  -14.6437   33.7975 C.ar    1  UNL1        0.0189
     38 C         -12.5278  -13.7206   32.8174 C.ar    1  UNL1        0.0717
     39 CL        -13.4297  -13.5172   31.3118 Cl      1  UNL1       -0.0811
     40 C         -14.1944  -15.4902   33.6020 C.3     1  UNL1        0.1645
     41 O         -13.8619  -16.6828   32.9456 O.3     1  UNL1       -0.3772
     42 H         -13.7628  -16.4608   31.9832 H       1  UNL1        0.2109
@<TRIPOS>BOND
     1     1     2    1
     2     2     3   ar
     3     3    30    1
     4    30    32    1
     5    32    33   ar
     6    33    34    1
     7    33    35   ar
     8    35    36   ar
     9    36    37   ar
    10    37    40    1
    11    40    41    1
    12    37    38   ar
    13    38    39    1
    14     3     4   ar
    15     4     5   ar
    16     5     6   ar
    17     6     7   ar
    18     7    15    1
    19    15    16    2
    20    15    17   am
    21    17    19    1
    22    19    20   ar
    23    20    21   ar
    24    21    22   ar
    25    22    23    1
    26    22    24   ar
    27    24    26    1
    28    26    27    1
    29    26    28    1
    30    26    29    1
    31    24    25   ar
    32     7     8   ar
    33     8     9   ar
    34     9    10   ar
    35     9    11    1
    36    11    12    1
    37    12    13    1
    38    13    14    1
    39    10     2   ar
    40    38    32   ar
    41    10     5   ar
    42    25    19   ar
    43    14     8    1
    44    30    31    1
    45    41    42    1
    46    17    18    1
@<TRIPOS>MOLECULE
*****
 42 46 0 0 0
SMALL
GASTEIGER

@<TRIPOS>ATOM
      1 C          -8.0513   -9.2765   32.7452 C.3     1  UNL1        0.1333
      2 N          -8.3449  -10.4353   31.9009 N.ar    1  UNL1       -0.2950
      3 C          -9.3659  -11.3304   32.0146 C.ar    1  UNL1        0.2019
      4 N          -9.3007  -12.3492   31.1202 N.ar    1  UNL1       -0.2134
      5 C          -8.2058  -12.0463   30.4003 C.ar    1  UNL1        0.1033
      6 C          -7.6754  -12.7677   29.3336 C.ar    1  UNL1        0.0284
      7 C          -6.5067  -12.2793   28.7063 C.ar    1  UNL1        0.0922
      8 C          -5.9374  -11.0530   29.1491 C.ar    1  UNL1        0.1782
      9 C          -6.4873  -10.3653   30.2518 C.ar    1  UNL1        0.1897
     10 C          -7.6320  -10.8937   30.8547 C.ar    1  UNL1        0.1173
     11 O          -5.8898   -9.1787   30.6870 O.3     1  UNL1       -0.4669
     12 C          -4.5953   -8.7927   30.2222 C.3     1  UNL1        0.2527
     13 C          -4.4484   -9.1273   28.7336 C.3     1  UNL1        0.2526
     14 O          -4.8423  -10.4798   28.4900 O.3     1  UNL1       -0.4682
     15 C          -5.9289  -13.0324   27.5732 C.2     1  UNL1        0.2526
     16 O          -4.8629  -12.6152   27.0443 O.2     1  UNL1       -0.2697
     17 N          -6.5710  -14.2205   27.0761 N.am    1  UNL1       -0.2803
     18 H          -7.4278  -14.5678   27.5618 H       1  UNL1        0.1552
     19 C          -6.0623  -15.0163   25.9927 C.ar    1  UNL1        0.0506
     20 C          -4.9895  -15.9040   26.1774 C.ar    1  UNL1        0.0170
     21 C          -4.4962  -16.6447   25.1020 C.ar    1  UNL1        0.0309
     22 C          -5.0562  -16.5005   23.8304 C.ar    1  UNL1        0.1441
     23 F          -4.5545  -17.2294   22.8010 F       1  UNL1       -0.2042
     24 C          -6.1176  -15.6012   23.6199 C.ar    1  UNL1        0.1000
     25 C          -6.6056  -14.8541   24.7093 C.ar    1  UNL1        0.0208
     26 C          -6.7007  -15.4429   22.2359 C.3     1  UNL1        0.4207
     27 F          -5.7956  -14.8699   21.3591 F       1  UNL1       -0.1658
     28 F          -7.8223  -14.6356   22.2960 F       1  UNL1       -0.1658
     29 F          -7.0636  -16.6839   21.7450 F       1  UNL1       -0.1658
     30 N         -10.4227  -11.2392   32.9801 N.pl3   1  UNL1       -0.2815
     31 H         -10.2438  -10.6682   33.8363 H       1  UNL1        0.1551
     32 C         -11.6304  -12.0181   32.9211 C.ar    1  UNL1        0.0887
     33 C         -12.7043  -11.6144   32.1050 C.ar    1  UNL1        0.1543
     34 F         -12.6148  -10.4985   31.3382 F       1  UNL1       -0.2028
     35 C         -13.8733  -12.3728   32.0553 C.ar    1  UNL1        0.0307
     36 C         -13.9826  -13.5460   32.7995 C.ar    1  UNL1        0.0014
     37 C         -12.9143  -13.9891   33.5943 C.ar    1  UNL1        0.0189
     38 C         -11.7336  -13.2139   33.6631 C.ar    1  UNL1        0.0717
     39 CL        -10.3967  -13.7006   34.7108 Cl      1  UNL1       -0.0811
     40 C         -13.0858  -15.2494   34.4066 C.3     1  UNL1        0.1645
     41 O         -13.3989  -16.3260   33.5659 O.3     1  UNL1       -0.3772
     42 H         -14.3622  -16.2424   33.3420 H       1  UNL1        0.2109
@<TRIPOS>BOND
     1     1     2    1
     2     2     3   ar
     3     3    30    1
     4    30    32    1
     5    32    33   ar
     6    33    34    1
     7    33    35   ar
     8    35    36   ar
     9    36    37   ar
    10    37    40    1
    11    40    41    1
    12    37    38   ar
    13    38    39    1
    14     3     4   ar
    15     4     5   ar
    16     5     6   ar
    17     6     7   ar
    18     7    15    1
    19    15    16    2
    20    15    17   am
    21    17    19    1
    22    19    20   ar
    23    20    21   ar
    24    21    22   ar
    25    22    23    1
    26    22    24   ar
    27    24    26    1
    28    26    27    1
    29    26    28    1
    30    26    29    1
    31    24    25   ar
    32     7     8   ar
    33     8     9   ar
    34     9    10   ar
    35     9    11    1
    36    11    12    1
    37    12    13    1
    38    13    14    1
    39    10     2   ar
    40    38    32   ar
    41    10     5   ar
    42    25    19   ar
    43    14     8    1
    44    30    31    1
    45    41    42    1
    46    17    18    1
@<TRIPOS>MOLECULE
*****
 42 46 0 0 0
SMALL
GASTEIGER

@<TRIPOS>ATOM
      1 C          -7.4382  -18.3406   21.6496 C.3     1  UNL1        0.1333
      2 N          -6.9006  -17.1956   22.3856 N.ar    1  UNL1       -0.2950
      3 C          -5.9059  -16.3410   22.0157 C.ar    1  UNL1        0.2019
      4 N          -5.5817  -15.4341   22.9721 N.ar    1  UNL1       -0.2134
      5 C          -6.4424  -15.7241   23.9639 C.ar    1  UNL1        0.1033
      6 C          -6.5476  -15.0873   25.1981 C.ar    1  UNL1        0.0284
      7 C          -7.5232  -15.5479   26.1115 C.ar    1  UNL1        0.0922
      8 C          -8.3910  -16.6086   25.7299 C.ar    1  UNL1        0.1782
      9 C          -8.2347  -17.2475   24.4815 C.ar    1  UNL1        0.1897
     10 C          -7.2449  -16.7727   23.6166 C.ar    1  UNL1        0.1173
     11 O          -9.0801  -18.3085   24.1438 O.3     1  UNL1       -0.4669
     12 C          -9.9088  -18.9312   25.1268 C.3     1  UNL1        0.2527
     13 C         -10.4820  -17.8751   26.0785 C.3     1  UNL1        0.2526
     14 O          -9.4380  -17.0264   26.5615 O.3     1  UNL1       -0.4682
     15 C          -7.6486  -14.8848   27.4266 C.2     1  UNL1        0.2526
     16 O          -6.8053  -15.1498   28.3258 O.2     1  UNL1       -0.2697
     17 N          -8.7163  -13.9542   27.6821 N.am    1  UNL1       -0.2803
     18 H          -9.3735  -13.7197   26.9052 H       1  UNL1        0.1552
     19 C          -8.8944  -13.2562   28.9259 C.ar    1  UNL1        0.0506
     20 C         -10.0997  -13.3341   29.6429 C.ar    1  UNL1        0.0170
     21 C         -10.2566  -12.6238   30.8343 C.ar    1  UNL1        0.0309
     22 C          -9.2216  -11.8195   31.3174 C.ar    1  UNL1        0.1441
     23 F          -9.4021  -11.1357   32.4761 F       1  UNL1       -0.2042
     24 C          -8.0142  -11.7113   30.6033 C.ar    1  UNL1        0.1000
     25 C          -7.8664  -12.4272   29.3997 C.ar    1  UNL1        0.0208
     26 C          -6.9112  -10.8237   31.1288 C.3     1  UNL1        0.4207
     27 F          -7.2863   -9.4912   31.1429 F       1  UNL1       -0.1658
     28 F          -5.7911  -10.9543   30.3278 F       1  UNL1       -0.1658
     29 F          -6.5901  -11.2040   32.4192 F       1  UNL1       -0.1658
     30 N          -5.2384  -16.3718   20.7465 N.pl3   1  UNL1       -0.2815
     31 H          -5.6115  -15.7535   19.9917 H       1  UNL1        0.1551
     32 C          -4.2105  -17.3183   20.4053 C.ar    1  UNL1        0.0887
     33 C          -4.5281  -18.5028   19.7136 C.ar    1  UNL1        0.1543
     34 F          -5.8035  -18.7653   19.3317 F       1  UNL1       -0.2028
     35 C          -3.5270  -19.4173   19.3888 C.ar    1  UNL1        0.0307
     36 C          -2.2008  -19.1591   19.7309 C.ar    1  UNL1        0.0014
     37 C          -1.8523  -17.9703   20.3900 C.ar    1  UNL1        0.0189
     38 C          -2.8662  -17.0481   20.7385 C.ar    1  UNL1        0.0717
     39 CL         -2.4756  -15.5765   21.6347 Cl      1  UNL1       -0.0811
     40 C          -0.4087  -17.7441   20.7676 C.3     1  UNL1        0.1645
     41 O           0.2053  -16.8941   19.8380 O.3     1  UNL1       -0.3772
     42 H           0.4158  -17.4472   19.0412 H       1  UNL1        0.2109
@<TRIPOS>BOND
     1     1     2    1
     2     2     3   ar
     3     3    30    1
     4    30    32    1
     5    32    33   ar
     6    33    34    1
     7    33    35   ar
     8    35    36   ar
     9    36    37   ar
    10    37    40    1
    11    40    41    1
    12    37    38   ar
    13    38    39    1
    14     3     4   ar
    15     4     5   ar
    16     5     6   ar
    17     6     7   ar
    18     7    15    1
    19    15    16    2
    20    15    17   am
    21    17    19    1
    22    19    20   ar
    23    20    21   ar
    24    21    22   ar
    25    22    23    1
    26    22    24   ar
    27    24    26    1
    28    26    27    1
    29    26    28    1
    30    26    29    1
    31    24    25   ar
    32     7     8   ar
    33     8     9   ar
    34     9    10   ar
    35     9    11    1
    36    11    12    1
    37    12    13    1
    38    13    14    1
    39    10     2   ar
    40    38    32   ar
    41    10     5   ar
    42    25    19   ar
    43    14     8    1
    44    30    31    1
    45    41    42    1
    46    17    18    1
@<TRIPOS>MOLECULE
*****
 42 46 0 0 0
SMALL
GASTEIGER

@<TRIPOS>ATOM
      1 C          -6.4426  -19.0356   21.3257 C.3     1  UNL1        0.1333
      2 N          -5.6196  -18.2106   22.2110 N.ar    1  UNL1       -0.2950
      3 C          -4.2617  -18.1756   22.3180 C.ar    1  UNL1        0.2019
      4 N          -3.8128  -17.3617   23.3070 N.ar    1  UNL1       -0.2134
      5 C          -4.9488  -16.8456   23.8089 C.ar    1  UNL1        0.1033
      6 C          -5.0672  -15.9349   24.8560 C.ar    1  UNL1        0.0284
      7 C          -6.3613  -15.5141   25.2382 C.ar    1  UNL1        0.0922
      8 C          -7.4917  -15.9935   24.5198 C.ar    1  UNL1        0.1782
      9 C          -7.3334  -16.9376   23.4829 C.ar    1  UNL1        0.1897
     10 C          -6.0373  -17.3410   23.1503 C.ar    1  UNL1        0.1173
     11 O          -8.4634  -17.4169   22.8138 O.3     1  UNL1       -0.4669
     12 C          -9.7764  -17.1843   23.3262 C.3     1  UNL1        0.2527
     13 C          -9.8728  -15.7683   23.9054 C.3     1  UNL1        0.2526
     14 O          -8.7820  -15.5235   24.7963 O.3     1  UNL1       -0.4682
     15 C          -6.5063  -14.5488   26.3481 C.2     1  UNL1        0.2526
     16 O          -5.5927  -13.7016   26.5425 O.2     1  UNL1       -0.2697
     17 N          -7.6675  -14.5741   27.1979 N.am    1  UNL1       -0.2803
     18 H          -8.4288  -15.2569   26.9861 H       1  UNL1        0.1552
     19 C          -7.8899  -13.6588   28.2835 C.ar    1  UNL1        0.0506
     20 C          -9.1492  -13.5398   28.8944 C.ar    1  UNL1        0.0170
     21 C          -9.3455  -12.6229   29.9284 C.ar    1  UNL1        0.0309
     22 C          -8.2956  -11.8067   30.3561 C.ar    1  UNL1        0.1441
     23 F          -8.5149  -10.9202   31.3606 F       1  UNL1       -0.2042
     24 C          -7.0323  -11.8955   29.7432 C.ar    1  UNL1        0.1000
     25 C          -6.8444  -12.8196   28.6973 C.ar    1  UNL1        0.0208
     26 C          -5.9120  -10.9940   30.2043 C.3     1  UNL1        0.4207
     27 F          -6.3524   -9.7012   30.4306 F       1  UNL1       -0.1658
     28 F          -4.9218  -10.9559   29.2393 F       1  UNL1       -0.1658
     29 F          -5.3776  -11.4888   31.3800 F       1  UNL1       -0.1658
     30 N          -3.3617  -18.9201   21.4854 N.pl3   1  UNL1       -0.2815
     31 H          -3.6088  -19.9137   21.2782 H       1  UNL1        0.1551
     32 C          -2.0717  -18.4384   21.0699 C.ar    1  UNL1        0.0887
     33 C          -1.9207  -17.1283   20.5768 C.ar    1  UNL1        0.1543
     34 F          -2.9810  -16.2843   20.5067 F       1  UNL1       -0.2028
     35 C          -0.6677  -16.6691   20.1730 C.ar    1  UNL1        0.0307
     36 C           0.4493  -17.4970   20.2696 C.ar    1  UNL1        0.0014
     37 C           0.3326  -18.7951   20.7896 C.ar    1  UNL1        0.0189
     38 C          -0.9391  -19.2724   21.1831 C.ar    1  UNL1        0.0717
     39 CL         -1.1375  -20.9264   21.7718 Cl      1  UNL1       -0.0811
     40 C           1.5622  -19.6681   20.8495 C.3     1  UNL1        0.1645
     41 O           1.5415  -20.6025   19.8054 O.3     1  UNL1       -0.3772
     42 H           0.9170  -21.3234   20.0801 H       1  UNL1        0.2109
@<TRIPOS>BOND
     1     1     2    1
     2     2     3   ar
     3     3    30    1
     4    30    32    1
     5    32    33   ar
     6    33    34    1
     7    33    35   ar
     8    35    36   ar
     9    36    37   ar
    10    37    40    1
    11    40    41    1
    12    37    38   ar
    13    38    39    1
    14     3     4   ar
    15     4     5   ar
    16     5     6   ar
    17     6     7   ar
    18     7    15    1
    19    15    16    2
    20    15    17   am
    21    17    19    1
    22    19    20   ar
    23    20    21   ar
    24    21    22   ar
    25    22    23    1
    26    22    24   ar
    27    24    26    1
    28    26    27    1
    29    26    28    1
    30    26    29    1
    31    24    25   ar
    32     7     8   ar
    33     8     9   ar
    34     9    10   ar
    35     9    11    1
    36    11    12    1
    37    12    13    1
    38    13    14    1
    39    10     2   ar
    40    38    32   ar
    41    10     5   ar
    42    25    19   ar
    43    14     8    1
    44    30    31    1
    45    41    42    1
    46    17    18    1
@<TRIPOS>MOLECULE
*****
 42 46 0 0 0
SMALL
GASTEIGER

@<TRIPOS>ATOM
      1 C          -7.3411  -18.2890   21.7234 C.3     1  UNL1        0.1333
      2 N          -6.8200  -17.1379   22.4617 N.ar    1  UNL1       -0.2950
      3 C          -5.8237  -16.2806   22.1027 C.ar    1  UNL1        0.2019
      4 N          -5.5182  -15.3675   23.0593 N.ar    1  UNL1       -0.2134
      5 C          -6.3927  -15.6564   24.0394 C.ar    1  UNL1        0.1033
      6 C          -6.5197  -15.0140   25.2686 C.ar    1  UNL1        0.0284
      7 C          -7.5069  -15.4745   26.1693 C.ar    1  UNL1        0.0922
      8 C          -8.3641  -16.5410   25.7799 C.ar    1  UNL1        0.1782
      9 C          -8.1858  -17.1855   24.5372 C.ar    1  UNL1        0.1897
     10 C          -7.1851  -16.7104   23.6852 C.ar    1  UNL1        0.1173
     11 O          -9.0211  -18.2520   24.1920 O.3     1  UNL1       -0.4669
     12 C          -9.8619  -18.8736   25.1654 C.3     1  UNL1        0.2527
     13 C         -10.4544  -17.8154   26.1029 C.3     1  UNL1        0.2526
     14 O          -9.4217  -16.9596   26.5974 O.3     1  UNL1       -0.4682
     15 C          -7.6555  -14.8054   27.4789 C.2     1  UNL1        0.2526
     16 O          -6.8084  -15.0404   28.3830 O.2     1  UNL1       -0.2697
     17 N          -8.7494  -13.9030   27.7239 N.am    1  UNL1       -0.2803
     18 H          -9.4101  -13.6925   26.9429 H       1  UNL1        0.1552
     19 C          -8.9513  -13.2010   28.9618 C.ar    1  UNL1        0.0506
     20 C          -8.0101  -12.2743   29.4396 C.ar    1  UNL1        0.0170
     21 C          -8.2169  -11.6269   30.6589 C.ar    1  UNL1        0.0309
     22 C          -9.3546  -11.9041   31.4206 C.ar    1  UNL1        0.1441
     23 F          -9.5290  -11.2638   32.6049 F       1  UNL1       -0.2042
     24 C         -10.2989  -12.8446   30.9698 C.ar    1  UNL1        0.1000
     25 C         -10.0798  -13.4970   29.7412 C.ar    1  UNL1        0.0208
     26 C         -11.5148  -13.1471   31.8128 C.3     1  UNL1        0.4207
     27 F         -11.3117  -12.8227   33.1432 F       1  UNL1       -0.1658
     28 F         -11.8101  -14.4959   31.7317 F       1  UNL1       -0.1658
     29 F         -12.5931  -12.4199   31.3424 F       1  UNL1       -0.1658
     30 N          -5.1367  -16.3147   20.8440 N.pl3   1  UNL1       -0.2815
     31 H          -5.4426  -15.6366   20.1107 H       1  UNL1        0.1551
     32 C          -4.1845  -17.3289   20.4789 C.ar    1  UNL1        0.0887
     33 C          -4.5873  -18.4565   19.7381 C.ar    1  UNL1        0.1543
     34 F          -5.8739  -18.5988   19.3311 F       1  UNL1       -0.2028
     35 C          -3.6594  -19.4373   19.3903 C.ar    1  UNL1        0.0307
     36 C          -2.3219  -19.3020   19.7579 C.ar    1  UNL1        0.0014
     37 C          -1.8875  -18.1714   20.4666 C.ar    1  UNL1        0.0189
     38 C          -2.8278  -17.1828   20.8383 C.ar    1  UNL1        0.0717
     39 CL         -2.3319  -15.7829   21.7953 Cl      1  UNL1       -0.0811
     40 C          -0.4361  -18.0790   20.8699 C.3     1  UNL1        0.1645
     41 O          -0.1661  -18.9798   21.9088 O.3     1  UNL1       -0.3772
     42 H          -0.5084  -18.5644   22.7428 H       1  UNL1        0.2109
@<TRIPOS>BOND
     1     1     2    1
     2     2     3   ar
     3     3    30    1
     4    30    32    1
     5    32    33   ar
     6    33    34    1
     7    33    35   ar
     8    35    36   ar
     9    36    37   ar
    10    37    40    1
    11    40    41    1
    12    37    38   ar
    13    38    39    1
    14     3     4   ar
    15     4     5   ar
    16     5     6   ar
    17     6     7   ar
    18     7    15    1
    19    15    16    2
    20    15    17   am
    21    17    19    1
    22    19    20   ar
    23    20    21   ar
    24    21    22   ar
    25    22    23    1
    26    22    24   ar
    27    24    26    1
    28    26    27    1
    29    26    28    1
    30    26    29    1
    31    24    25   ar
    32     7     8   ar
    33     8     9   ar
    34     9    10   ar
    35     9    11    1
    36    11    12    1
    37    12    13    1
    38    13    14    1
    39    10     2   ar
    40    38    32   ar
    41    10     5   ar
    42    25    19   ar
    43    14     8    1
    44    30    31    1
    45    41    42    1
    46    17    18    1
@<TRIPOS>MOLECULE
*****
 42 46 0 0 0
SMALL
GASTEIGER

@<TRIPOS>ATOM
      1 C          -6.5185  -19.0101   21.4443 C.3     1  UNL1        0.1333
      2 N          -5.6524  -18.1687   22.2712 N.ar    1  UNL1       -0.2950
      3 C          -4.2909  -18.1289   22.3056 C.ar    1  UNL1        0.2019
      4 N          -3.7929  -17.2976   23.2560 N.ar    1  UNL1       -0.2134
      5 C          -4.9024  -16.7757   23.8086 C.ar    1  UNL1        0.1033
      6 C          -4.9682  -15.8480   24.8453 C.ar    1  UNL1        0.0284
      7 C          -6.2416  -15.4238   25.2884 C.ar    1  UNL1        0.0922
      8 C          -7.4069  -15.9176   24.6387 C.ar    1  UNL1        0.1782
      9 C          -7.3006  -16.8785   23.6107 C.ar    1  UNL1        0.1897
     10 C          -6.0227  -17.2845   23.2167 C.ar    1  UNL1        0.1173
     11 O          -8.4629  -17.3714   23.0102 O.3     1  UNL1       -0.4669
     12 C          -9.7477  -17.1332   23.5874 C.3     1  UNL1        0.2527
     13 C          -9.8179  -15.7080   24.1474 C.3     1  UNL1        0.2526
     14 O          -8.6823  -15.4459   24.9752 O.3     1  UNL1       -0.4682
     15 C          -6.3309  -14.4405   26.3884 C.2     1  UNL1        0.2526
     16 O          -5.3821  -13.6272   26.5575 O.2     1  UNL1       -0.2697
     17 N          -7.4780  -14.4105   27.2568 N.am    1  UNL1       -0.2803
     18 H          -8.2686  -15.0656   27.0658 H       1  UNL1        0.1552
     19 C          -7.6469  -13.4744   28.3344 C.ar    1  UNL1        0.0506
     20 C          -6.5786  -12.6864   28.7935 C.ar    1  UNL1        0.0170
     21 C          -6.7624  -11.8051   29.8604 C.ar    1  UNL1        0.0309
     22 C          -8.0061  -11.7083   30.4890 C.ar    1  UNL1        0.1441
     23 F          -8.1564  -10.8467   31.5272 F       1  UNL1       -0.2042
     24 C          -9.0833  -12.5043   30.0580 C.ar    1  UNL1        0.1000
     25 C          -8.8877  -13.3944   28.9844 C.ar    1  UNL1        0.0208
     26 C         -10.4169  -12.4017   30.7591 C.3     1  UNL1        0.4207
     27 F         -10.3009  -11.7958   31.9985 F       1  UNL1       -0.1658
     28 F         -10.9436  -13.6679   30.9389 F       1  UNL1       -0.1658
     29 F         -11.2875  -11.6564   29.9849 F       1  UNL1       -0.1658
     30 N          -3.4338  -18.8850   21.4390 N.pl3   1  UNL1       -0.2815
     31 H          -3.7131  -19.8686   21.2250 H       1  UNL1        0.1551
     32 C          -2.1427  -18.4321   20.9955 C.ar    1  UNL1        0.0887
     33 C          -1.9883  -17.1531   20.4274 C.ar    1  UNL1        0.1543
     34 F          -3.0462  -16.3115   20.3091 F       1  UNL1       -0.2028
     35 C          -0.7343  -16.7219   19.9968 C.ar    1  UNL1        0.0307
     36 C           0.3804  -17.5460   20.1405 C.ar    1  UNL1        0.0014
     37 C           0.2603  -18.8116   20.7349 C.ar    1  UNL1        0.0189
     38 C          -1.0125  -19.2615   21.1561 C.ar    1  UNL1        0.0717
     39 CL         -1.2152  -20.8780   21.8398 Cl      1  UNL1       -0.0811
     40 C           1.4874  -19.6832   20.8444 C.3     1  UNL1        0.1645
     41 O           1.5150  -20.6110   19.7947 O.3     1  UNL1       -0.3772
     42 H           0.8801  -21.3345   20.0365 H       1  UNL1        0.2109
@<TRIPOS>BOND
     1     1     2    1
     2     2     3   ar
     3     3    30    1
     4    30    32    1
     5    32    33   ar
     6    33    34    1
     7    33    35   ar
     8    35    36   ar
     9    36    37   ar
    10    37    40    1
    11    40    41    1
    12    37    38   ar
    13    38    39    1
    14     3     4   ar
    15     4     5   ar
    16     5     6   ar
    17     6     7   ar
    18     7    15    1
    19    15    16    2
    20    15    17   am
    21    17    19    1
    22    19    20   ar
    23    20    21   ar
    24    21    22   ar
    25    22    23    1
    26    22    24   ar
    27    24    26    1
    28    26    27    1
    29    26    28    1
    30    26    29    1
    31    24    25   ar
    32     7     8   ar
    33     8     9   ar
    34     9    10   ar
    35     9    11    1
    36    11    12    1
    37    12    13    1
    38    13    14    1
    39    10     2   ar
    40    38    32   ar
    41    10     5   ar
    42    25    19   ar
    43    14     8    1
    44    30    31    1
    45    41    42    1
    46    17    18    1
