@<TRIPOS>MOLECULE
*****
 35 39 0 0 0
SMALL
GASTEIGER

@<TRIPOS>ATOM
      1 C          49.9577   10.4816  -22.7986 C.2     1  UNL1        0.2495
      2 O          50.8309    9.5802  -22.9218 O.2     1  UNL1       -0.2699
      3 N          49.0637   10.7591  -23.8951 N.am    1  UNL1       -0.2760
      4 C          47.6906   11.2246  -23.6611 C.3     1  UNL1        0.0954
      5 C          47.3696   12.4491  -24.5359 C.3     1  UNL1        0.0399
      6 C          48.0694   12.4423  -25.9359 C.3     1  UNL1        0.0645
      7 C          48.5146   11.0034  -26.3081 C.3     1  UNL1        0.0399
      8 C          49.4752   10.4116  -25.2621 C.3     1  UNL1        0.0954
      9 C          49.3282   13.3851  -25.9151 C.3     1  UNL1        0.0477
     10 C          48.9175   14.8248  -25.9679 C.ar    1  UNL1        0.0220
     11 C          49.6009   15.9706  -25.6343 C.ar    1  UNL1        0.0923
     12 N          48.8521   17.0305  -26.0310 N.ar    1  UNL1       -0.2534
     13 N          47.7440   16.5972  -26.6265 N.ar    1  UNL1       -0.1651
     14 C          47.7860   15.2544  -26.5880 C.ar    1  UNL1        0.1515
     15 C          46.8360   14.3089  -27.1519 C.2     1  UNL1        0.2650
     16 O          45.8365   14.6977  -27.8120 O.2     1  UNL1       -0.2684
     17 N          47.0913   12.9098  -26.9495 N.am    1  UNL1       -0.3023
     18 H          46.4428   12.2219  -27.3962 H       1  UNL1        0.1497
     19 C          48.5726   11.5858  -16.9433 C.ar    1  UNL1        0.2249
     20 C          49.0952   12.8789  -16.8428 C.ar    1  UNL1        0.0577
     21 C          49.7024   13.4666  -17.9550 C.ar    1  UNL1        0.0063
     22 C          49.7828   12.7578  -19.1606 C.ar    1  UNL1        0.0183
     23 C          50.3876   13.3143  -20.2948 C.ar    1  UNL1        0.0074
     24 C          50.4597   12.5860  -21.4895 C.ar    1  UNL1        0.0345
     25 I          51.4737   13.4925  -23.1192 I       1  UNL1       -0.0424
     26 C          49.9195   11.2815  -21.5544 C.ar    1  UNL1        0.0604
     27 C          49.3129   10.7301  -20.4131 C.ar    1  UNL1        0.0241
     28 C          49.2448   11.4567  -19.2229 C.ar    1  UNL1        0.0846
     29 N          48.6591   10.9106  -18.1237 N.ar    1  UNL1       -0.2117
     30 C          48.4157   11.2372  -14.4988 C.3     1  UNL1        0.2542
     31 O          47.9670   11.0002  -15.8279 O.3     1  UNL1       -0.4561
     32 C          49.2236   18.4530  -25.8932 C.3     1  UNL1        0.0867
     33 C          50.6020   18.5579  -25.2151 C.3     1  UNL1        0.0244
     34 C          48.1677   19.1823  -25.0408 C.3     1  UNL1        0.0244
     35 C          49.2952   19.1326  -27.2778 C.3     1  UNL1        0.0244
@<TRIPOS>BOND
     1    30    31    1
     2    31    19    1
     3    19    20   ar
     4    20    21   ar
     5    21    22   ar
     6    22    23   ar
     7    23    24   ar
     8    24    25    1
     9    24    26   ar
    10    26     1    1
    11     1     2    2
    12     1     3   am
    13     3     4    1
    14     4     5    1
    15     5     6    1
    16     6     7    1
    17     7     8    1
    18     6     9    1
    19     9    10    1
    20    10    11   ar
    21    11    12   ar
    22    12    32    1
    23    32    33    1
    24    32    34    1
    25    32    35    1
    26    12    13   ar
    27    13    14   ar
    28    14    15    1
    29    15    16    2
    30    15    17   am
    31    26    27   ar
    32    27    28   ar
    33    28    29   ar
    34    29    19   ar
    35    28    22   ar
    36     8     3    1
    37    14    10   ar
    38    17     6    1
    39    17    18    1
@<TRIPOS>MOLECULE
*****
 35 39 0 0 0
SMALL
GASTEIGER

@<TRIPOS>ATOM
      1 C          49.3445   12.5137  -23.6507 C.2     1  UNL1        0.2495
      2 O          49.1314   11.8539  -22.5973 O.2     1  UNL1       -0.2699
      3 N          48.4430   13.5775  -24.0169 N.am    1  UNL1       -0.2760
      4 C          48.9168   14.7633  -24.7425 C.3     1  UNL1        0.0954
      5 C          48.0083   15.0698  -25.9459 C.3     1  UNL1        0.0399
      6 C          46.4991   14.7223  -25.7191 C.3     1  UNL1        0.0645
      7 C          46.1926   14.6194  -24.2017 C.3     1  UNL1        0.0399
      8 C          47.0636   13.5553  -23.5116 C.3     1  UNL1        0.0954
      9 C          46.1497   13.3543  -26.4122 C.3     1  UNL1        0.0477
     10 C          46.0360   13.5219  -27.8965 C.ar    1  UNL1        0.0220
     11 C          46.0930   12.6001  -28.9154 C.ar    1  UNL1        0.0923
     12 N          45.7579   13.2340  -30.0675 N.ar    1  UNL1       -0.2534
     13 N          45.4634   14.5055  -29.8089 N.ar    1  UNL1       -0.1651
     14 C          45.6324   14.6786  -28.4868 C.ar    1  UNL1        0.1515
     15 C          45.3883   15.8760  -27.6988 C.2     1  UNL1        0.2650
     16 O          44.9216   16.9221  -28.2220 O.2     1  UNL1       -0.2684
     17 N          45.6764   15.8163  -26.2927 N.am    1  UNL1       -0.3023
     18 H          45.4542   16.6549  -25.7091 H       1  UNL1        0.1497
     19 C          52.0008    9.7373  -28.4106 C.ar    1  UNL1        0.2249
     20 C          53.3223   10.1273  -28.1722 C.ar    1  UNL1        0.0577
     21 C          53.6166   10.9307  -27.0682 C.ar    1  UNL1        0.0063
     22 C          52.5877   11.3386  -26.2093 C.ar    1  UNL1        0.0183
     23 C          52.8455   12.1470  -25.0949 C.ar    1  UNL1        0.0074
     24 C          51.8006   12.5458  -24.2512 C.ar    1  UNL1        0.0345
     25 I          52.2923   13.8402  -22.6423 I       1  UNL1       -0.0424
     26 C          50.4769   12.1313  -24.5228 C.ar    1  UNL1        0.0604
     27 C          50.2258   11.3191  -25.6417 C.ar    1  UNL1        0.0241
     28 C          51.2684   10.9253  -26.4827 C.ar    1  UNL1        0.0846
     29 N          51.0122   10.1428  -27.5651 N.ar    1  UNL1       -0.2117
     30 C          52.7173    8.2609  -30.2624 C.3     1  UNL1        0.2542
     31 O          51.7098    8.9345  -29.5173 O.3     1  UNL1       -0.4561
     32 C          45.6628   12.6105  -31.4027 C.3     1  UNL1        0.0867
     33 C          46.5377   11.3439  -31.4388 C.3     1  UNL1        0.0244
     34 C          46.1457   13.6070  -32.4736 C.3     1  UNL1        0.0244
     35 C          44.2028   12.2179  -31.7165 C.3     1  UNL1        0.0244
@<TRIPOS>BOND
     1    30    31    1
     2    31    19    1
     3    19    20   ar
     4    20    21   ar
     5    21    22   ar
     6    22    23   ar
     7    23    24   ar
     8    24    25    1
     9    24    26   ar
    10    26     1    1
    11     1     2    2
    12     1     3   am
    13     3     4    1
    14     4     5    1
    15     5     6    1
    16     6     7    1
    17     7     8    1
    18     6     9    1
    19     9    10    1
    20    10    11   ar
    21    11    12   ar
    22    12    32    1
    23    32    33    1
    24    32    34    1
    25    32    35    1
    26    12    13   ar
    27    13    14   ar
    28    14    15    1
    29    15    16    2
    30    15    17   am
    31    26    27   ar
    32    27    28   ar
    33    28    29   ar
    34    29    19   ar
    35    28    22   ar
    36     8     3    1
    37    14    10   ar
    38    17     6    1
    39    17    18    1
@<TRIPOS>MOLECULE
*****
 35 39 0 0 0
SMALL
GASTEIGER

@<TRIPOS>ATOM
      1 C          49.4415   15.7677  -24.1103 C.2     1  UNL1        0.2495
      2 O          50.2037   16.7658  -23.9956 O.2     1  UNL1       -0.2699
      3 N          49.7630   14.5452  -23.4172 N.am    1  UNL1       -0.2760
      4 C          48.7101   13.6428  -22.9332 C.3     1  UNL1        0.0954
      5 C          49.0012   12.1891  -23.3446 C.3     1  UNL1        0.0399
      6 C          50.5225   11.8232  -23.3858 C.3     1  UNL1        0.0645
      7 C          51.3425   12.8351  -22.5427 C.3     1  UNL1        0.0399
      8 C          51.1580   14.2790  -23.0408 C.3     1  UNL1        0.0954
      9 C          51.0429   11.8438  -24.8699 C.3     1  UNL1        0.0477
     10 C          50.5834   10.6271  -25.6134 C.ar    1  UNL1        0.0220
     11 C          50.4887   10.3763  -26.9623 C.ar    1  UNL1        0.0923
     12 N          50.1845    9.0633  -27.1197 N.ar    1  UNL1       -0.2534
     13 N          50.1155    8.4743  -25.9286 N.ar    1  UNL1       -0.1651
     14 C          50.3595    9.4276  -25.0131 C.ar    1  UNL1        0.1515
     15 C          50.4504    9.2844  -23.5689 C.2     1  UNL1        0.2650
     16 O          50.3411    8.1599  -23.0127 O.2     1  UNL1       -0.2684
     17 N          50.6942   10.4715  -22.7975 N.am    1  UNL1       -0.3023
     18 H          50.8138   10.3704  -21.7637 H       1  UNL1        0.1497
     19 C          46.0500   14.2597  -28.9730 C.ar    1  UNL1        0.2249
     20 C          44.9980   15.1614  -28.7847 C.ar    1  UNL1        0.0577
     21 C          45.0189   16.0279  -27.6893 C.ar    1  UNL1        0.0063
     22 C          46.0919   15.9874  -26.7895 C.ar    1  UNL1        0.0183
     23 C          46.1443   16.8388  -25.6785 C.ar    1  UNL1        0.0074
     24 C          47.2256   16.7789  -24.7896 C.ar    1  UNL1        0.0345
     25 I          47.1600   18.0543  -23.0940 I       1  UNL1       -0.0424
     26 C          48.2719   15.8552  -25.0124 C.ar    1  UNL1        0.0604
     27 C          48.2134   15.0052  -26.1298 C.ar    1  UNL1        0.0241
     28 C          47.1335   15.0648  -27.0126 C.ar    1  UNL1        0.0846
     29 N          47.0860   14.2338  -28.0882 N.ar    1  UNL1       -0.2117
     30 C          46.2824   11.9990  -29.9512 C.3     1  UNL1        0.2542
     31 O          46.0250   13.3931  -30.0695 O.3     1  UNL1       -0.4561
     32 C          50.0185    8.3614  -28.4083 C.3     1  UNL1        0.0867
     33 C          49.7315    6.8716  -28.1456 C.3     1  UNL1        0.0244
     34 C          51.3051    8.5040  -29.2434 C.3     1  UNL1        0.0244
     35 C          48.8423    8.9632  -29.2073 C.3     1  UNL1        0.0244
@<TRIPOS>BOND
     1    30    31    1
     2    31    19    1
     3    19    20   ar
     4    20    21   ar
     5    21    22   ar
     6    22    23   ar
     7    23    24   ar
     8    24    25    1
     9    24    26   ar
    10    26     1    1
    11     1     2    2
    12     1     3   am
    13     3     4    1
    14     4     5    1
    15     5     6    1
    16     6     7    1
    17     7     8    1
    18     6     9    1
    19     9    10    1
    20    10    11   ar
    21    11    12   ar
    22    12    32    1
    23    32    33    1
    24    32    34    1
    25    32    35    1
    26    12    13   ar
    27    13    14   ar
    28    14    15    1
    29    15    16    2
    30    15    17   am
    31    26    27   ar
    32    27    28   ar
    33    28    29   ar
    34    29    19   ar
    35    28    22   ar
    36     8     3    1
    37    14    10   ar
    38    17     6    1
    39    17    18    1
@<TRIPOS>MOLECULE
*****
 35 39 0 0 0
SMALL
GASTEIGER

@<TRIPOS>ATOM
      1 C          45.4112   11.9648  -25.0066 C.2     1  UNL1        0.2495
      2 O          44.2072   11.9213  -24.6341 O.2     1  UNL1       -0.2699
      3 N          46.4592   12.0148  -24.0178 N.am    1  UNL1       -0.2760
      4 C          47.7726   11.4065  -24.2665 C.3     1  UNL1        0.0954
      5 C          48.9064   12.3851  -23.9139 C.3     1  UNL1        0.0399
      6 C          48.5895   13.3311  -22.7078 C.3     1  UNL1        0.0645
      7 C          47.4376   12.7430  -21.8507 C.3     1  UNL1        0.0399
      8 C          46.1568   12.5342  -22.6771 C.3     1  UNL1        0.0954
      9 C          48.1707   14.7534  -23.2324 C.3     1  UNL1        0.0477
     10 C          49.3669   15.5212  -23.7054 C.ar    1  UNL1        0.0220
     11 C          49.4676   16.6144  -24.5336 C.ar    1  UNL1        0.0923
     12 N          50.7566   17.0378  -24.5069 N.ar    1  UNL1       -0.2534
     13 N          51.4603   16.2758  -23.6736 N.ar    1  UNL1       -0.1651
     14 C          50.6126   15.3538  -23.1860 C.ar    1  UNL1        0.1515
     15 C          50.8792   14.3213  -22.1974 C.2     1  UNL1        0.2650
     16 O          52.0038   14.2217  -21.6395 O.2     1  UNL1       -0.2684
     17 N          49.8038   13.4306  -21.8603 N.am    1  UNL1       -0.3023
     18 H          49.9705   12.7192  -21.1124 H       1  UNL1        0.1497
     19 C          46.8458    9.6879  -30.5001 C.ar    1  UNL1        0.2249
     20 C          46.8963   10.8863  -31.2189 C.ar    1  UNL1        0.0577
     21 C          46.6381   12.0941  -30.5666 C.ar    1  UNL1        0.0063
     22 C          46.3314   12.0959  -29.1997 C.ar    1  UNL1        0.0183
     23 C          46.0636   13.2876  -28.5140 C.ar    1  UNL1        0.0074
     24 C          45.7559   13.2656  -27.1474 C.ar    1  UNL1        0.0345
     25 I          45.2830   15.1201  -26.2290 I       1  UNL1       -0.0424
     26 C          45.7150   12.0353  -26.4529 C.ar    1  UNL1        0.0604
     27 C          45.9862   10.8438  -27.1469 C.ar    1  UNL1        0.0241
     28 C          46.2898   10.8680  -28.5094 C.ar    1  UNL1        0.0846
     29 N          46.5461    9.7078  -29.1710 N.ar    1  UNL1       -0.2117
     30 C          48.3595    7.8179  -31.0778 C.3     1  UNL1        0.2542
     31 O          47.1033    8.4809  -31.1565 O.3     1  UNL1       -0.4561
     32 C          51.3000   18.2042  -25.2314 C.3     1  UNL1        0.0867
     33 C          52.4662   18.8075  -24.4270 C.3     1  UNL1        0.0244
     34 C          50.1932   19.2599  -25.4144 C.3     1  UNL1        0.0244
     35 C          51.8181   17.7857  -26.6244 C.3     1  UNL1        0.0244
@<TRIPOS>BOND
     1    30    31    1
     2    31    19    1
     3    19    20   ar
     4    20    21   ar
     5    21    22   ar
     6    22    23   ar
     7    23    24   ar
     8    24    25    1
     9    24    26   ar
    10    26     1    1
    11     1     2    2
    12     1     3   am
    13     3     4    1
    14     4     5    1
    15     5     6    1
    16     6     7    1
    17     7     8    1
    18     6     9    1
    19     9    10    1
    20    10    11   ar
    21    11    12   ar
    22    12    32    1
    23    32    33    1
    24    32    34    1
    25    32    35    1
    26    12    13   ar
    27    13    14   ar
    28    14    15    1
    29    15    16    2
    30    15    17   am
    31    26    27   ar
    32    27    28   ar
    33    28    29   ar
    34    29    19   ar
    35    28    22   ar
    36     8     3    1
    37    14    10   ar
    38    17     6    1
    39    17    18    1
@<TRIPOS>MOLECULE
*****
 35 39 0 0 0
SMALL
GASTEIGER

@<TRIPOS>ATOM
      1 C          48.4700   11.8439  -23.3747 C.2     1  UNL1        0.2495
      2 O          47.9138   10.9482  -24.0664 O.2     1  UNL1       -0.2699
      3 N          49.1592   11.4794  -22.1620 N.am    1  UNL1       -0.2760
      4 C          50.3320   12.2303  -21.6956 C.3     1  UNL1        0.0954
      5 C          50.1983   12.5868  -20.2048 C.3     1  UNL1        0.0399
      6 C          49.4446   11.5135  -19.3505 C.3     1  UNL1        0.0645
      7 C          49.4448   10.1456  -20.0827 C.3     1  UNL1        0.0399
      8 C          48.7868   10.2378  -21.4704 C.3     1  UNL1        0.0954
      9 C          47.9594   11.9673  -19.1011 C.3     1  UNL1        0.0477
     10 C          47.8981   13.0451  -18.0625 C.ar    1  UNL1        0.0220
     11 C          46.9162   13.9630  -17.7718 C.ar    1  UNL1        0.0923
     12 N          47.2708   14.6017  -16.6282 N.ar    1  UNL1       -0.2534
     13 N          48.4169   14.1015  -16.1736 N.ar    1  UNL1       -0.1651
     14 C          48.7967   13.1535  -17.0475 C.ar    1  UNL1        0.1515
     15 C          49.9541   12.2762  -16.9751 C.2     1  UNL1        0.2650
     16 O          50.7375   12.3034  -15.9895 O.2     1  UNL1       -0.2684
     17 N          50.1600   11.3570  -18.0597 N.am    1  UNL1       -0.3023
     18 H          50.9591   10.6863  -17.9909 H       1  UNL1        0.1497
     19 C          50.5239   17.3200  -25.1680 C.ar    1  UNL1        0.2249
     20 C          49.2985   17.9886  -25.2503 C.ar    1  UNL1        0.0577
     21 C          48.1183   17.3075  -24.9436 C.ar    1  UNL1        0.0063
     22 C          48.1708   15.9623  -24.5561 C.ar    1  UNL1        0.0183
     23 C          47.0075   15.2472  -24.2446 C.ar    1  UNL1        0.0074
     24 C          47.0833   13.9014  -23.8626 C.ar    1  UNL1        0.0345
     25 I          45.2522   12.8916  -23.4969 I       1  UNL1       -0.0424
     26 C          48.3397   13.2583  -23.7893 C.ar    1  UNL1        0.0604
     27 C          49.5028   13.9823  -24.1018 C.ar    1  UNL1        0.0241
     28 C          49.4245   15.3225  -24.4851 C.ar    1  UNL1        0.0846
     29 N          50.5569   16.0114  -24.7893 N.ar    1  UNL1       -0.2117
     30 C          52.5383   18.5817  -24.4809 C.3     1  UNL1        0.2542
     31 O          51.7028   18.0043  -25.4772 O.3     1  UNL1       -0.4561
     32 C          46.4858   15.6466  -15.9409 C.3     1  UNL1        0.0867
     33 C          46.6893   15.5213  -14.4198 C.3     1  UNL1        0.0244
     34 C          44.9928   15.4788  -16.2816 C.3     1  UNL1        0.0244
     35 C          46.9398   17.0520  -16.3912 C.3     1  UNL1        0.0244
@<TRIPOS>BOND
     1    30    31    1
     2    31    19    1
     3    19    20   ar
     4    20    21   ar
     5    21    22   ar
     6    22    23   ar
     7    23    24   ar
     8    24    25    1
     9    24    26   ar
    10    26     1    1
    11     1     2    2
    12     1     3   am
    13     3     4    1
    14     4     5    1
    15     5     6    1
    16     6     7    1
    17     7     8    1
    18     6     9    1
    19     9    10    1
    20    10    11   ar
    21    11    12   ar
    22    12    32    1
    23    32    33    1
    24    32    34    1
    25    32    35    1
    26    12    13   ar
    27    13    14   ar
    28    14    15    1
    29    15    16    2
    30    15    17   am
    31    26    27   ar
    32    27    28   ar
    33    28    29   ar
    34    29    19   ar
    35    28    22   ar
    36     8     3    1
    37    14    10   ar
    38    17     6    1
    39    17    18    1
@<TRIPOS>MOLECULE
*****
 35 39 0 0 0
SMALL
GASTEIGER

@<TRIPOS>ATOM
      1 C          48.2575   10.7182  -24.4255 C.2     1  UNL1        0.2495
      2 O          49.0078    9.7338  -24.6669 O.2     1  UNL1       -0.2699
      3 N          47.4531   11.2746  -25.4846 N.am    1  UNL1       -0.2760
      4 C          46.1455   11.8843  -25.2098 C.3     1  UNL1        0.0954
      5 C          46.0251   13.2569  -25.8945 C.3     1  UNL1        0.0399
      6 C          46.7735   13.3613  -27.2653 C.3     1  UNL1        0.0645
      7 C          47.0386   11.9460  -27.8428 C.3     1  UNL1        0.0399
      8 C          47.8694   11.0800  -26.8801 C.3     1  UNL1        0.0954
      9 C          48.1443   14.1090  -27.0766 C.3     1  UNL1        0.0477
     10 C          47.9306   15.5833  -26.9182 C.ar    1  UNL1        0.0220
     11 C          48.7458   16.5626  -26.4009 C.ar    1  UNL1        0.0923
     12 N          48.1607   17.7620  -26.6467 N.ar    1  UNL1       -0.2534
     13 N          47.0297   17.5776  -27.3229 N.ar    1  UNL1       -0.1651
     14 C          46.8919   16.2509  -27.4880 C.ar    1  UNL1        0.1515
     15 C          45.8483   15.5385  -28.2077 C.2     1  UNL1        0.2650
     16 O          44.9365   16.1538  -28.8208 O.2     1  UNL1       -0.2684
     17 N          45.9075   14.1032  -28.2152 N.am    1  UNL1       -0.3023
     18 H          45.1921   13.5844  -28.7740 H       1  UNL1        0.1497
     19 C          45.9373   12.1631  -18.9528 C.ar    1  UNL1        0.2249
     20 C          47.0262   12.8777  -18.4436 C.ar    1  UNL1        0.0577
     21 C          48.1749   13.0337  -19.2228 C.ar    1  UNL1        0.0063
     22 C          48.2274   12.4745  -20.5062 C.ar    1  UNL1        0.0183
     23 C          49.3640   12.6080  -21.3138 C.ar    1  UNL1        0.0074
     24 C          49.3958   12.0377  -22.5931 C.ar    1  UNL1        0.0345
     25 I          51.1995   12.2279  -23.6960 I       1  UNL1       -0.0424
     26 C          48.2758   11.3230  -23.0752 C.ar    1  UNL1        0.0604
     27 C          47.1384   11.1943  -22.2601 C.ar    1  UNL1        0.0241
     28 C          47.1101   11.7611  -20.9845 C.ar    1  UNL1        0.0846
     29 N          46.0052   11.6260  -20.2032 N.ar    1  UNL1       -0.2117
     30 C          43.4843   11.9293  -18.7291 C.3     1  UNL1        0.2542
     31 O          44.7900   12.0078  -18.1696 O.3     1  UNL1       -0.4561
     32 C          48.7116   19.0840  -26.2871 C.3     1  UNL1        0.0867
     33 C          47.7641   19.7791  -25.2921 C.3     1  UNL1        0.0244
     34 C          48.8566   19.9456  -27.5559 C.3     1  UNL1        0.0244
     35 C          50.1014   18.9336  -25.6313 C.3     1  UNL1        0.0244
@<TRIPOS>BOND
     1    30    31    1
     2    31    19    1
     3    19    20   ar
     4    20    21   ar
     5    21    22   ar
     6    22    23   ar
     7    23    24   ar
     8    24    25    1
     9    24    26   ar
    10    26     1    1
    11     1     2    2
    12     1     3   am
    13     3     4    1
    14     4     5    1
    15     5     6    1
    16     6     7    1
    17     7     8    1
    18     6     9    1
    19     9    10    1
    20    10    11   ar
    21    11    12   ar
    22    12    32    1
    23    32    33    1
    24    32    34    1
    25    32    35    1
    26    12    13   ar
    27    13    14   ar
    28    14    15    1
    29    15    16    2
    30    15    17   am
    31    26    27   ar
    32    27    28   ar
    33    28    29   ar
    34    29    19   ar
    35    28    22   ar
    36     8     3    1
    37    14    10   ar
    38    17     6    1
    39    17    18    1
@<TRIPOS>MOLECULE
*****
 35 39 0 0 0
SMALL
GASTEIGER

@<TRIPOS>ATOM
      1 C          49.1247   11.4262  -22.8350 C.2     1  UNL1        0.2495
      2 O          48.6197   10.5186  -23.5502 O.2     1  UNL1       -0.2699
      3 N          49.6206   11.1014  -21.5208 N.am    1  UNL1       -0.2760
      4 C          50.7584   11.8221  -20.9350 C.3     1  UNL1        0.0954
      5 C          50.4421   12.2717  -19.4978 C.3     1  UNL1        0.0399
      6 C          49.5208   11.2875  -18.7026 C.3     1  UNL1        0.0645
      7 C          49.5457    9.8804  -19.3558 C.3     1  UNL1        0.0399
      8 C          49.0894    9.9217  -20.8246 C.3     1  UNL1        0.0954
      9 C          48.0427   11.8251  -18.6866 C.3     1  UNL1        0.0477
     10 C          47.8996   12.9639  -17.7238 C.ar    1  UNL1        0.0220
     11 C          46.9393   13.9428  -17.6208 C.ar    1  UNL1        0.0923
     12 N          47.1690   14.6302  -16.4736 N.ar    1  UNL1       -0.2534
     13 N          48.2130   14.1038  -15.8383 N.ar    1  UNL1       -0.1651
     14 C          48.6557   13.0891  -16.6005 C.ar    1  UNL1        0.1515
     15 C          49.7422   12.1637  -16.3220 C.2     1  UNL1        0.2650
     16 O          50.3840   12.2117  -15.2396 O.2     1  UNL1       -0.2684
     17 N          50.0434   11.1735  -17.3182 N.am    1  UNL1       -0.3023
     18 H          50.7874   10.4708  -17.1041 H       1  UNL1        0.1497
     19 C          47.1446   17.2014  -23.2201 C.ar    1  UNL1        0.2249
     20 C          48.0433   17.6690  -24.1839 C.ar    1  UNL1        0.0577
     21 C          49.0050   16.8029  -24.7092 C.ar    1  UNL1        0.0063
     22 C          49.0618   15.4747  -24.2675 C.ar    1  UNL1        0.0183
     23 C          50.0149   14.5794  -24.7695 C.ar    1  UNL1        0.0074
     24 C          50.0556   13.2562  -24.3111 C.ar    1  UNL1        0.0345
     25 I          51.5949   12.0107  -25.0762 I       1  UNL1       -0.0424
     26 C          49.1304   12.8182  -23.3364 C.ar    1  UNL1        0.0604
     27 C          48.1760   13.7214  -22.8384 C.ar    1  UNL1        0.0241
     28 C          48.1393   15.0404  -23.2947 C.ar    1  UNL1        0.0846
     29 N          47.2138   15.9064  -22.8018 N.ar    1  UNL1       -0.2117
     30 C          45.0100   18.4380  -23.4097 C.3     1  UNL1        0.2542
     31 O          46.1845   18.0714  -22.6956 O.3     1  UNL1       -0.4561
     32 C          46.3562   15.7498  -15.9575 C.3     1  UNL1        0.0867
     33 C          46.8969   17.0765  -16.5218 C.3     1  UNL1        0.0244
     34 C          46.4259   15.7722  -14.4187 C.3     1  UNL1        0.0244
     35 C          44.8803   15.5911  -16.3824 C.3     1  UNL1        0.0244
@<TRIPOS>BOND
     1    30    31    1
     2    31    19    1
     3    19    20   ar
     4    20    21   ar
     5    21    22   ar
     6    22    23   ar
     7    23    24   ar
     8    24    25    1
     9    24    26   ar
    10    26     1    1
    11     1     2    2
    12     1     3   am
    13     3     4    1
    14     4     5    1
    15     5     6    1
    16     6     7    1
    17     7     8    1
    18     6     9    1
    19     9    10    1
    20    10    11   ar
    21    11    12   ar
    22    12    32    1
    23    32    33    1
    24    32    34    1
    25    32    35    1
    26    12    13   ar
    27    13    14   ar
    28    14    15    1
    29    15    16    2
    30    15    17   am
    31    26    27   ar
    32    27    28   ar
    33    28    29   ar
    34    29    19   ar
    35    28    22   ar
    36     8     3    1
    37    14    10   ar
    38    17     6    1
    39    17    18    1
@<TRIPOS>MOLECULE
*****
 35 39 0 0 0
SMALL
GASTEIGER

@<TRIPOS>ATOM
      1 C          46.1641   11.9716  -20.5040 C.2     1  UNL1        0.2495
      2 O          45.1195   11.2960  -20.2974 O.2     1  UNL1       -0.2699
      3 N          46.2474   12.8110  -21.6731 N.am    1  UNL1       -0.2760
      4 C          47.0186   14.0609  -21.6618 C.3     1  UNL1        0.0954
      5 C          47.9412   14.1477  -22.8901 C.3     1  UNL1        0.0399
      6 C          47.3571   13.4865  -24.1830 C.3     1  UNL1        0.0645
      7 C          45.8170   13.3409  -24.0644 C.3     1  UNL1        0.0399
      8 C          45.4130   12.4992  -22.8415 C.3     1  UNL1        0.0954
      9 C          47.9967   12.0659  -24.3991 C.3     1  UNL1        0.0477
     10 C          49.3964   12.1845  -24.9195 C.ar    1  UNL1        0.0220
     11 C          50.4345   11.2825  -24.9297 C.ar    1  UNL1        0.0923
     12 N          51.4379   11.8134  -25.6731 N.ar    1  UNL1       -0.2534
     13 N          51.0608   12.9950  -26.1546 N.ar    1  UNL1       -0.1651
     14 C          49.8176   13.2187  -25.6955 C.ar    1  UNL1        0.1515
     15 C          48.9442   14.3462  -25.9791 C.2     1  UNL1        0.2650
     16 O          49.2892   15.2599  -26.7742 O.2     1  UNL1       -0.2684
     17 N          47.6594   14.3694  -25.3369 N.am    1  UNL1       -0.3023
     18 H          47.0042   15.1485  -25.5758 H       1  UNL1        0.1497
     19 C          49.4120   13.1809  -15.4632 C.ar    1  UNL1        0.2249
     20 C          50.4981   12.3334  -15.7032 C.ar    1  UNL1        0.0577
     21 C          50.5255   11.5583  -16.8648 C.ar    1  UNL1        0.0063
     22 C          49.4669   11.6358  -17.7792 C.ar    1  UNL1        0.0183
     23 C          49.4593   10.8707  -18.9524 C.ar    1  UNL1        0.0074
     24 C          48.3886   10.9616  -19.8514 C.ar    1  UNL1        0.0345
     25 I          48.4397    9.6940  -21.5533 I       1  UNL1       -0.0424
     26 C          47.3080   11.8301  -19.5762 C.ar    1  UNL1        0.0604
     27 C          47.3230   12.5958  -18.3981 C.ar    1  UNL1        0.0241
     28 C          48.3898   12.5013  -17.5023 C.ar    1  UNL1        0.0846
     29 N          48.3909   13.2442  -16.3632 N.ar    1  UNL1       -0.2117
     30 C          48.1774   14.3128  -13.6421 C.3     1  UNL1        0.2542
     31 O          49.3872   13.9540  -14.2989 O.3     1  UNL1       -0.4561
     32 C          52.7312   11.1656  -25.9705 C.3     1  UNL1        0.0867
     33 C          52.7056    9.7139  -25.4577 C.3     1  UNL1        0.0244
     34 C          53.8684   11.9415  -25.2791 C.3     1  UNL1        0.0244
     35 C          52.9960   11.1533  -27.4916 C.3     1  UNL1        0.0244
@<TRIPOS>BOND
     1    30    31    1
     2    31    19    1
     3    19    20   ar
     4    20    21   ar
     5    21    22   ar
     6    22    23   ar
     7    23    24   ar
     8    24    25    1
     9    24    26   ar
    10    26     1    1
    11     1     2    2
    12     1     3   am
    13     3     4    1
    14     4     5    1
    15     5     6    1
    16     6     7    1
    17     7     8    1
    18     6     9    1
    19     9    10    1
    20    10    11   ar
    21    11    12   ar
    22    12    32    1
    23    32    33    1
    24    32    34    1
    25    32    35    1
    26    12    13   ar
    27    13    14   ar
    28    14    15    1
    29    15    16    2
    30    15    17   am
    31    26    27   ar
    32    27    28   ar
    33    28    29   ar
    34    29    19   ar
    35    28    22   ar
    36     8     3    1
    37    14    10   ar
    38    17     6    1
    39    17    18    1
@<TRIPOS>MOLECULE
*****
 35 39 0 0 0
SMALL
GASTEIGER

@<TRIPOS>ATOM
      1 C          46.0735   14.6793  -25.4175 C.2     1  UNL1        0.2495
      2 O          44.8869   15.1013  -25.3533 O.2     1  UNL1       -0.2699
      3 N          46.3775   13.3434  -24.9686 N.am    1  UNL1       -0.2760
      4 C          47.4528   12.5569  -25.5866 C.3     1  UNL1        0.0954
      5 C          48.3663   11.9381  -24.5142 C.3     1  UNL1        0.0399
      6 C          47.6285   11.5342  -23.1941 C.3     1  UNL1        0.0645
      7 C          46.1050   11.3926  -23.4508 C.3     1  UNL1        0.0399
      8 C          45.4911   12.6951  -23.9926 C.3     1  UNL1        0.0954
      9 C          47.8681   12.6247  -22.0863 C.3     1  UNL1        0.0477
     10 C          49.2495   12.5130  -21.5176 C.ar    1  UNL1        0.0220
     11 C          50.0109   13.4161  -20.8133 C.ar    1  UNL1        0.0923
     12 N          51.1197   12.7696  -20.3731 N.ar    1  UNL1       -0.2534
     13 N          51.0702   11.4930  -20.7448 N.ar    1  UNL1       -0.1651
     14 C          49.9307   11.3385  -21.4405 C.ar    1  UNL1        0.1515
     15 C          49.3882   10.1190  -22.0174 C.2     1  UNL1        0.2650
     16 O          49.9640    9.0091  -21.8668 O.2     1  UNL1       -0.2684
     17 N          48.1552   10.2206  -22.7475 N.am    1  UNL1       -0.3023
     18 H          47.7305    9.3409  -23.1204 H       1  UNL1        0.1497
     19 C          51.3155   17.7999  -24.9653 C.ar    1  UNL1        0.2249
     20 C          51.2889   18.4391  -26.2087 C.ar    1  UNL1        0.0577
     21 C          50.2205   18.2115  -27.0792 C.ar    1  UNL1        0.0063
     22 C          49.1855   17.3466  -26.7008 C.ar    1  UNL1        0.0183
     23 C          48.1006   17.0924  -27.5495 C.ar    1  UNL1        0.0074
     24 C          47.0781   16.2211  -27.1517 C.ar    1  UNL1        0.0345
     25 I          45.5272   15.8418  -28.5506 I       1  UNL1       -0.0424
     26 C          47.1381   15.5934  -25.8868 C.ar    1  UNL1        0.0604
     27 C          48.2286   15.8543  -25.0399 C.ar    1  UNL1        0.0241
     28 C          49.2478   16.7207  -25.4396 C.ar    1  UNL1        0.0846
     29 N          50.3005   16.9618  -24.6130 N.ar    1  UNL1       -0.2117
     30 C          53.1911   19.2005  -24.1638 C.3     1  UNL1        0.2542
     31 O          52.3870   18.0288  -24.0972 O.3     1  UNL1       -0.4561
     32 C          52.1948   13.3574  -19.5489 C.3     1  UNL1        0.0867
     33 C          52.0333   12.8917  -18.0902 C.3     1  UNL1        0.0244
     34 C          52.1153   14.8944  -19.6162 C.3     1  UNL1        0.0244
     35 C          53.5804   12.9119  -20.0647 C.3     1  UNL1        0.0244
@<TRIPOS>BOND
     1    30    31    1
     2    31    19    1
     3    19    20   ar
     4    20    21   ar
     5    21    22   ar
     6    22    23   ar
     7    23    24   ar
     8    24    25    1
     9    24    26   ar
    10    26     1    1
    11     1     2    2
    12     1     3   am
    13     3     4    1
    14     4     5    1
    15     5     6    1
    16     6     7    1
    17     7     8    1
    18     6     9    1
    19     9    10    1
    20    10    11   ar
    21    11    12   ar
    22    12    32    1
    23    32    33    1
    24    32    34    1
    25    32    35    1
    26    12    13   ar
    27    13    14   ar
    28    14    15    1
    29    15    16    2
    30    15    17   am
    31    26    27   ar
    32    27    28   ar
    33    28    29   ar
    34    29    19   ar
    35    28    22   ar
    36     8     3    1
    37    14    10   ar
    38    17     6    1
    39    17    18    1
