@<TRIPOS>MOLECULE
*****
 60 64 0 0 0
SMALL
GASTEIGER

@<TRIPOS>ATOM
      1 C          50.1938   14.2419  -22.8999 C.ar    1  UNL1       -0.0099
      2 C          51.0518   13.7810  -23.9338 C.ar    1  UNL1        0.0880
      3 CL         50.6209   14.0128  -25.6349 Cl      1  UNL1       -0.0794
      4 C          52.2852   13.1751  -23.6135 C.ar    1  UNL1        0.1577
      5 C          52.7059   13.1250  -22.2881 C.ar    1  UNL1        0.0676
      6 C          51.8813   13.5718  -21.2619 C.ar    1  UNL1        0.1395
      7 F          52.3303   13.4710  -19.9843 F       1  UNL1       -0.2044
      8 C          50.6048   14.0967  -21.5405 C.ar    1  UNL1        0.0135
      9 C          49.1301   16.3358  -23.8085 C.3     1  UNL1        0.0050
     10 C          48.8861   14.9263  -23.2698 C.3     1  UNL1        0.0271
     11 O          53.1265   12.6179  -24.5886 O.3     1  UNL1       -0.4513
     12 C          52.7395   11.6547  -25.5351 C.ar    1  UNL1        0.1598
     13 C          53.0627   11.8897  -26.8749 C.ar    1  UNL1        0.0390
     14 C          52.6422   11.0119  -27.8752 C.ar    1  UNL1        0.0077
     15 C          51.8907    9.8711  -27.5508 C.ar    1  UNL1        0.0548
     16 C          51.6070    9.6054  -26.2010 C.ar    1  UNL1        0.0235
     17 C          52.0369   10.4766  -25.1865 C.ar    1  UNL1        0.0993
     18 C          51.4386    8.9295  -28.6032 C.2     1  UNL1        0.2458
     19 O          50.4713    8.1588  -28.3594 O.2     1  UNL1       -0.2701
     20 N          52.0755    8.9061  -29.8963 N.am    1  UNL1       -0.3040
     21 H          52.7103    9.7030  -30.1302 H       1  UNL1        0.1496
     22 C          51.8818    7.8531  -30.9132 C.3     1  UNL1        0.0572
     23 C          50.4505    7.2873  -30.8307 C.3     1  UNL1        0.0196
     24 C          52.9157    6.7268  -30.7179 C.3     1  UNL1        0.0196
     25 C          52.0853    8.4650  -32.3148 C.3     1  UNL1        0.0196
     26 N          51.8236   10.1268  -23.8116 N.pl3   1  UNL1       -0.2120
     27 H          52.5103   10.4330  -23.0878 H       1  UNL1        0.1738
     28 S          50.3808    9.3297  -23.2737 S.O2    1  UNL1        0.0745
     29 O          50.5390    8.9608  -21.8249 O.2     1  UNL1       -0.1499
     30 O          50.1946    8.0759  -24.0807 O.2     1  UNL1       -0.1499
     31 C          48.9713   10.3759  -23.4788 C.ar    1  UNL1        0.1356
     32 C          48.8635   11.1746  -24.6253 C.ar    1  UNL1        0.0207
     33 C          47.7650   12.0176  -24.8053 C.ar    1  UNL1       -0.0028
     34 C          46.7402   12.0750  -23.8386 C.ar    1  UNL1       -0.0216
     35 C          46.8473   11.2642  -22.6982 C.ar    1  UNL1        0.0085
     36 C          47.9472   10.4186  -22.5131 C.ar    1  UNL1        0.0762
     37 CL         47.9963    9.4233  -21.0615 Cl      1  UNL1       -0.0809
     38 C          45.5153   12.9667  -23.9585 C.3     1  UNL1        0.0224
     39 C          44.4059   12.5083  -24.8953 C.3     1  UNL1        0.0047
     40 C          45.2992   13.6790  -25.2869 C.3     1  UNL1        0.0047
     41 C          49.7228   14.4919  -20.3705 C.3     1  UNL1        0.1379
     42 C          49.3478   13.3033  -19.5461 C.2     1  UNL1        0.3234
     43 O          48.8959   12.2677  -20.1070 O.2     1  UNL1       -0.2497
     44 O          49.4999   13.3559  -18.1575 O.3     1  UNL1       -0.4215
     45 C          50.0324   12.2786  -17.3880 C.3     1  UNL1        0.3207
     46 O          49.0184   11.7111  -16.5613 O.3     1  UNL1       -0.3070
     47 C          48.8235   12.4077  -15.3394 C.3     1  UNL1        0.2456
     48 C          50.1005   12.3831  -14.4411 C.3     1  UNL1        0.1781
     49 O          49.9572   11.4553  -13.3930 O.3     1  UNL1       -0.3790
     50 C          51.3724   12.0638  -15.2577 C.3     1  UNL1        0.1733
     51 O          52.5114   12.5094  -14.5675 O.3     1  UNL1       -0.3793
     52 C          51.2928   12.7545  -16.6219 C.3     1  UNL1        0.2106
     53 O          52.4387   12.4606  -17.3814 O.3     1  UNL1       -0.3766
     54 H          49.8068   10.5620  -13.8006 H       1  UNL1        0.2106
     55 H          52.6699   11.8627  -13.8311 H       1  UNL1        0.2105
     56 H          53.1532   13.0824  -17.0841 H       1  UNL1        0.2107
     57 C          48.2404   13.7844  -15.5709 C.2     1  UNL1        0.3439
     58 O          48.5296   14.7520  -14.8162 O.2     1  UNL1       -0.2475
     59 O          47.4177   13.9964  -16.6728 O.3     1  UNL1       -0.4785
     60 H          47.0368   14.9145  -16.8678 H       1  UNL1        0.2951
@<TRIPOS>BOND
     1     9    10    1
     2    10     1    1
     3     1     2   ar
     4     2     3    1
     5     2     4   ar
     6     4    11    1
     7    11    12    1
     8    12    13   ar
     9    13    14   ar
    10    14    15   ar
    11    15    18    1
    12    18    19    2
    13    18    20   am
    14    20    22    1
    15    22    23    1
    16    22    24    1
    17    22    25    1
    18    15    16   ar
    19    16    17   ar
    20    17    26    1
    21    26    28    1
    22    28    29    2
    23    28    30    2
    24    28    31    1
    25    31    32   ar
    26    32    33   ar
    27    33    34   ar
    28    34    38    1
    29    38    39    1
    30    39    40    1
    31    34    35   ar
    32    35    36   ar
    33    36    37    1
    34     4     5   ar
    35     5     6   ar
    36     6     7    1
    37     6     8   ar
    38     8    41    1
    39    41    42    1
    40    42    43    2
    41    42    44    1
    42    44    45    1
    43    45    46    1
    44    46    47    1
    45    47    57    1
    46    57    58    2
    47    57    59    1
    48    47    48    1
    49    48    49    1
    50    48    50    1
    51    50    51    1
    52    50    52    1
    53    52    53    1
    54     8     1   ar
    55    52    45    1
    56    17    12   ar
    57    36    31   ar
    58    40    38    1
    59    20    21    1
    60    26    27    1
    61    59    60    1
    62    49    54    1
    63    51    55    1
    64    53    56    1
@<TRIPOS>MOLECULE
*****
 60 64 0 0 0
SMALL
GASTEIGER

@<TRIPOS>ATOM
      1 C          48.9332   10.8045  -22.1631 C.ar    1  UNL1       -0.0099
      2 C          48.4231   11.6664  -23.1703 C.ar    1  UNL1        0.0880
      3 CL         49.1959   11.7531  -24.7604 Cl      1  UNL1       -0.0794
      4 C          47.2606   12.4286  -22.9286 C.ar    1  UNL1        0.1577
      5 C          46.5563   12.2554  -21.7411 C.ar    1  UNL1        0.0676
      6 C          47.0383   11.4157  -20.7433 C.ar    1  UNL1        0.1395
      7 F          46.3260   11.3078  -19.5922 F       1  UNL1       -0.2044
      8 C          48.2453   10.7114  -20.9156 C.ar    1  UNL1        0.0135
      9 C          49.7901    8.6467  -23.1381 C.3     1  UNL1        0.0050
     10 C          50.1662    9.9637  -22.4595 C.3     1  UNL1        0.0271
     11 O          46.7681   13.3646  -23.8508 O.3     1  UNL1       -0.4513
     12 C          46.5405   13.1132  -25.2140 C.ar    1  UNL1        0.1598
     13 C          46.0929   11.8394  -25.5769 C.ar    1  UNL1        0.0390
     14 C          45.9199   11.4992  -26.9194 C.ar    1  UNL1        0.0077
     15 C          46.1870   12.4357  -27.9307 C.ar    1  UNL1        0.0548
     16 C          46.5887   13.7318  -27.5679 C.ar    1  UNL1        0.0235
     17 C          46.7534   14.0869  -26.2189 C.ar    1  UNL1        0.0993
     18 C          46.0062   12.0882  -29.3609 C.2     1  UNL1        0.2458
     19 O          46.2127   10.9014  -29.7325 O.2     1  UNL1       -0.2701
     20 N          45.5784   13.0818  -30.3137 N.am    1  UNL1       -0.3040
     21 H          45.2045   13.9800  -29.9315 H       1  UNL1        0.1496
     22 C          45.6137   12.9144  -31.7805 C.3     1  UNL1        0.0572
     23 C          45.9345   14.2579  -32.4642 C.3     1  UNL1        0.0196
     24 C          44.2661   12.3636  -32.2867 C.3     1  UNL1        0.0196
     25 C          46.7216   11.9042  -32.1441 C.3     1  UNL1        0.0196
     26 N          47.0626   15.4447  -25.8739 N.pl3   1  UNL1       -0.2120
     27 H          46.2928   16.1011  -25.6177 H       1  UNL1        0.1738
     28 S          48.6943   16.0114  -25.7228 S.O2    1  UNL1        0.0745
     29 O          48.6880   17.5146  -25.6985 O.2     1  UNL1       -0.1499
     30 O          49.4782   15.5443  -26.9167 O.2     1  UNL1       -0.1499
     31 C          49.4419   15.3879  -24.2478 C.ar    1  UNL1        0.1356
     32 C          50.6407   14.6669  -24.3312 C.ar    1  UNL1        0.0207
     33 C          51.2452   14.1547  -23.1815 C.ar    1  UNL1       -0.0028
     34 C          50.6629   14.3601  -21.9139 C.ar    1  UNL1       -0.0216
     35 C          49.4688   15.0931  -21.8349 C.ar    1  UNL1        0.0085
     36 C          48.8588   15.6073  -22.9849 C.ar    1  UNL1        0.0762
     37 CL         47.3702   16.5285  -22.7957 Cl      1  UNL1       -0.0809
     38 C          51.2557   13.8341  -20.6170 C.3     1  UNL1        0.0224
     39 C          52.3005   14.6988  -19.9247 C.3     1  UNL1        0.0047
     40 C          52.7208   13.4196  -20.6382 C.3     1  UNL1        0.0047
     41 C          48.7571    9.8749  -19.7574 C.3     1  UNL1        0.1379
     42 C          49.7828   10.6161  -18.9626 C.2     1  UNL1        0.3234
     43 O          50.9588   10.7285  -19.4049 O.2     1  UNL1       -0.2497
     44 O          49.4251   11.1745  -17.7320 O.3     1  UNL1       -0.4215
     45 C          49.5322   12.5683  -17.4453 C.3     1  UNL1        0.3207
     46 O          50.3135   12.7742  -16.2703 O.3     1  UNL1       -0.3070
     47 C          49.5745   12.6448  -15.0647 C.3     1  UNL1        0.2456
     48 C          48.4402   13.7124  -14.9557 C.3     1  UNL1        0.1781
     49 O          48.8067   14.7432  -14.0709 O.3     1  UNL1       -0.3790
     50 C          48.0742   14.3059  -16.3342 C.3     1  UNL1        0.1733
     51 O          46.7878   14.8675  -16.2897 O.3     1  UNL1       -0.3793
     52 C          48.1193   13.2033  -17.3956 C.3     1  UNL1        0.2106
     53 O          47.8017   13.7331  -18.6585 O.3     1  UNL1       -0.3766
     54 H          49.6375   15.1595  -14.4219 H       1  UNL1        0.2106
     55 H          46.8686   15.7276  -15.8006 H       1  UNL1        0.2105
     56 H          46.8115   13.7775  -18.7156 H       1  UNL1        0.2107
     57 C          49.1233   11.2184  -14.8394 C.2     1  UNL1        0.3439
     58 O          49.8395   10.3993  -14.2023 O.2     1  UNL1       -0.2475
     59 O          47.8687   10.8238  -15.2933 O.3     1  UNL1       -0.4785
     60 H          47.5296    9.8831  -15.1309 H       1  UNL1        0.2951
@<TRIPOS>BOND
     1     9    10    1
     2    10     1    1
     3     1     2   ar
     4     2     3    1
     5     2     4   ar
     6     4    11    1
     7    11    12    1
     8    12    13   ar
     9    13    14   ar
    10    14    15   ar
    11    15    18    1
    12    18    19    2
    13    18    20   am
    14    20    22    1
    15    22    23    1
    16    22    24    1
    17    22    25    1
    18    15    16   ar
    19    16    17   ar
    20    17    26    1
    21    26    28    1
    22    28    29    2
    23    28    30    2
    24    28    31    1
    25    31    32   ar
    26    32    33   ar
    27    33    34   ar
    28    34    38    1
    29    38    39    1
    30    39    40    1
    31    34    35   ar
    32    35    36   ar
    33    36    37    1
    34     4     5   ar
    35     5     6   ar
    36     6     7    1
    37     6     8   ar
    38     8    41    1
    39    41    42    1
    40    42    43    2
    41    42    44    1
    42    44    45    1
    43    45    46    1
    44    46    47    1
    45    47    57    1
    46    57    58    2
    47    57    59    1
    48    47    48    1
    49    48    49    1
    50    48    50    1
    51    50    51    1
    52    50    52    1
    53    52    53    1
    54     8     1   ar
    55    52    45    1
    56    17    12   ar
    57    36    31   ar
    58    40    38    1
    59    20    21    1
    60    26    27    1
    61    59    60    1
    62    49    54    1
    63    51    55    1
    64    53    56    1
@<TRIPOS>MOLECULE
*****
 60 64 0 0 0
SMALL
GASTEIGER

@<TRIPOS>ATOM
      1 C          46.6588   11.4331  -28.5885 C.ar    1  UNL1       -0.0099
      2 C          47.5756   10.3565  -28.7227 C.ar    1  UNL1        0.0880
      3 CL         47.6161    9.3843  -30.2013 Cl      1  UNL1       -0.0794
      4 C          48.5009   10.0814  -27.6935 C.ar    1  UNL1        0.1577
      5 C          48.5834   10.9307  -26.5944 C.ar    1  UNL1        0.0676
      6 C          47.6959   11.9904  -26.4452 C.ar    1  UNL1        0.1395
      7 F          47.8024   12.7690  -25.3377 F       1  UNL1       -0.2044
      8 C          46.6995   12.2365  -27.4091 C.ar    1  UNL1        0.0135
      9 C          46.4070   12.4333  -30.8857 C.3     1  UNL1        0.0050
     10 C          45.6957   11.7347  -29.7271 C.3     1  UNL1        0.0271
     11 O          49.3635    8.9752  -27.7318 O.3     1  UNL1       -0.4513
     12 C          50.6764    8.9910  -28.2310 C.ar    1  UNL1        0.1598
     13 C          50.9334    8.2912  -29.4137 C.ar    1  UNL1        0.0390
     14 C          52.2297    8.2026  -29.9234 C.ar    1  UNL1        0.0077
     15 C          53.2996    8.8224  -29.2582 C.ar    1  UNL1        0.0548
     16 C          53.0375    9.5682  -28.0971 C.ar    1  UNL1        0.0235
     17 C          51.7342    9.6732  -27.5838 C.ar    1  UNL1        0.0993
     18 C          54.6814    8.7374  -29.7891 C.2     1  UNL1        0.2458
     19 O          55.1162    9.6721  -30.5147 O.2     1  UNL1       -0.2701
     20 N          55.5291    7.6171  -29.4656 N.am    1  UNL1       -0.3040
     21 H          55.2157    6.9894  -28.6908 H       1  UNL1        0.1496
     22 C          56.8086    7.3065  -30.1344 C.3     1  UNL1        0.0572
     23 C          56.6030    7.1998  -31.6582 C.3     1  UNL1        0.0196
     24 C          57.3952    5.9937  -29.5793 C.3     1  UNL1        0.0196
     25 C          57.8108    8.4457  -29.8551 C.3     1  UNL1        0.0196
     26 N          51.4803   10.5255  -26.4581 N.pl3   1  UNL1       -0.2120
     27 H          50.9332   11.4047  -26.5884 H       1  UNL1        0.1738
     28 S          51.9254   10.0803  -24.8425 S.O2    1  UNL1        0.0745
     29 O          53.0641   10.9527  -24.3927 O.2     1  UNL1       -0.1499
     30 O          52.3781    8.6474  -24.8460 O.2     1  UNL1       -0.1499
     31 C          50.5555   10.2616  -23.7408 C.ar    1  UNL1        0.1356
     32 C          49.9695    9.1227  -23.1721 C.ar    1  UNL1        0.0207
     33 C          48.8794    9.2390  -22.3074 C.ar    1  UNL1       -0.0028
     34 C          48.3527   10.5066  -21.9853 C.ar    1  UNL1       -0.0216
     35 C          48.9509   11.6445  -22.5481 C.ar    1  UNL1        0.0085
     36 C          50.0430   11.5325  -23.4163 C.ar    1  UNL1        0.0762
     37 CL         50.7437   13.0112  -24.0666 Cl      1  UNL1       -0.0809
     38 C          47.1686   10.7178  -21.0562 C.3     1  UNL1        0.0224
     39 C          46.4246   12.0421  -21.1620 C.3     1  UNL1        0.0047
     40 C          47.3204   11.7647  -19.9609 C.3     1  UNL1        0.0047
     41 C          45.7122   13.3588  -27.1470 C.3     1  UNL1        0.1379
     42 C          46.3036   14.6913  -27.4755 C.2     1  UNL1        0.3234
     43 O          45.9387   15.3002  -28.5182 O.2     1  UNL1       -0.2497
     44 O          47.2606   15.2464  -26.6211 O.3     1  UNL1       -0.4215
     45 C          48.4289   15.9197  -27.0881 C.3     1  UNL1        0.3207
     46 O          49.5052   15.7401  -26.1700 O.3     1  UNL1       -0.3070
     47 C          49.4861   16.6545  -25.0838 C.3     1  UNL1        0.2456
     48 C          49.6394   18.1335  -25.5605 C.3     1  UNL1        0.1781
     49 O          50.9445   18.6030  -25.3229 O.3     1  UNL1       -0.3790
     50 C          49.2845   18.2960  -27.0553 C.3     1  UNL1        0.1733
     51 O          48.9652   19.6356  -27.3307 O.3     1  UNL1       -0.3793
     52 C          48.0915   17.4001  -27.3994 C.3     1  UNL1        0.2106
     53 O          47.7665   17.5277  -28.7611 O.3     1  UNL1       -0.3766
     54 H          51.5710   18.0148  -25.8213 H       1  UNL1        0.2106
     55 H          49.8230   20.1351  -27.3508 H       1  UNL1        0.2105
     56 H          47.2080   18.3434  -28.8525 H       1  UNL1        0.2107
     57 C          48.3083   16.4050  -24.1675 C.2     1  UNL1        0.3439
     58 O          47.5556   17.3471  -23.7994 O.2     1  UNL1       -0.2475
     59 O          48.0186   15.1023  -23.7740 O.3     1  UNL1       -0.4785
     60 H          47.2195   14.9032  -23.1842 H       1  UNL1        0.2951
@<TRIPOS>BOND
     1     9    10    1
     2    10     1    1
     3     1     2   ar
     4     2     3    1
     5     2     4   ar
     6     4    11    1
     7    11    12    1
     8    12    13   ar
     9    13    14   ar
    10    14    15   ar
    11    15    18    1
    12    18    19    2
    13    18    20   am
    14    20    22    1
    15    22    23    1
    16    22    24    1
    17    22    25    1
    18    15    16   ar
    19    16    17   ar
    20    17    26    1
    21    26    28    1
    22    28    29    2
    23    28    30    2
    24    28    31    1
    25    31    32   ar
    26    32    33   ar
    27    33    34   ar
    28    34    38    1
    29    38    39    1
    30    39    40    1
    31    34    35   ar
    32    35    36   ar
    33    36    37    1
    34     4     5   ar
    35     5     6   ar
    36     6     7    1
    37     6     8   ar
    38     8    41    1
    39    41    42    1
    40    42    43    2
    41    42    44    1
    42    44    45    1
    43    45    46    1
    44    46    47    1
    45    47    57    1
    46    57    58    2
    47    57    59    1
    48    47    48    1
    49    48    49    1
    50    48    50    1
    51    50    51    1
    52    50    52    1
    53    52    53    1
    54     8     1   ar
    55    52    45    1
    56    17    12   ar
    57    36    31   ar
    58    40    38    1
    59    20    21    1
    60    26    27    1
    61    59    60    1
    62    49    54    1
    63    51    55    1
    64    53    56    1
@<TRIPOS>MOLECULE
*****
 60 64 0 0 0
SMALL
GASTEIGER

@<TRIPOS>ATOM
      1 C          47.8095   12.0502  -25.2449 C.ar    1  UNL1       -0.0099
      2 C          47.5574   12.8625  -24.1073 C.ar    1  UNL1        0.0880
      3 CL         46.4658   14.2518  -24.2140 Cl      1  UNL1       -0.0794
      4 C          48.1390   12.5393  -22.8630 C.ar    1  UNL1        0.1577
      5 C          48.8742   11.3655  -22.7289 C.ar    1  UNL1        0.0676
      6 C          49.1311   10.5565  -23.8300 C.ar    1  UNL1        0.1395
      7 F          49.8799    9.4385  -23.6474 F       1  UNL1       -0.2044
      8 C          48.6432   10.8999  -25.1054 C.ar    1  UNL1        0.0135
      9 C          45.7441   11.7838  -26.6607 C.3     1  UNL1        0.0050
     10 C          47.1414   12.3963  -26.5674 C.3     1  UNL1        0.0271
     11 O          48.0007   13.3576  -21.7315 O.3     1  UNL1       -0.4513
     12 C          48.2519   12.9569  -20.4087 C.ar    1  UNL1        0.1598
     13 C          47.4537   11.9426  -19.8713 C.ar    1  UNL1        0.0390
     14 C          47.5992   11.5495  -18.5401 C.ar    1  UNL1        0.0077
     15 C          48.5572   12.1636  -17.7176 C.ar    1  UNL1        0.0548
     16 C          49.3947   13.1479  -18.2678 C.ar    1  UNL1        0.0235
     17 C          49.2638   13.5411  -19.6100 C.ar    1  UNL1        0.0993
     18 C          48.7234   11.7549  -16.3020 C.2     1  UNL1        0.2458
     19 O          47.9271   10.9093  -15.8122 O.2     1  UNL1       -0.2701
     20 N          49.7916   12.2947  -15.4983 N.am    1  UNL1       -0.3040
     21 H          50.5523   12.8086  -15.9981 H       1  UNL1        0.1496
     22 C          49.8957   12.1580  -14.0316 C.3     1  UNL1        0.0572
     23 C          50.9929   13.0919  -13.4843 C.3     1  UNL1        0.0196
     24 C          50.1987   10.6950  -13.6527 C.3     1  UNL1        0.0196
     25 C          48.5495   12.5589  -13.3931 C.3     1  UNL1        0.0196
     26 N          50.1995   14.4718  -20.1724 N.pl3   1  UNL1       -0.2120
     27 H          50.2722   15.4348  -19.7766 H       1  UNL1        0.1738
     28 S          51.3312   14.0147  -21.4039 S.O2    1  UNL1        0.0745
     29 O          51.4690   12.5176  -21.4080 O.2     1  UNL1       -0.1499
     30 O          52.6649   14.6282  -21.0832 O.2     1  UNL1       -0.1499
     31 C          50.7928   14.5746  -22.9913 C.ar    1  UNL1        0.1356
     32 C          49.9400   15.6831  -23.0812 C.ar    1  UNL1        0.0207
     33 C          49.4920   16.1381  -24.3230 C.ar    1  UNL1       -0.0028
     34 C          49.8958   15.4936  -25.5103 C.ar    1  UNL1       -0.0216
     35 C          50.7594   14.3915  -25.4151 C.ar    1  UNL1        0.0085
     36 C          51.2100   13.9313  -24.1725 C.ar    1  UNL1        0.0762
     37 CL         52.3037   12.5518  -24.1431 Cl      1  UNL1       -0.0809
     38 C          49.4513   15.9247  -26.8983 C.3     1  UNL1        0.0224
     39 C          48.7978   17.2938  -27.0292 C.3     1  UNL1        0.0047
     40 C          47.9531   16.0311  -27.1485 C.3     1  UNL1        0.0047
     41 C          49.0266   10.0177  -26.2793 C.3     1  UNL1        0.1379
     42 C          50.3121   10.4631  -26.8974 C.2     1  UNL1        0.3234
     43 O          51.0558   11.2756  -26.2826 O.2     1  UNL1       -0.2497
     44 O          50.6737    9.9742  -28.1561 O.3     1  UNL1       -0.4215
     45 C          51.0320    8.6133  -28.3928 C.3     1  UNL1        0.3207
     46 O          52.4221    8.4159  -28.1431 O.3     1  UNL1       -0.3070
     47 C          53.2530    8.7624  -29.2412 C.3     1  UNL1        0.2456
     48 C          52.9654    7.8777  -30.4953 C.3     1  UNL1        0.1781
     49 O          53.9613    6.8966  -30.6546 O.3     1  UNL1       -0.3790
     50 C          51.5743    7.2099  -30.4217 C.3     1  UNL1        0.1733
     51 O          51.1504    6.8388  -31.7080 O.3     1  UNL1       -0.3793
     52 C          50.5679    8.1878  -29.8089 C.3     1  UNL1        0.2106
     53 O          49.2996    7.5874  -29.7230 O.3     1  UNL1       -0.3766
     54 H          53.9664    6.3373  -29.8336 H       1  UNL1        0.2106
     55 H          51.6658    6.0272  -31.9553 H       1  UNL1        0.2105
     56 H          48.8742    7.6751  -30.6157 H       1  UNL1        0.2107
     57 C          53.2371   10.2526  -29.5022 C.2     1  UNL1        0.3439
     58 O          53.1770   10.7100  -30.6756 O.2     1  UNL1       -0.2475
     59 O          53.2285   11.1305  -28.4228 O.3     1  UNL1       -0.4785
     60 H          53.1891   12.1322  -28.5681 H       1  UNL1        0.2951
@<TRIPOS>BOND
     1     9    10    1
     2    10     1    1
     3     1     2   ar
     4     2     3    1
     5     2     4   ar
     6     4    11    1
     7    11    12    1
     8    12    13   ar
     9    13    14   ar
    10    14    15   ar
    11    15    18    1
    12    18    19    2
    13    18    20   am
    14    20    22    1
    15    22    23    1
    16    22    24    1
    17    22    25    1
    18    15    16   ar
    19    16    17   ar
    20    17    26    1
    21    26    28    1
    22    28    29    2
    23    28    30    2
    24    28    31    1
    25    31    32   ar
    26    32    33   ar
    27    33    34   ar
    28    34    38    1
    29    38    39    1
    30    39    40    1
    31    34    35   ar
    32    35    36   ar
    33    36    37    1
    34     4     5   ar
    35     5     6   ar
    36     6     7    1
    37     6     8   ar
    38     8    41    1
    39    41    42    1
    40    42    43    2
    41    42    44    1
    42    44    45    1
    43    45    46    1
    44    46    47    1
    45    47    57    1
    46    57    58    2
    47    57    59    1
    48    47    48    1
    49    48    49    1
    50    48    50    1
    51    50    51    1
    52    50    52    1
    53    52    53    1
    54     8     1   ar
    55    52    45    1
    56    17    12   ar
    57    36    31   ar
    58    40    38    1
    59    20    21    1
    60    26    27    1
    61    59    60    1
    62    49    54    1
    63    51    55    1
    64    53    56    1
@<TRIPOS>MOLECULE
*****
 60 64 0 0 0
SMALL
GASTEIGER

@<TRIPOS>ATOM
      1 C          50.1785   14.4999  -23.6889 C.ar    1  UNL1       -0.0099
      2 C          51.0929   13.9534  -24.6284 C.ar    1  UNL1        0.0880
      3 CL         50.8389   14.1706  -26.3666 Cl      1  UNL1       -0.0794
      4 C          52.2445   13.2711  -24.1820 C.ar    1  UNL1        0.1577
      5 C          52.5362   13.2261  -22.8222 C.ar    1  UNL1        0.0676
      6 C          51.6547   13.7560  -21.8868 C.ar    1  UNL1        0.1395
      7 F          51.9753   13.6572  -20.5710 F       1  UNL1       -0.2044
      8 C          50.4506   14.3616  -22.2943 C.ar    1  UNL1        0.0135
      9 C          49.3533   16.6496  -24.7082 C.3     1  UNL1        0.0050
     10 C          48.9634   15.2643  -24.1932 C.3     1  UNL1        0.0271
     11 O          53.1299   12.6312  -25.0627 O.3     1  UNL1       -0.4513
     12 C          52.7746   11.6256  -25.9769 C.ar    1  UNL1        0.1598
     13 C          53.0658   11.8389  -27.3276 C.ar    1  UNL1        0.0390
     14 C          52.6722   10.9154  -28.2971 C.ar    1  UNL1        0.0077
     15 C          51.9806    9.7498  -27.9303 C.ar    1  UNL1        0.0548
     16 C          51.7305    9.5079  -26.5695 C.ar    1  UNL1        0.0235
     17 C          52.1340   10.4257  -25.5856 C.ar    1  UNL1        0.0993
     18 C          51.5576    8.7597  -28.9498 C.2     1  UNL1        0.2458
     19 O          50.6338    7.9493  -28.6686 O.2     1  UNL1       -0.2701
     20 N          52.1728    8.7333  -30.2533 N.am    1  UNL1       -0.3040
     21 H          52.7633    9.5538  -30.5192 H       1  UNL1        0.1496
     22 C          52.0139    7.6455  -31.2393 C.3     1  UNL1        0.0572
     23 C          53.1143    6.5839  -31.0457 C.3     1  UNL1        0.0196
     24 C          52.0623    8.2130  -32.6715 C.3     1  UNL1        0.0196
     25 C          50.6422    6.9719  -31.0271 C.3     1  UNL1        0.0196
     26 N          51.9585   10.1038  -24.1986 N.pl3   1  UNL1       -0.2120
     27 H          52.7318   10.2900  -23.5229 H       1  UNL1        0.1738
     28 S          50.4451    9.5446  -23.5637 S.O2    1  UNL1        0.0745
     29 O          50.5024    9.5830  -22.0619 O.2     1  UNL1       -0.1499
     30 O          50.2314    8.1256  -24.0094 O.2     1  UNL1       -0.1499
     31 C          49.1114   10.5497  -24.1418 C.ar    1  UNL1        0.1356
     32 C          49.1825   11.1274  -25.4166 C.ar    1  UNL1        0.0207
     33 C          48.1468   11.9344  -25.8917 C.ar    1  UNL1       -0.0028
     34 C          47.0063   12.1767  -25.0989 C.ar    1  UNL1       -0.0216
     35 C          46.9348   11.5859  -23.8279 C.ar    1  UNL1        0.0085
     36 C          47.9713   10.7774  -23.3472 C.ar    1  UNL1        0.0762
     37 CL         47.7950   10.0625  -21.7478 Cl      1  UNL1       -0.0809
     38 C          45.8390   13.0437  -25.5413 C.3     1  UNL1        0.0224
     39 C          45.3977   14.1556  -24.5992 C.3     1  UNL1        0.0047
     40 C          44.5369   12.9090  -24.7634 C.3     1  UNL1        0.0047
     41 C          49.4950   14.8478  -21.2202 C.3     1  UNL1        0.1379
     42 C          48.4641   13.8143  -20.9010 C.2     1  UNL1        0.3234
     43 O          47.4869   13.6410  -21.6797 O.2     1  UNL1       -0.2497
     44 O          48.5945   13.0520  -19.7365 O.3     1  UNL1       -0.4215
     45 C          49.0299   13.5956  -18.4910 C.3     1  UNL1        0.3207
     46 O          50.4269   13.3713  -18.3133 O.3     1  UNL1       -0.3070
     47 C          50.7360   12.0872  -17.7918 C.3     1  UNL1        0.2456
     48 C          50.1351   11.8739  -16.3665 C.3     1  UNL1        0.1781
     49 O          51.1308   11.9982  -15.3800 O.3     1  UNL1       -0.3790
     50 C          48.9794   12.8570  -16.0761 C.3     1  UNL1        0.1733
     51 O          48.1684   12.3547  -15.0454 O.3     1  UNL1       -0.3793
     52 C          48.1418   13.0523  -17.3429 C.3     1  UNL1        0.2106
     53 O          47.0939   13.9564  -17.0964 O.3     1  UNL1       -0.3766
     54 H          51.5177   12.9100  -15.4566 H       1  UNL1        0.2106
     55 H          48.6661   12.4930  -14.1976 H       1  UNL1        0.2105
     56 H          46.3614   13.4434  -16.6651 H       1  UNL1        0.2107
     57 C          50.4132   10.9916  -18.7840 C.2     1  UNL1        0.3439
     58 O          49.9226    9.8928  -18.4076 O.2     1  UNL1       -0.2475
     59 O          50.6069   11.2267  -20.1416 O.3     1  UNL1       -0.4785
     60 H          50.3724   10.5214  -20.8297 H       1  UNL1        0.2951
@<TRIPOS>BOND
     1     9    10    1
     2    10     1    1
     3     1     2   ar
     4     2     3    1
     5     2     4   ar
     6     4    11    1
     7    11    12    1
     8    12    13   ar
     9    13    14   ar
    10    14    15   ar
    11    15    18    1
    12    18    19    2
    13    18    20   am
    14    20    22    1
    15    22    23    1
    16    22    24    1
    17    22    25    1
    18    15    16   ar
    19    16    17   ar
    20    17    26    1
    21    26    28    1
    22    28    29    2
    23    28    30    2
    24    28    31    1
    25    31    32   ar
    26    32    33   ar
    27    33    34   ar
    28    34    38    1
    29    38    39    1
    30    39    40    1
    31    34    35   ar
    32    35    36   ar
    33    36    37    1
    34     4     5   ar
    35     5     6   ar
    36     6     7    1
    37     6     8   ar
    38     8    41    1
    39    41    42    1
    40    42    43    2
    41    42    44    1
    42    44    45    1
    43    45    46    1
    44    46    47    1
    45    47    57    1
    46    57    58    2
    47    57    59    1
    48    47    48    1
    49    48    49    1
    50    48    50    1
    51    50    51    1
    52    50    52    1
    53    52    53    1
    54     8     1   ar
    55    52    45    1
    56    17    12   ar
    57    36    31   ar
    58    40    38    1
    59    20    21    1
    60    26    27    1
    61    59    60    1
    62    49    54    1
    63    51    55    1
    64    53    56    1
@<TRIPOS>MOLECULE
*****
 60 64 0 0 0
SMALL
GASTEIGER

@<TRIPOS>ATOM
      1 C          48.0731   11.6320  -23.9095 C.ar    1  UNL1       -0.0099
      2 C          48.7625   12.0280  -25.0865 C.ar    1  UNL1        0.0880
      3 CL         48.2281   13.4371  -26.0149 Cl      1  UNL1       -0.0794
      4 C          49.9152   11.3280  -25.5019 C.ar    1  UNL1        0.1577
      5 C          50.4346   10.3164  -24.7000 C.ar    1  UNL1        0.0676
      6 C          49.7753    9.9149  -23.5437 C.ar    1  UNL1        0.1395
      7 F          50.3111    8.9019  -22.8152 F       1  UNL1       -0.2044
      8 C          48.5717   10.5307  -23.1503 C.ar    1  UNL1        0.0135
      9 C          45.6708   12.2049  -24.4017 C.3     1  UNL1        0.0050
     10 C          46.8546   12.4250  -23.4602 C.3     1  UNL1        0.0271
     11 O          50.5789   11.6157  -26.7043 O.3     1  UNL1       -0.4513
     12 C          51.4457   10.7398  -27.3785 C.ar    1  UNL1        0.1598
     13 C          52.7185   11.2110  -27.7141 C.ar    1  UNL1        0.0390
     14 C          53.6014   10.4198  -28.4505 C.ar    1  UNL1        0.0077
     15 C          53.2273    9.1307  -28.8623 C.ar    1  UNL1        0.0548
     16 C          51.9686    8.6350  -28.4842 C.ar    1  UNL1        0.0235
     17 C          51.0783    9.4195  -27.7324 C.ar    1  UNL1        0.0993
     18 C          54.1557    8.2789  -29.6440 C.2     1  UNL1        0.2458
     19 O          53.6882    7.3155  -30.3093 O.2     1  UNL1       -0.2701
     20 N          55.5703    8.5560  -29.6664 N.am    1  UNL1       -0.3040
     21 H          55.8814    9.4816  -29.2935 H       1  UNL1        0.1496
     22 C          56.6014    7.6388  -30.1919 C.3     1  UNL1        0.0572
     23 C          56.4891    7.5306  -31.7253 C.3     1  UNL1        0.0196
     24 C          56.4573    6.2475  -29.5443 C.3     1  UNL1        0.0196
     25 C          57.9962    8.1980  -29.8423 C.3     1  UNL1        0.0196
     26 N          49.8443    8.8509  -27.2723 N.pl3   1  UNL1       -0.2120
     27 H          49.6185    8.8611  -26.2534 H       1  UNL1        0.1738
     28 S          48.6305    8.2688  -28.3651 S.O2    1  UNL1        0.0745
     29 O          47.6795    7.3822  -27.6101 O.2     1  UNL1       -0.1499
     30 O          49.2999    7.4633  -29.4427 O.2     1  UNL1       -0.1499
     31 C          47.7481    9.6132  -29.0981 C.ar    1  UNL1        0.1356
     32 C          47.4461   10.7443  -28.3279 C.ar    1  UNL1        0.0207
     33 C          46.7405   11.8148  -28.8809 C.ar    1  UNL1       -0.0028
     34 C          46.3249   11.7794  -30.2278 C.ar    1  UNL1       -0.0216
     35 C          46.6405   10.6494  -30.9978 C.ar    1  UNL1        0.0085
     36 C          47.3465    9.5736  -30.4473 C.ar    1  UNL1        0.0762
     37 CL         47.7146    8.2010  -31.4868 Cl      1  UNL1       -0.0809
     38 C          45.5520   12.9005  -30.9028 C.3     1  UNL1        0.0224
     39 C          44.6630   12.5259  -32.0809 C.3     1  UNL1        0.0047
     40 C          45.9665   13.2786  -32.3184 C.3     1  UNL1        0.0047
     41 C          47.8604    9.9920  -21.9227 C.3     1  UNL1        0.1379
     42 C          48.3280   10.6759  -20.6791 C.2     1  UNL1        0.3234
     43 O          48.2402   10.0862  -19.5675 O.2     1  UNL1       -0.2497
     44 O          48.8558   11.9676  -20.7637 O.3     1  UNL1       -0.4215
     45 C          49.4660   12.6365  -19.6607 C.3     1  UNL1        0.3207
     46 O          49.7427   13.9947  -19.9960 O.3     1  UNL1       -0.3070
     47 C          50.9633   14.1704  -20.6999 C.3     1  UNL1        0.2456
     48 C          52.1978   13.7324  -19.8499 C.3     1  UNL1        0.1781
     49 O          52.8751   14.8538  -19.3365 O.3     1  UNL1       -0.3790
     50 C          51.7960   12.7856  -18.6972 C.3     1  UNL1        0.1733
     51 O          52.9118   12.0472  -18.2704 O.3     1  UNL1       -0.3793
     52 C          50.6985   11.8315  -19.1762 C.3     1  UNL1        0.2106
     53 O          50.3132   10.9728  -18.1319 O.3     1  UNL1       -0.3766
     54 H          52.2330   15.3610  -18.7733 H       1  UNL1        0.2106
     55 H          53.4747   12.6649  -17.7345 H       1  UNL1        0.2105
     56 H          50.9744   10.2327  -18.1038 H       1  UNL1        0.2107
     57 C          50.9004   13.5609  -22.0831 C.2     1  UNL1        0.3439
     58 O          50.3989   14.1914  -23.0530 O.2     1  UNL1       -0.2475
     59 O          51.4609   12.3056  -22.2978 O.3     1  UNL1       -0.4785
     60 H          51.4582   11.8862  -23.2198 H       1  UNL1        0.2951
@<TRIPOS>BOND
     1     9    10    1
     2    10     1    1
     3     1     2   ar
     4     2     3    1
     5     2     4   ar
     6     4    11    1
     7    11    12    1
     8    12    13   ar
     9    13    14   ar
    10    14    15   ar
    11    15    18    1
    12    18    19    2
    13    18    20   am
    14    20    22    1
    15    22    23    1
    16    22    24    1
    17    22    25    1
    18    15    16   ar
    19    16    17   ar
    20    17    26    1
    21    26    28    1
    22    28    29    2
    23    28    30    2
    24    28    31    1
    25    31    32   ar
    26    32    33   ar
    27    33    34   ar
    28    34    38    1
    29    38    39    1
    30    39    40    1
    31    34    35   ar
    32    35    36   ar
    33    36    37    1
    34     4     5   ar
    35     5     6   ar
    36     6     7    1
    37     6     8   ar
    38     8    41    1
    39    41    42    1
    40    42    43    2
    41    42    44    1
    42    44    45    1
    43    45    46    1
    44    46    47    1
    45    47    57    1
    46    57    58    2
    47    57    59    1
    48    47    48    1
    49    48    49    1
    50    48    50    1
    51    50    51    1
    52    50    52    1
    53    52    53    1
    54     8     1   ar
    55    52    45    1
    56    17    12   ar
    57    36    31   ar
    58    40    38    1
    59    20    21    1
    60    26    27    1
    61    59    60    1
    62    49    54    1
    63    51    55    1
    64    53    56    1
@<TRIPOS>MOLECULE
*****
 60 64 0 0 0
SMALL
GASTEIGER

@<TRIPOS>ATOM
      1 C          48.2882   11.4459  -26.0846 C.ar    1  UNL1       -0.0099
      2 C          47.5083   11.7719  -24.9432 C.ar    1  UNL1        0.0880
      3 CL         45.9573   12.6066  -25.1180 Cl      1  UNL1       -0.0794
      4 C          47.9410   11.3878  -23.6562 C.ar    1  UNL1        0.1577
      5 C          49.0787   10.5988  -23.5175 C.ar    1  UNL1        0.0676
      6 C          49.8550   10.2681  -24.6225 C.ar    1  UNL1        0.1395
      7 F          50.9717    9.5212  -24.4251 F       1  UNL1       -0.2044
      8 C          49.5017   10.7144  -25.9103 C.ar    1  UNL1        0.0135
      9 C          46.7466   10.8389  -27.9809 C.3     1  UNL1        0.0050
     10 C          47.7832   11.8370  -27.4656 C.3     1  UNL1        0.0271
     11 O          47.2598   11.7647  -22.4887 O.3     1  UNL1       -0.4513
     12 C          47.8075   11.7567  -21.1951 C.ar    1  UNL1        0.1598
     13 C          47.0943   11.0987  -20.1886 C.ar    1  UNL1        0.0390
     14 C          47.5430   11.1173  -18.8671 C.ar    1  UNL1        0.0077
     15 C          48.7253   11.7936  -18.5267 C.ar    1  UNL1        0.0548
     16 C          49.4707   12.4132  -19.5433 C.ar    1  UNL1        0.0235
     17 C          49.0334   12.3891  -20.8779 C.ar    1  UNL1        0.0993
     18 C          49.2142   11.8203  -17.1271 C.2     1  UNL1        0.2458
     19 O          49.8929   10.8485  -16.6978 O.2     1  UNL1       -0.2701
     20 N          48.9415   12.9478  -16.2711 N.am    1  UNL1       -0.3040
     21 H          48.5790   13.8161  -16.7263 H       1  UNL1        0.1496
     22 C          49.1536   12.9684  -14.8098 C.3     1  UNL1        0.0572
     23 C          50.6510   13.1443  -14.4896 C.3     1  UNL1        0.0196
     24 C          48.6185   11.6697  -14.1751 C.3     1  UNL1        0.0196
     25 C          48.3817   14.1605  -14.2071 C.3     1  UNL1        0.0196
     26 N          49.8659   12.9389  -21.9088 N.pl3   1  UNL1       -0.2120
     27 H          50.3812   12.2997  -22.5531 H       1  UNL1        0.1738
     28 S          49.9411   14.6419  -22.2261 S.O2    1  UNL1        0.0745
     29 O          51.3819   15.0494  -22.3614 O.2     1  UNL1       -0.1499
     30 O          49.3319   15.3749  -21.0644 O.2     1  UNL1       -0.1499
     31 C          49.0594   15.0452  -23.7037 C.ar    1  UNL1        0.1356
     32 C          47.8387   15.7281  -23.6164 C.ar    1  UNL1        0.0207
     33 C          47.1179   16.0485  -24.7685 C.ar    1  UNL1       -0.0028
     34 C          47.6095   15.6962  -26.0422 C.ar    1  UNL1       -0.0216
     35 C          48.8382   15.0230  -26.1244 C.ar    1  UNL1        0.0085
     36 C          49.5635   14.6989  -24.9721 C.ar    1  UNL1        0.0762
     37 CL         51.1034   13.8672  -25.1650 Cl      1  UNL1       -0.0809
     38 C          46.8855   16.0056  -27.3421 C.3     1  UNL1        0.0224
     39 C          45.3748   16.1844  -27.2754 C.3     1  UNL1        0.0047
     40 C          45.9670   14.9278  -27.9018 C.3     1  UNL1        0.0047
     41 C          50.4343   10.3868  -27.0619 C.3     1  UNL1        0.1379
     42 C          50.1654    9.0222  -27.6083 C.2     1  UNL1        0.3234
     43 O          49.8947    8.0734  -26.8223 O.2     1  UNL1       -0.2497
     44 O          50.2213    8.8130  -28.9893 O.3     1  UNL1       -0.4215
     45 C          50.3505    7.5202  -29.5796 C.3     1  UNL1        0.3207
     46 O          51.6935    7.0546  -29.4646 O.3     1  UNL1       -0.3070
     47 C          52.5540    7.5397  -30.4846 C.3     1  UNL1        0.2456
     48 C          52.1089    7.0616  -31.9028 C.3     1  UNL1        0.1781
     49 O          52.9299    6.0135  -32.3581 O.3     1  UNL1       -0.3790
     50 C          50.6290    6.6188  -31.9226 C.3     1  UNL1        0.1733
     51 O          50.1323    6.6599  -33.2356 O.3     1  UNL1       -0.3793
     52 C          49.8034    7.5489  -31.0294 C.3     1  UNL1        0.2106
     53 O          48.4559    7.1484  -31.0271 O.3     1  UNL1       -0.3766
     54 H          52.8557    5.2683  -31.7055 H       1  UNL1        0.2106
     55 H          50.5056    5.8698  -33.7067 H       1  UNL1        0.2105
     56 H          48.0378    7.5266  -31.8443 H       1  UNL1        0.2107
     57 C          52.7765    9.0311  -30.3617 C.2     1  UNL1        0.3439
     58 O          52.5528    9.8073  -31.3298 O.2     1  UNL1       -0.2475
     59 O          53.1783    9.5588  -29.1386 O.3     1  UNL1       -0.4785
     60 H          53.3071   10.5566  -29.0203 H       1  UNL1        0.2951
@<TRIPOS>BOND
     1     9    10    1
     2    10     1    1
     3     1     2   ar
     4     2     3    1
     5     2     4   ar
     6     4    11    1
     7    11    12    1
     8    12    13   ar
     9    13    14   ar
    10    14    15   ar
    11    15    18    1
    12    18    19    2
    13    18    20   am
    14    20    22    1
    15    22    23    1
    16    22    24    1
    17    22    25    1
    18    15    16   ar
    19    16    17   ar
    20    17    26    1
    21    26    28    1
    22    28    29    2
    23    28    30    2
    24    28    31    1
    25    31    32   ar
    26    32    33   ar
    27    33    34   ar
    28    34    38    1
    29    38    39    1
    30    39    40    1
    31    34    35   ar
    32    35    36   ar
    33    36    37    1
    34     4     5   ar
    35     5     6   ar
    36     6     7    1
    37     6     8   ar
    38     8    41    1
    39    41    42    1
    40    42    43    2
    41    42    44    1
    42    44    45    1
    43    45    46    1
    44    46    47    1
    45    47    57    1
    46    57    58    2
    47    57    59    1
    48    47    48    1
    49    48    49    1
    50    48    50    1
    51    50    51    1
    52    50    52    1
    53    52    53    1
    54     8     1   ar
    55    52    45    1
    56    17    12   ar
    57    36    31   ar
    58    40    38    1
    59    20    21    1
    60    26    27    1
    61    59    60    1
    62    49    54    1
    63    51    55    1
    64    53    56    1
@<TRIPOS>MOLECULE
*****
 60 64 0 0 0
SMALL
GASTEIGER

@<TRIPOS>ATOM
      1 C          49.6549   14.7450  -22.9147 C.ar    1  UNL1       -0.0099
      2 C          50.5903   13.6807  -23.0138 C.ar    1  UNL1        0.0880
      3 CL         50.8635   12.5889  -21.6477 Cl      1  UNL1       -0.0794
      4 C          51.2780   13.4522  -24.2246 C.ar    1  UNL1        0.1577
      5 C          50.9611   14.2051  -25.3510 C.ar    1  UNL1        0.0676
      6 C          50.0475   15.2505  -25.2749 C.ar    1  UNL1        0.1395
      7 F          49.7988   15.9718  -26.3981 F       1  UNL1       -0.2044
      8 C          49.4124   15.5647  -24.0581 C.ar    1  UNL1        0.0135
      9 C          49.7841   14.6540  -20.4015 C.3     1  UNL1        0.0050
     10 C          48.8973   14.9490  -21.6111 C.3     1  UNL1        0.0271
     11 O          52.2794   12.4772  -24.3498 O.3     1  UNL1       -0.4513
     12 C          52.4456   11.6267  -25.4554 C.ar    1  UNL1        0.1598
     13 C          52.8312   12.2026  -26.6696 C.ar    1  UNL1        0.0390
     14 C          52.9404   11.4269  -27.8247 C.ar    1  UNL1        0.0077
     15 C          52.6703   10.0497  -27.7850 C.ar    1  UNL1        0.0548
     16 C          52.3313    9.4588  -26.5566 C.ar    1  UNL1        0.0235
     17 C          52.2312   10.2294  -25.3865 C.ar    1  UNL1        0.0993
     18 C          52.7835    9.2135  -29.0042 C.2     1  UNL1        0.2458
     19 O          53.8894    9.1578  -29.6069 O.2     1  UNL1       -0.2701
     20 N          51.6567    8.4542  -29.4861 N.am    1  UNL1       -0.3040
     21 H          50.8406    8.3497  -28.8413 H       1  UNL1        0.1496
     22 C          51.5820    7.8031  -30.8094 C.3     1  UNL1        0.0572
     23 C          50.1879    7.1808  -31.0209 C.3     1  UNL1        0.0196
     24 C          52.6755    6.7241  -30.9351 C.3     1  UNL1        0.0196
     25 C          51.8149    8.8641  -31.9050 C.3     1  UNL1        0.0196
     26 N          51.9862    9.5838  -24.1290 N.pl3   1  UNL1       -0.2120
     27 H          52.6536    9.7215  -23.3385 H       1  UNL1        0.1738
     28 S          50.5345    8.6886  -23.8169 S.O2    1  UNL1        0.0745
     29 O          50.8778    7.4707  -23.0050 O.2     1  UNL1       -0.1499
     30 O          49.9469    8.2524  -25.1294 O.2     1  UNL1       -0.1499
     31 C          49.3590    9.6810  -22.9472 C.ar    1  UNL1        0.1356
     32 C          49.1166    9.4355  -21.5889 C.ar    1  UNL1        0.0207
     33 C          48.1847   10.1986  -20.8825 C.ar    1  UNL1       -0.0028
     34 C          47.4754   11.2356  -21.5224 C.ar    1  UNL1       -0.0216
     35 C          47.7309   11.4851  -22.8796 C.ar    1  UNL1        0.0085
     36 C          48.6632   10.7218  -23.5919 C.ar    1  UNL1        0.0762
     37 CL         48.9347   11.1106  -25.2876 Cl      1  UNL1       -0.0809
     38 C          46.4446   12.1086  -20.8259 C.3     1  UNL1        0.0224
     39 C          46.6970   12.4584  -19.3655 C.3     1  UNL1        0.0047
     40 C          45.6063   11.4597  -19.7328 C.3     1  UNL1        0.0047
     41 C          48.4875   16.7674  -24.0236 C.3     1  UNL1        0.1379
     42 C          47.0526   16.3510  -24.0520 C.2     1  UNL1        0.3234
     43 O          46.2591   16.7724  -23.1666 O.2     1  UNL1       -0.2497
     44 O          46.6072   15.4930  -25.0618 O.3     1  UNL1       -0.4215
     45 C          46.7187   14.0724  -24.9862 C.3     1  UNL1        0.3207
     46 O          47.5599   13.5849  -26.0294 O.3     1  UNL1       -0.3070
     47 C          46.8873   13.4056  -27.2669 C.3     1  UNL1        0.2456
     48 C          45.7522   12.3379  -27.1673 C.3     1  UNL1        0.1781
     49 O          46.1574   11.1213  -27.7466 O.3     1  UNL1       -0.3790
     50 C          45.3087   12.1043  -25.7060 C.3     1  UNL1        0.1733
     51 O          44.0222   11.5419  -25.6781 O.3     1  UNL1       -0.3793
     52 C          45.3056   13.4368  -24.9518 C.3     1  UNL1        0.2106
     53 O          44.9170   13.2364  -23.6157 O.3     1  UNL1       -0.3766
     54 H          46.9651   10.8104  -27.2590 H       1  UNL1        0.2106
     55 H          44.1224   10.5875  -25.9325 H       1  UNL1        0.2105
     56 H          43.9249   13.2019  -23.6024 H       1  UNL1        0.2107
     57 C          46.4597   14.7282  -27.8642 C.2     1  UNL1        0.3439
     58 O          45.2864   14.9039  -28.2909 O.2     1  UNL1       -0.2475
     59 O          47.3630   15.7863  -27.8868 O.3     1  UNL1       -0.4785
     60 H          47.0944   16.6911  -28.2547 H       1  UNL1        0.2951
@<TRIPOS>BOND
     1     9    10    1
     2    10     1    1
     3     1     2   ar
     4     2     3    1
     5     2     4   ar
     6     4    11    1
     7    11    12    1
     8    12    13   ar
     9    13    14   ar
    10    14    15   ar
    11    15    18    1
    12    18    19    2
    13    18    20   am
    14    20    22    1
    15    22    23    1
    16    22    24    1
    17    22    25    1
    18    15    16   ar
    19    16    17   ar
    20    17    26    1
    21    26    28    1
    22    28    29    2
    23    28    30    2
    24    28    31    1
    25    31    32   ar
    26    32    33   ar
    27    33    34   ar
    28    34    38    1
    29    38    39    1
    30    39    40    1
    31    34    35   ar
    32    35    36   ar
    33    36    37    1
    34     4     5   ar
    35     5     6   ar
    36     6     7    1
    37     6     8   ar
    38     8    41    1
    39    41    42    1
    40    42    43    2
    41    42    44    1
    42    44    45    1
    43    45    46    1
    44    46    47    1
    45    47    57    1
    46    57    58    2
    47    57    59    1
    48    47    48    1
    49    48    49    1
    50    48    50    1
    51    50    51    1
    52    50    52    1
    53    52    53    1
    54     8     1   ar
    55    52    45    1
    56    17    12   ar
    57    36    31   ar
    58    40    38    1
    59    20    21    1
    60    26    27    1
    61    59    60    1
    62    49    54    1
    63    51    55    1
    64    53    56    1
@<TRIPOS>MOLECULE
*****
 60 64 0 0 0
SMALL
GASTEIGER

@<TRIPOS>ATOM
      1 C          48.2291   10.5844  -21.8015 C.ar    1  UNL1       -0.0099
      2 C          49.2628   10.8177  -22.7474 C.ar    1  UNL1        0.0880
      3 CL         50.3830    9.5234  -23.1980 Cl      1  UNL1       -0.0794
      4 C          49.3766   12.0754  -23.3768 C.ar    1  UNL1        0.1577
      5 C          48.4121   13.0518  -23.1474 C.ar    1  UNL1        0.0676
      6 C          47.3920   12.8424  -22.2262 C.ar    1  UNL1        0.1395
      7 F          46.4956   13.8412  -22.0195 F       1  UNL1       -0.2044
      8 C          47.3039   11.6323  -21.5118 C.ar    1  UNL1        0.0135
      9 C          49.0367    9.0659  -19.9622 C.3     1  UNL1        0.0050
     10 C          48.1026    9.2088  -21.1637 C.3     1  UNL1        0.0271
     11 O          50.4324   12.3901  -24.2459 O.3     1  UNL1       -0.4513
     12 C          50.8286   11.6167  -25.3496 C.ar    1  UNL1        0.1598
     13 C          52.1967   11.5194  -25.6209 C.ar    1  UNL1        0.0390
     14 C          52.6541   10.8303  -26.7451 C.ar    1  UNL1        0.0077
     15 C          51.7455   10.2157  -27.6214 C.ar    1  UNL1        0.0548
     16 C          50.3735   10.2687  -27.3249 C.ar    1  UNL1        0.0235
     17 C          49.9048   10.9494  -26.1890 C.ar    1  UNL1        0.0993
     18 C          52.2176    9.4793  -28.8187 C.2     1  UNL1        0.2458
     19 O          53.3456    9.7625  -29.3052 O.2     1  UNL1       -0.2701
     20 N          51.4147    8.4377  -29.4091 N.am    1  UNL1       -0.3040
     21 H          50.6049    8.0845  -28.8504 H       1  UNL1        0.1496
     22 C          51.6643    7.8264  -30.7300 C.3     1  UNL1        0.0572
     23 C          52.8673    6.8658  -30.6555 C.3     1  UNL1        0.0196
     24 C          51.9171    8.9214  -31.7849 C.3     1  UNL1        0.0196
     25 C          50.4196    7.0189  -31.1529 C.3     1  UNL1        0.0196
     26 N          48.5106   10.8987  -25.8549 N.pl3   1  UNL1       -0.2120
     27 H          48.1448   10.1070  -25.2815 H       1  UNL1        0.1738
     28 S          47.4189   12.1877  -26.2460 S.O2    1  UNL1        0.0745
     29 O          48.0970   13.5011  -25.9712 O.2     1  UNL1       -0.1499
     30 O          46.2037   12.0713  -25.3697 O.2     1  UNL1       -0.1499
     31 C          46.9308   12.1048  -27.9425 C.ar    1  UNL1        0.1356
     32 C          47.1335   10.9204  -28.6636 C.ar    1  UNL1        0.0207
     33 C          46.7665   10.8335  -30.0080 C.ar    1  UNL1       -0.0028
     34 C          46.1782   11.9350  -30.6626 C.ar    1  UNL1       -0.0216
     35 C          45.9664   13.1146  -29.9324 C.ar    1  UNL1        0.0085
     36 C          46.3339   13.2066  -28.5850 C.ar    1  UNL1        0.0762
     37 CL         46.0192   14.7180  -27.7383 Cl      1  UNL1       -0.0809
     38 C          45.7536   11.9220  -32.1219 C.3     1  UNL1        0.0224
     39 C          45.9613   13.2009  -32.9217 C.3     1  UNL1        0.0047
     40 C          44.5565   12.7806  -32.5070 C.3     1  UNL1        0.0047
     41 C          46.2151   11.4981  -20.4632 C.3     1  UNL1        0.1379
     42 C          46.6379   12.0958  -19.1605 C.2     1  UNL1        0.3234
     43 O          45.7722   12.5830  -18.3830 O.2     1  UNL1       -0.2497
     44 O          47.9938   12.1106  -18.8205 O.3     1  UNL1       -0.4215
     45 C          48.4856   12.6417  -17.5907 C.3     1  UNL1        0.3207
     46 O          49.4476   13.6640  -17.8415 O.3     1  UNL1       -0.3070
     47 C          50.7565   13.1683  -18.0809 C.3     1  UNL1        0.2456
     48 C          51.3293   12.4061  -16.8443 C.3     1  UNL1        0.1781
     49 O          52.2628   13.2016  -16.1546 O.3     1  UNL1       -0.3790
     50 C          50.2112   11.9501  -15.8808 C.3     1  UNL1        0.1733
     51 O          50.6712   10.8960  -15.0749 O.3     1  UNL1       -0.3793
     52 C          48.9948   11.4890  -16.6884 C.3     1  UNL1        0.2106
     53 O          47.9636   11.0842  -15.8229 O.3     1  UNL1       -0.3766
     54 H          51.7958   14.0282  -15.8624 H       1  UNL1        0.2106
     55 H          51.2685   11.2988  -14.3917 H       1  UNL1        0.2105
     56 H          48.1625   10.1509  -15.5487 H       1  UNL1        0.2107
     57 C          50.8320   12.4043  -19.3845 C.2     1  UNL1        0.3439
     58 O          50.5305   12.9500  -20.4804 O.2     1  UNL1       -0.2475
     59 O          51.3002   11.0940  -19.3771 O.3     1  UNL1       -0.4785
     60 H          51.3881   10.5688  -20.2387 H       1  UNL1        0.2951
@<TRIPOS>BOND
     1     9    10    1
     2    10     1    1
     3     1     2   ar
     4     2     3    1
     5     2     4   ar
     6     4    11    1
     7    11    12    1
     8    12    13   ar
     9    13    14   ar
    10    14    15   ar
    11    15    18    1
    12    18    19    2
    13    18    20   am
    14    20    22    1
    15    22    23    1
    16    22    24    1
    17    22    25    1
    18    15    16   ar
    19    16    17   ar
    20    17    26    1
    21    26    28    1
    22    28    29    2
    23    28    30    2
    24    28    31    1
    25    31    32   ar
    26    32    33   ar
    27    33    34   ar
    28    34    38    1
    29    38    39    1
    30    39    40    1
    31    34    35   ar
    32    35    36   ar
    33    36    37    1
    34     4     5   ar
    35     5     6   ar
    36     6     7    1
    37     6     8   ar
    38     8    41    1
    39    41    42    1
    40    42    43    2
    41    42    44    1
    42    44    45    1
    43    45    46    1
    44    46    47    1
    45    47    57    1
    46    57    58    2
    47    57    59    1
    48    47    48    1
    49    48    49    1
    50    48    50    1
    51    50    51    1
    52    50    52    1
    53    52    53    1
    54     8     1   ar
    55    52    45    1
    56    17    12   ar
    57    36    31   ar
    58    40    38    1
    59    20    21    1
    60    26    27    1
    61    59    60    1
    62    49    54    1
    63    51    55    1
    64    53    56    1
