@<TRIPOS>MOLECULE
*****
 50 55 0 0 0
SMALL
GASTEIGER

@<TRIPOS>ATOM
      1 O         -63.0898  -54.6032  -22.3106 O.2     1  UNL1       -0.2701
      2 C         -64.0478  -53.8729  -22.6860 C.2     1  UNL1        0.2483
      3 N         -65.3993  -54.2741  -22.4124 N.am    1  UNL1       -0.2945
      4 H         -66.1563  -53.5552  -22.4651 H       1  UNL1        0.1501
      5 C         -63.7591  -52.5945  -23.3741 C.ar    1  UNL1        0.0808
      6 C         -64.6130  -52.1483  -24.3956 C.ar    1  UNL1        0.0080
      7 C         -64.3585  -50.9472  -25.0617 C.ar    1  UNL1        0.0148
      8 C         -63.2476  -50.1585  -24.7155 C.ar    1  UNL1        0.0502
      9 C         -62.4055  -50.5949  -23.6780 C.ar    1  UNL1        0.0443
     10 C         -62.6566  -51.7980  -23.0109 C.ar    1  UNL1        0.1457
     11 F         -61.8460  -52.1530  -21.9823 F       1  UNL1       -0.2040
     12 N         -62.9859  -48.9128  -25.3999 N.pl3   1  UNL1       -0.3040
     13 C         -62.1446  -47.8846  -24.7710 C.3     1  UNL1        0.1123
     14 C         -62.5939  -46.4814  -25.1932 C.3     1  UNL1        0.1136
     15 N         -62.7456  -46.3697  -26.6539 N.pl3   1  UNL1       -0.2897
     16 C         -62.7230  -47.5835  -27.4829 C.3     1  UNL1        0.1136
     17 C         -63.4596  -48.7282  -26.7807 C.3     1  UNL1        0.1123
     18 C         -62.7754  -45.0711  -27.2885 C.ar    1  UNL1        0.1318
     19 C         -62.6879  -43.8864  -26.5366 C.ar    1  UNL1        0.0343
     20 C         -62.7191  -42.6515  -27.1862 C.ar    1  UNL1        0.0083
     21 C         -62.8198  -42.5895  -28.5837 C.ar    1  UNL1        0.0906
     22 C         -62.9355  -43.7921  -29.2966 C.ar    1  UNL1        0.1041
     23 N         -62.9042  -44.9829  -28.6424 N.ar    1  UNL1       -0.2292
     24 C         -62.9057  -41.2617  -29.2921 C.3     1  UNL1        0.4200
     25 F         -62.4340  -41.4036  -30.5837 F       1  UNL1       -0.1658
     26 F         -64.2155  -40.8162  -29.3363 F       1  UNL1       -0.1658
     27 F         -62.1458  -40.3085  -28.6364 F       1  UNL1       -0.1658
     28 C         -65.7205  -55.5949  -21.8622 C.3     1  UNL1        0.1535
     29 C         -66.6967  -55.4529  -20.7273 C.2     1  UNL1        0.2443
     30 O         -66.5993  -56.2108  -19.7233 O.2     1  UNL1       -0.2730
     31 N         -67.6748  -54.4018  -20.7529 N.am    1  UNL1       -0.2825
     32 H         -67.5169  -53.6056  -21.4118 H       1  UNL1        0.1549
     33 C         -68.8012  -54.3295  -19.8625 C.ar    1  UNL1        0.0543
     34 C         -69.9595  -53.6541  -20.2701 C.ar    1  UNL1        0.0354
     35 C         -71.0648  -53.6005  -19.4179 C.ar    1  UNL1        0.1011
     36 N         -71.0221  -54.2146  -18.2064 N.ar    1  UNL1       -0.2323
     37 C         -69.9210  -54.8942  -17.7903 C.ar    1  UNL1        0.1396
     38 CL        -69.9288  -55.6838  -16.2263 Cl      1  UNL1       -0.0613
     39 C         -68.7925  -54.9714  -18.6123 C.ar    1  UNL1        0.0455
     40 C         -66.3070  -56.5117  -22.9484 C.3     1  UNL1        0.0569
     41 C         -67.3007  -55.7763  -23.7999 C.ar    1  UNL1       -0.0017
     42 C         -67.0195  -54.9970  -24.9182 C.ar    1  UNL1        0.0681
     43 N         -68.1650  -54.5545  -25.4851 N.ar    1  UNL1       -0.3523
     44 C         -69.1659  -55.0552  -24.7401 C.ar    1  UNL1        0.0563
     45 C         -70.5353  -54.8896  -24.9432 C.ar    1  UNL1        0.0170
     46 C         -71.4144  -55.5240  -24.0463 C.ar    1  UNL1        0.0015
     47 C         -70.9109  -56.3032  -22.9807 C.ar    1  UNL1        0.0001
     48 C         -69.5238  -56.4544  -22.8014 C.ar    1  UNL1        0.0012
     49 C         -68.6778  -55.8098  -23.7042 C.ar    1  UNL1        0.0131
     50 H         -68.2502  -53.9581  -26.3380 H       1  UNL1        0.1660
@<TRIPOS>BOND
     1     1     2    2
     2     2     3   am
     3     3    28    1
     4    28    40    1
     5    40    41    1
     6    41    42   ar
     7    42    43   ar
     8    43    44   ar
     9    44    45   ar
    10    45    46   ar
    11    46    47   ar
    12    47    48   ar
    13    48    49   ar
    14    28    29    1
    15    29    30    2
    16    29    31   am
    17    31    33    1
    18    33    34   ar
    19    34    35   ar
    20    35    36   ar
    21    36    37   ar
    22    37    38    1
    23    37    39   ar
    24     2     5    1
    25     5     6   ar
    26     6     7   ar
    27     7     8   ar
    28     8    12    1
    29    12    13    1
    30    13    14    1
    31    14    15    1
    32    15    18    1
    33    18    19   ar
    34    19    20   ar
    35    20    21   ar
    36    21    24    1
    37    24    25    1
    38    24    26    1
    39    24    27    1
    40    21    22   ar
    41    22    23   ar
    42    15    16    1
    43    16    17    1
    44     8     9   ar
    45     9    10   ar
    46    10    11    1
    47    49    41   ar
    48    39    33   ar
    49    10     5   ar
    50    49    44   ar
    51    17    12    1
    52    23    18   ar
    53     3     4    1
    54    43    50    1
    55    31    32    1
@<TRIPOS>MOLECULE
*****
 50 55 0 0 0
SMALL
GASTEIGER

@<TRIPOS>ATOM
      1 O         -63.5909  -55.2501  -21.8938 O.2     1  UNL1       -0.2701
      2 C         -64.4744  -54.4826  -22.3655 C.2     1  UNL1        0.2483
      3 N         -65.8633  -54.8065  -22.1972 N.am    1  UNL1       -0.2945
      4 H         -66.5740  -54.0517  -22.3303 H       1  UNL1        0.1501
      5 C         -64.0622  -53.2402  -23.0567 C.ar    1  UNL1        0.0808
      6 C         -62.9629  -52.5109  -22.5757 C.ar    1  UNL1        0.0080
      7 C         -62.5580  -51.3336  -23.2092 C.ar    1  UNL1        0.0148
      8 C         -63.2382  -50.8621  -24.3454 C.ar    1  UNL1        0.0502
      9 C         -64.3251  -51.6043  -24.8393 C.ar    1  UNL1        0.0443
     10 C         -64.7340  -52.7820  -24.2059 C.ar    1  UNL1        0.1457
     11 F         -65.7553  -53.4916  -24.7484 F       1  UNL1       -0.2040
     12 N         -62.8173  -49.6471  -25.0053 N.pl3   1  UNL1       -0.3040
     13 C         -61.5313  -49.0244  -24.6607 C.3     1  UNL1        0.1123
     14 C         -61.6067  -47.5012  -24.8129 C.3     1  UNL1        0.1136
     15 N         -62.1734  -47.1067  -26.1137 N.pl3   1  UNL1       -0.2897
     16 C         -62.8167  -48.1184  -26.9644 C.3     1  UNL1        0.1136
     17 C         -63.6208  -49.1050  -26.1122 C.3     1  UNL1        0.1123
     18 C         -61.9783  -45.7666  -26.6199 C.ar    1  UNL1        0.1318
     19 C         -62.9232  -44.7517  -26.3884 C.ar    1  UNL1        0.0343
     20 C         -62.6984  -43.4698  -26.8928 C.ar    1  UNL1        0.0083
     21 C         -61.5283  -43.1879  -27.6126 C.ar    1  UNL1        0.0906
     22 C         -60.6239  -44.2340  -27.8489 C.ar    1  UNL1        0.1041
     23 N         -60.8646  -45.4747  -27.3492 N.ar    1  UNL1       -0.2292
     24 C         -61.2985  -41.8212  -28.2055 C.3     1  UNL1        0.4200
     25 F         -62.3567  -40.9966  -27.8721 F       1  UNL1       -0.1658
     26 F         -60.1259  -41.2693  -27.7194 F       1  UNL1       -0.1658
     27 F         -61.2026  -41.8970  -29.5843 F       1  UNL1       -0.1658
     28 C         -66.2987  -56.0934  -21.6452 C.3     1  UNL1        0.1535
     29 C         -67.0449  -55.8722  -20.3585 C.2     1  UNL1        0.2443
     30 O         -66.6189  -56.3970  -19.2932 O.2     1  UNL1       -0.2730
     31 N         -68.1827  -54.9964  -20.3335 N.am    1  UNL1       -0.2825
     32 H         -68.3023  -54.3305  -21.1305 H       1  UNL1        0.1549
     33 C         -69.1086  -54.9120  -19.2370 C.ar    1  UNL1        0.0543
     34 C         -68.8169  -55.5733  -18.0364 C.ar    1  UNL1        0.0354
     35 C         -69.7022  -55.4759  -16.9604 C.ar    1  UNL1        0.1011
     36 N         -70.8324  -54.7297  -17.0728 N.ar    1  UNL1       -0.2323
     37 C         -71.1337  -54.0604  -18.2168 C.ar    1  UNL1        0.1396
     38 CL        -72.5950  -53.0972  -18.2989 Cl      1  UNL1       -0.0613
     39 C         -70.2750  -54.1321  -19.3180 C.ar    1  UNL1        0.0455
     40 C         -67.1906  -56.8446  -22.6474 C.3     1  UNL1        0.0569
     41 C         -67.9223  -55.8888  -23.5442 C.ar    1  UNL1       -0.0017
     42 C         -68.4370  -54.6456  -23.1885 C.ar    1  UNL1        0.0681
     43 N         -68.9596  -54.0242  -24.2702 N.ar    1  UNL1       -0.3523
     44 C         -68.7708  -54.8601  -25.3063 C.ar    1  UNL1        0.0563
     45 C         -69.1254  -54.6490  -26.6380 C.ar    1  UNL1        0.0170
     46 C         -68.8129  -55.6566  -27.5691 C.ar    1  UNL1        0.0015
     47 C         -68.1578  -56.8373  -27.1536 C.ar    1  UNL1        0.0001
     48 C         -67.8101  -57.0221  -25.8030 C.ar    1  UNL1        0.0012
     49 C         -68.1370  -56.0074  -24.9031 C.ar    1  UNL1        0.0131
     50 H         -69.4042  -53.0796  -24.2941 H       1  UNL1        0.1660
@<TRIPOS>BOND
     1     1     2    2
     2     2     3   am
     3     3    28    1
     4    28    40    1
     5    40    41    1
     6    41    42   ar
     7    42    43   ar
     8    43    44   ar
     9    44    45   ar
    10    45    46   ar
    11    46    47   ar
    12    47    48   ar
    13    48    49   ar
    14    28    29    1
    15    29    30    2
    16    29    31   am
    17    31    33    1
    18    33    34   ar
    19    34    35   ar
    20    35    36   ar
    21    36    37   ar
    22    37    38    1
    23    37    39   ar
    24     2     5    1
    25     5     6   ar
    26     6     7   ar
    27     7     8   ar
    28     8    12    1
    29    12    13    1
    30    13    14    1
    31    14    15    1
    32    15    18    1
    33    18    19   ar
    34    19    20   ar
    35    20    21   ar
    36    21    24    1
    37    24    25    1
    38    24    26    1
    39    24    27    1
    40    21    22   ar
    41    22    23   ar
    42    15    16    1
    43    16    17    1
    44     8     9   ar
    45     9    10   ar
    46    10    11    1
    47    49    41   ar
    48    39    33   ar
    49    10     5   ar
    50    49    44   ar
    51    17    12    1
    52    23    18   ar
    53     3     4    1
    54    43    50    1
    55    31    32    1
@<TRIPOS>MOLECULE
*****
 50 55 0 0 0
SMALL
GASTEIGER

@<TRIPOS>ATOM
      1 O         -60.7376  -47.3911  -24.7056 O.2     1  UNL1       -0.2701
      2 C         -61.7704  -46.6957  -24.9099 C.2     1  UNL1        0.2483
      3 N         -62.7314  -47.1179  -25.8900 N.am    1  UNL1       -0.2945
      4 H         -63.6937  -46.7109  -25.8567 H       1  UNL1        0.1501
      5 C         -61.9903  -45.4706  -24.1086 C.ar    1  UNL1        0.0808
      6 C         -62.0975  -45.5653  -22.7117 C.ar    1  UNL1        0.0080
      7 C         -62.3089  -44.4236  -21.9353 C.ar    1  UNL1        0.0148
      8 C         -62.4095  -43.1574  -22.5375 C.ar    1  UNL1        0.0502
      9 C         -62.2804  -43.0605  -23.9339 C.ar    1  UNL1        0.0443
     10 C         -62.0708  -44.2021  -24.7139 C.ar    1  UNL1        0.1457
     11 F         -61.9012  -44.0537  -26.0519 F       1  UNL1       -0.2040
     12 N         -62.6228  -41.9743  -21.7352 N.pl3   1  UNL1       -0.3040
     13 C         -63.1153  -42.0939  -20.3555 C.3     1  UNL1        0.1123
     14 C         -63.9750  -40.8825  -19.9781 C.3     1  UNL1        0.1136
     15 N         -63.3062  -39.6115  -20.3044 N.pl3   1  UNL1       -0.2897
     16 C         -62.0987  -39.6186  -21.1427 C.3     1  UNL1        0.1136
     17 C         -62.2260  -40.6584  -22.2602 C.3     1  UNL1        0.1123
     18 C         -63.7452  -38.3768  -19.6938 C.ar    1  UNL1        0.1318
     19 C         -64.8566  -38.3399  -18.8336 C.ar    1  UNL1        0.0343
     20 C         -65.2488  -37.1282  -18.2626 C.ar    1  UNL1        0.0083
     21 C         -64.5294  -35.9544  -18.5298 C.ar    1  UNL1        0.0906
     22 C         -63.4449  -36.0258  -19.4168 C.ar    1  UNL1        0.1041
     23 N         -63.0823  -37.2166  -19.9621 N.ar    1  UNL1       -0.2292
     24 C         -64.9736  -34.6315  -17.9597 C.3     1  UNL1        0.4200
     25 F         -65.2139  -34.7768  -16.6062 F       1  UNL1       -0.1658
     26 F         -63.9967  -33.6683  -18.1438 F       1  UNL1       -0.1658
     27 F         -66.1324  -34.1972  -18.5797 F       1  UNL1       -0.1658
     28 C         -62.4744  -48.2433  -26.7942 C.3     1  UNL1        0.1535
     29 C         -62.7779  -49.5402  -26.0962 C.2     1  UNL1        0.2443
     30 O         -63.7822  -50.2174  -26.4491 O.2     1  UNL1       -0.2730
     31 N         -61.8770  -50.0420  -25.0968 N.am    1  UNL1       -0.2825
     32 H         -60.9102  -49.6451  -25.0691 H       1  UNL1        0.1549
     33 C         -62.1910  -51.1209  -24.1999 C.ar    1  UNL1        0.0543
     34 C         -61.2482  -51.5168  -23.2416 C.ar    1  UNL1        0.0354
     35 C         -61.5571  -52.5492  -22.3530 C.ar    1  UNL1        0.1011
     36 N         -62.7723  -53.1550  -22.4075 N.ar    1  UNL1       -0.2323
     37 C         -63.7153  -52.7807  -23.3120 C.ar    1  UNL1        0.1396
     38 CL        -65.2726  -53.5835  -23.3241 Cl      1  UNL1       -0.0613
     39 C         -63.4465  -51.7523  -24.2204 C.ar    1  UNL1        0.0455
     40 C         -63.3220  -48.1230  -28.0714 C.3     1  UNL1        0.0569
     41 C         -63.2511  -46.7359  -28.6405 C.ar    1  UNL1       -0.0017
     42 C         -64.3273  -45.9341  -29.0093 C.ar    1  UNL1        0.0681
     43 N         -63.8940  -44.7156  -29.4054 N.ar    1  UNL1       -0.3523
     44 C         -62.5555  -44.7386  -29.2807 C.ar    1  UNL1        0.0563
     45 C         -61.6634  -43.7018  -29.5515 C.ar    1  UNL1        0.0170
     46 C         -60.2941  -43.9381  -29.3301 C.ar    1  UNL1        0.0015
     47 C         -59.8526  -45.1896  -28.8456 C.ar    1  UNL1        0.0001
     48 C         -60.7761  -46.2170  -28.5792 C.ar    1  UNL1        0.0012
     49 C         -62.1261  -45.9540  -28.8127 C.ar    1  UNL1        0.0131
     50 H         -64.4844  -43.9165  -29.7267 H       1  UNL1        0.1660
@<TRIPOS>BOND
     1     1     2    2
     2     2     3   am
     3     3    28    1
     4    28    40    1
     5    40    41    1
     6    41    42   ar
     7    42    43   ar
     8    43    44   ar
     9    44    45   ar
    10    45    46   ar
    11    46    47   ar
    12    47    48   ar
    13    48    49   ar
    14    28    29    1
    15    29    30    2
    16    29    31   am
    17    31    33    1
    18    33    34   ar
    19    34    35   ar
    20    35    36   ar
    21    36    37   ar
    22    37    38    1
    23    37    39   ar
    24     2     5    1
    25     5     6   ar
    26     6     7   ar
    27     7     8   ar
    28     8    12    1
    29    12    13    1
    30    13    14    1
    31    14    15    1
    32    15    18    1
    33    18    19   ar
    34    19    20   ar
    35    20    21   ar
    36    21    24    1
    37    24    25    1
    38    24    26    1
    39    24    27    1
    40    21    22   ar
    41    22    23   ar
    42    15    16    1
    43    16    17    1
    44     8     9   ar
    45     9    10   ar
    46    10    11    1
    47    49    41   ar
    48    39    33   ar
    49    10     5   ar
    50    49    44   ar
    51    17    12    1
    52    23    18   ar
    53     3     4    1
    54    43    50    1
    55    31    32    1
@<TRIPOS>MOLECULE
*****
 50 55 0 0 0
SMALL
GASTEIGER

@<TRIPOS>ATOM
      1 O         -61.7297  -47.9911  -24.8121 O.2     1  UNL1       -0.2701
      2 C         -62.3582  -46.9957  -25.2663 C.2     1  UNL1        0.2483
      3 N         -62.9512  -47.0629  -26.5725 N.am    1  UNL1       -0.2945
      4 H         -63.6915  -46.3690  -26.8235 H       1  UNL1        0.1501
      5 C         -62.5024  -45.7845  -24.4277 C.ar    1  UNL1        0.0808
      6 C         -62.5449  -45.9097  -23.0298 C.ar    1  UNL1        0.0080
      7 C         -62.6843  -44.7813  -22.2183 C.ar    1  UNL1        0.0148
      8 C         -62.7758  -43.4986  -22.7860 C.ar    1  UNL1        0.0502
      9 C         -62.7114  -43.3719  -24.1845 C.ar    1  UNL1        0.0443
     10 C         -62.5739  -44.5000  -24.9995 C.ar    1  UNL1        0.1457
     11 F         -62.4647  -44.3243  -26.3404 F       1  UNL1       -0.2040
     12 N         -62.9147  -42.3296  -21.9476 N.pl3   1  UNL1       -0.3040
     13 C         -63.5947  -42.4264  -20.6482 C.3     1  UNL1        0.1123
     14 C         -64.3078  -41.1131  -20.3084 C.3     1  UNL1        0.1136
     15 N         -63.4220  -39.9483  -20.4748 N.pl3   1  UNL1       -0.2897
     16 C         -62.1301  -40.1080  -21.1577 C.3     1  UNL1        0.1136
     17 C         -62.2630  -41.0706  -22.3416 C.3     1  UNL1        0.1123
     18 C         -63.7495  -38.6859  -19.8510 C.ar    1  UNL1        0.1318
     19 C         -64.8044  -38.5770  -18.9280 C.ar    1  UNL1        0.0343
     20 C         -65.0890  -37.3407  -18.3462 C.ar    1  UNL1        0.0083
     21 C         -64.3173  -36.2140  -18.6655 C.ar    1  UNL1        0.0906
     22 C         -63.2929  -36.3559  -19.6134 C.ar    1  UNL1        0.1041
     23 N         -63.0350  -37.5695  -20.1680 N.ar    1  UNL1       -0.2292
     24 C         -64.6471  -34.8636  -18.0827 C.3     1  UNL1        0.4200
     25 F         -63.5236  -34.0597  -18.1324 F       1  UNL1       -0.1658
     26 F         -65.6665  -34.2592  -18.7980 F       1  UNL1       -0.1658
     27 F         -65.0559  -34.9867  -16.7659 F       1  UNL1       -0.1658
     28 C         -62.7064  -48.1894  -27.4789 C.3     1  UNL1        0.1535
     29 C         -63.6437  -48.1149  -28.6525 C.2     1  UNL1        0.2443
     30 O         -64.0317  -49.1790  -29.2082 O.2     1  UNL1       -0.2730
     31 N         -64.1592  -46.8433  -29.0761 N.am    1  UNL1       -0.2825
     32 H         -64.0922  -46.0431  -28.4066 H       1  UNL1        0.1549
     33 C         -64.8465  -46.6282  -30.3203 C.ar    1  UNL1        0.0543
     34 C         -64.8956  -45.3386  -30.8665 C.ar    1  UNL1        0.0354
     35 C         -65.5425  -45.1283  -32.0864 C.ar    1  UNL1        0.1011
     36 N         -66.1070  -46.1727  -32.7477 N.ar    1  UNL1       -0.2323
     37 C         -66.0592  -47.4383  -32.2543 C.ar    1  UNL1        0.1396
     38 CL        -66.7869  -48.7502  -33.1594 Cl      1  UNL1       -0.0613
     39 C         -65.4223  -47.6922  -31.0357 C.ar    1  UNL1        0.0455
     40 C         -61.2491  -48.1898  -27.9694 C.3     1  UNL1        0.0569
     41 C         -60.6430  -46.8202  -27.8689 C.ar    1  UNL1       -0.0017
     42 C         -59.7223  -46.3877  -26.9190 C.ar    1  UNL1        0.0681
     43 N         -59.3327  -45.1196  -27.1827 N.ar    1  UNL1       -0.3523
     44 C         -59.9921  -44.7520  -28.2952 C.ar    1  UNL1        0.0563
     45 C         -59.9033  -43.5332  -28.9666 C.ar    1  UNL1        0.0170
     46 C         -60.6731  -43.3674  -30.1326 C.ar    1  UNL1        0.0015
     47 C         -61.5022  -44.4125  -30.5979 C.ar    1  UNL1        0.0001
     48 C         -61.5703  -45.6326  -29.9008 C.ar    1  UNL1        0.0012
     49 C         -60.7988  -45.7652  -28.7461 C.ar    1  UNL1        0.0131
     50 H         -58.6463  -44.5509  -26.6387 H       1  UNL1        0.1660
@<TRIPOS>BOND
     1     1     2    2
     2     2     3   am
     3     3    28    1
     4    28    40    1
     5    40    41    1
     6    41    42   ar
     7    42    43   ar
     8    43    44   ar
     9    44    45   ar
    10    45    46   ar
    11    46    47   ar
    12    47    48   ar
    13    48    49   ar
    14    28    29    1
    15    29    30    2
    16    29    31   am
    17    31    33    1
    18    33    34   ar
    19    34    35   ar
    20    35    36   ar
    21    36    37   ar
    22    37    38    1
    23    37    39   ar
    24     2     5    1
    25     5     6   ar
    26     6     7   ar
    27     7     8   ar
    28     8    12    1
    29    12    13    1
    30    13    14    1
    31    14    15    1
    32    15    18    1
    33    18    19   ar
    34    19    20   ar
    35    20    21   ar
    36    21    24    1
    37    24    25    1
    38    24    26    1
    39    24    27    1
    40    21    22   ar
    41    22    23   ar
    42    15    16    1
    43    16    17    1
    44     8     9   ar
    45     9    10   ar
    46    10    11    1
    47    49    41   ar
    48    39    33   ar
    49    10     5   ar
    50    49    44   ar
    51    17    12    1
    52    23    18   ar
    53     3     4    1
    54    43    50    1
    55    31    32    1
@<TRIPOS>MOLECULE
*****
 50 55 0 0 0
SMALL
GASTEIGER

@<TRIPOS>ATOM
      1 O         -61.1540  -46.8739  -24.8138 O.2     1  UNL1       -0.2701
      2 C         -61.1526  -45.6929  -25.2582 C.2     1  UNL1        0.2483
      3 N         -60.7354  -45.4403  -26.6089 N.am    1  UNL1       -0.2945
      4 H         -60.9993  -44.5319  -27.0537 H       1  UNL1        0.1501
      5 C         -61.6151  -44.5894  -24.3867 C.ar    1  UNL1        0.0808
      6 C         -62.0884  -44.8764  -23.0962 C.ar    1  UNL1        0.0080
      7 C         -62.5336  -43.8519  -22.2575 C.ar    1  UNL1        0.0148
      8 C         -62.5076  -42.5136  -22.6868 C.ar    1  UNL1        0.0502
      9 C         -62.0134  -42.2248  -23.9707 C.ar    1  UNL1        0.0443
     10 C         -61.5690  -43.2485  -24.8133 C.ar    1  UNL1        0.1457
     11 F         -61.0530  -42.9170  -26.0235 F       1  UNL1       -0.2040
     12 N         -62.9628  -41.4518  -21.8183 N.pl3   1  UNL1       -0.3040
     13 C         -64.3688  -41.3934  -21.3939 C.3     1  UNL1        0.1123
     14 C         -64.8165  -39.9414  -21.1938 C.3     1  UNL1        0.1136
     15 N         -63.8699  -39.1853  -20.3564 N.pl3   1  UNL1       -0.2897
     16 C         -62.5543  -39.7615  -20.0432 C.3     1  UNL1        0.1136
     17 C         -61.9883  -40.5020  -21.2587 C.3     1  UNL1        0.1123
     18 C         -64.2766  -37.9487  -19.7276 C.ar    1  UNL1        0.1318
     19 C         -63.3859  -37.2015  -18.9371 C.ar    1  UNL1        0.0343
     20 C         -63.8160  -36.0118  -18.3475 C.ar    1  UNL1        0.0083
     21 C         -65.1246  -35.5522  -18.5548 C.ar    1  UNL1        0.0906
     22 C         -65.9929  -36.3406  -19.3245 C.ar    1  UNL1        0.1041
     23 N         -65.5523  -37.4964  -19.8876 N.ar    1  UNL1       -0.2292
     24 C         -65.6158  -34.2958  -17.8821 C.3     1  UNL1        0.4200
     25 F         -65.5187  -34.4455  -16.5114 F       1  UNL1       -0.1658
     26 F         -64.8576  -33.2054  -18.2719 F       1  UNL1       -0.1658
     27 F         -66.9359  -34.0472  -18.2164 F       1  UNL1       -0.1658
     28 C         -60.1407  -46.4871  -27.4460 C.3     1  UNL1        0.1535
     29 C         -61.2075  -47.4419  -27.9064 C.2     1  UNL1        0.2443
     30 O         -61.0003  -48.6848  -27.8434 O.2     1  UNL1       -0.2730
     31 N         -62.4836  -46.9377  -28.3301 N.am    1  UNL1       -0.2825
     32 H         -62.7363  -45.9607  -28.0571 H       1  UNL1        0.1549
     33 C         -63.4703  -47.7238  -29.0194 C.ar    1  UNL1        0.0543
     34 C         -63.8138  -48.9884  -28.5226 C.ar    1  UNL1        0.0354
     35 C         -64.7882  -49.7467  -29.1756 C.ar    1  UNL1        0.1011
     36 N         -65.4113  -49.2528  -30.2777 N.ar    1  UNL1       -0.2323
     37 C         -65.1149  -48.0220  -30.7726 C.ar    1  UNL1        0.1396
     38 CL        -65.9641  -47.4277  -32.1851 Cl      1  UNL1       -0.0613
     39 C         -64.1448  -47.2308  -30.1496 C.ar    1  UNL1        0.0455
     40 C         -59.4241  -45.8744  -28.6606 C.3     1  UNL1        0.0569
     41 C         -60.3559  -45.0127  -29.4620 C.ar    1  UNL1       -0.0017
     42 C         -61.4927  -44.3606  -28.9936 C.ar    1  UNL1        0.0681
     43 N         -62.0425  -43.6079  -29.9737 N.ar    1  UNL1       -0.3523
     44 C         -61.2576  -43.7720  -31.0529 C.ar    1  UNL1        0.0563
     45 C         -61.4084  -43.1792  -32.3057 C.ar    1  UNL1        0.0170
     46 C         -60.4519  -43.4775  -33.2936 C.ar    1  UNL1        0.0015
     47 C         -59.3769  -44.3490  -33.0094 C.ar    1  UNL1        0.0001
     48 C         -59.2489  -44.9313  -31.7351 C.ar    1  UNL1        0.0012
     49 C         -60.2151  -44.6197  -30.7783 C.ar    1  UNL1        0.0131
     50 H         -62.8949  -43.0095  -29.8982 H       1  UNL1        0.1660
@<TRIPOS>BOND
     1     1     2    2
     2     2     3   am
     3     3    28    1
     4    28    40    1
     5    40    41    1
     6    41    42   ar
     7    42    43   ar
     8    43    44   ar
     9    44    45   ar
    10    45    46   ar
    11    46    47   ar
    12    47    48   ar
    13    48    49   ar
    14    28    29    1
    15    29    30    2
    16    29    31   am
    17    31    33    1
    18    33    34   ar
    19    34    35   ar
    20    35    36   ar
    21    36    37   ar
    22    37    38    1
    23    37    39   ar
    24     2     5    1
    25     5     6   ar
    26     6     7   ar
    27     7     8   ar
    28     8    12    1
    29    12    13    1
    30    13    14    1
    31    14    15    1
    32    15    18    1
    33    18    19   ar
    34    19    20   ar
    35    20    21   ar
    36    21    24    1
    37    24    25    1
    38    24    26    1
    39    24    27    1
    40    21    22   ar
    41    22    23   ar
    42    15    16    1
    43    16    17    1
    44     8     9   ar
    45     9    10   ar
    46    10    11    1
    47    49    41   ar
    48    39    33   ar
    49    10     5   ar
    50    49    44   ar
    51    17    12    1
    52    23    18   ar
    53     3     4    1
    54    43    50    1
    55    31    32    1
