@<TRIPOS>MOLECULE
*****
 46 51 0 0 0
SMALL
GASTEIGER

@<TRIPOS>ATOM
      1 O          -8.7137  -10.1441   30.4010 O.2     1  UNL1       -0.2701
      2 C          -8.2412  -11.2690   30.7221 C.2     1  UNL1        0.2483
      3 N          -7.6936  -11.4629   32.0362 N.am    1  UNL1       -0.2945
      4 H          -7.1094  -12.3106   32.2169 H       1  UNL1        0.1501
      5 C          -8.2325  -12.3629   29.7249 C.ar    1  UNL1        0.0808
      6 C          -7.0206  -12.7468   29.1273 C.ar    1  UNL1        0.0080
      7 C          -6.9879  -13.7782   28.1858 C.ar    1  UNL1        0.0148
      8 C          -8.1679  -14.4426   27.8169 C.ar    1  UNL1        0.0502
      9 C          -9.3839  -14.0436   28.3930 C.ar    1  UNL1        0.0443
     10 C          -9.4206  -13.0130   29.3378 C.ar    1  UNL1        0.1457
     11 F         -10.6235  -12.6247   29.8319 F       1  UNL1       -0.2040
     12 N          -8.1352  -15.4957   26.8345 N.pl3   1  UNL1       -0.3040
     13 C          -8.8609  -16.7510   27.0898 C.3     1  UNL1        0.1122
     14 C          -8.9186  -17.6290   25.8344 C.3     1  UNL1        0.1122
     15 N          -9.2197  -16.7974   24.6603 N.pl3   1  UNL1       -0.3040
     16 C          -8.4164  -15.5921   24.3962 C.3     1  UNL1        0.1122
     17 C          -7.4489  -15.3013   25.5492 C.3     1  UNL1        0.1122
     18 C         -10.3364  -17.1090   23.8051 C.ar    1  UNL1        0.0502
     19 C         -11.2002  -18.1728   24.1209 C.ar    1  UNL1        0.0147
     20 C         -12.2915  -18.4654   23.2973 C.ar    1  UNL1        0.0036
     21 C         -12.5327  -17.6983   22.1550 C.ar    1  UNL1        0.0297
     22 C         -11.6844  -16.6348   21.8356 C.ar    1  UNL1        0.1414
     23 F         -11.9195  -15.8908   20.7266 F       1  UNL1       -0.2041
     24 C         -10.5922  -16.3380   22.6574 C.ar    1  UNL1        0.0441
     25 C          -7.8695  -10.4715   33.1028 C.3     1  UNL1        0.1535
     26 C          -7.4674   -9.1051   32.6079 C.2     1  UNL1        0.2443
     27 O          -6.2576   -8.8687   32.3402 O.2     1  UNL1       -0.2730
     28 N          -8.4674   -8.0908   32.4213 N.am    1  UNL1       -0.2825
     29 H          -9.3735   -8.1988   32.9310 H       1  UNL1        0.1549
     30 C          -8.2874   -6.9166   31.6116 C.ar    1  UNL1        0.0535
     31 C          -9.3381   -6.4770   30.7949 C.ar    1  UNL1        0.0353
     32 C          -9.1599   -5.3554   29.9816 C.ar    1  UNL1        0.1002
     33 N          -7.9670   -4.7041   29.9701 N.ar    1  UNL1       -0.2422
     34 C          -6.9230   -5.1178   30.7358 C.ar    1  UNL1        0.1002
     35 C          -7.0595   -6.2340   31.5648 C.ar    1  UNL1        0.0353
     36 C          -9.3307  -10.4602   33.5909 C.3     1  UNL1        0.0569
     37 C          -9.7176  -11.7703   34.2178 C.ar    1  UNL1       -0.0017
     38 C          -9.0212  -12.4480   35.2145 C.ar    1  UNL1        0.0681
     39 N          -9.5958  -13.6474   35.4603 N.ar    1  UNL1       -0.3523
     40 C         -10.6424  -13.7366   34.6212 C.ar    1  UNL1        0.0563
     41 C         -11.5268  -14.8056   34.4846 C.ar    1  UNL1        0.0170
     42 C         -12.5436  -14.6982   33.5180 C.ar    1  UNL1        0.0015
     43 C         -12.6498  -13.5398   32.7163 C.ar    1  UNL1        0.0001
     44 C         -11.7409  -12.4777   32.8743 C.ar    1  UNL1        0.0012
     45 C         -10.7473  -12.6112   33.8443 C.ar    1  UNL1        0.0131
     46 H          -9.2755  -14.3642   36.1486 H       1  UNL1        0.1660
@<TRIPOS>BOND
     1     1     2    2
     2     2     3   am
     3     3    25    1
     4    25    36    1
     5    36    37    1
     6    37    38   ar
     7    38    39   ar
     8    39    40   ar
     9    40    41   ar
    10    41    42   ar
    11    42    43   ar
    12    43    44   ar
    13    44    45   ar
    14    25    26    1
    15    26    27    2
    16    26    28   am
    17    28    30    1
    18    30    31   ar
    19    31    32   ar
    20    32    33   ar
    21    33    34   ar
    22    34    35   ar
    23     2     5    1
    24     5     6   ar
    25     6     7   ar
    26     7     8   ar
    27     8    12    1
    28    12    13    1
    29    13    14    1
    30    14    15    1
    31    15    18    1
    32    18    19   ar
    33    19    20   ar
    34    20    21   ar
    35    21    22   ar
    36    22    23    1
    37    22    24   ar
    38    15    16    1
    39    16    17    1
    40     8     9   ar
    41     9    10   ar
    42    10    11    1
    43    45    37   ar
    44    35    30   ar
    45    10     5   ar
    46    45    40   ar
    47    17    12    1
    48    24    18   ar
    49     3     4    1
    50    39    46    1
    51    28    29    1
@<TRIPOS>MOLECULE
*****
 46 51 0 0 0
SMALL
GASTEIGER

@<TRIPOS>ATOM
      1 O          -9.0807  -15.5201   28.7923 O.2     1  UNL1       -0.2701
      2 C          -8.6053  -14.6479   28.0145 C.2     1  UNL1        0.2483
      3 N          -8.6259  -13.2636   28.3988 N.am    1  UNL1       -0.2945
      4 H          -8.4427  -12.5371   27.6699 H       1  UNL1        0.1501
      5 C          -8.0611  -15.0656   26.7029 C.ar    1  UNL1        0.0808
      6 C          -8.9336  -15.5397   25.7093 C.ar    1  UNL1        0.0080
      7 C          -8.4428  -15.9369   24.4633 C.ar    1  UNL1        0.0148
      8 C          -7.0682  -15.8749   24.1872 C.ar    1  UNL1        0.0502
      9 C          -6.1913  -15.4263   25.1870 C.ar    1  UNL1        0.0443
     10 C          -6.6788  -15.0255   26.4351 C.ar    1  UNL1        0.1457
     11 F          -5.7919  -14.6468   27.3899 F       1  UNL1       -0.2040
     12 N          -6.5615  -16.2993   22.9071 N.pl3   1  UNL1       -0.3040
     13 C          -5.6532  -15.4171   22.1559 C.3     1  UNL1        0.1122
     14 C          -5.0284  -16.1452   20.9603 C.3     1  UNL1        0.1122
     15 N          -4.6202  -17.4992   21.3614 N.pl3   1  UNL1       -0.3040
     16 C          -5.5857  -18.3799   22.0397 C.3     1  UNL1        0.1122
     17 C          -6.8809  -17.6334   22.3790 C.3     1  UNL1        0.1122
     18 C          -3.2661  -17.9486   21.1622 C.ar    1  UNL1        0.0502
     19 C          -2.9015  -19.2707   21.4729 C.ar    1  UNL1        0.0147
     20 C          -1.5901  -19.7093   21.2662 C.ar    1  UNL1        0.0036
     21 C          -0.6329  -18.8354   20.7450 C.ar    1  UNL1        0.0297
     22 C          -0.9863  -17.5215   20.4265 C.ar    1  UNL1        0.1414
     23 F          -0.0565  -16.6741   19.9206 F       1  UNL1       -0.2041
     24 C          -2.2973  -17.0789   20.6307 C.ar    1  UNL1        0.0441
     25 C          -8.9684  -12.8429   29.7616 C.3     1  UNL1        0.1535
     26 C          -8.3248  -11.5141   30.0679 C.2     1  UNL1        0.2443
     27 O          -8.7173  -10.4767   29.4672 O.2     1  UNL1       -0.2730
     28 N          -7.2875  -11.4350   31.0585 N.am    1  UNL1       -0.2825
     29 H          -6.7763  -12.3137   31.3014 H       1  UNL1        0.1549
     30 C          -6.8795  -10.2186   31.7072 C.ar    1  UNL1        0.0535
     31 C          -5.5964   -9.7084   31.4671 C.ar    1  UNL1        0.0353
     32 C          -5.1815   -8.5442   32.1181 C.ar    1  UNL1        0.1002
     33 N          -6.0126   -7.9193   32.9933 N.ar    1  UNL1       -0.2422
     34 C          -7.2550   -8.4005   33.2621 C.ar    1  UNL1        0.1002
     35 C          -7.7099   -9.5611   32.6312 C.ar    1  UNL1        0.0353
     36 C         -10.4973  -12.7531   29.9285 C.3     1  UNL1        0.0569
     37 C         -10.8980  -12.7283   31.3769 C.ar    1  UNL1       -0.0017
     38 C         -10.5903  -11.7360   32.3034 C.ar    1  UNL1        0.0681
     39 N         -11.0148  -12.0932   33.5367 N.ar    1  UNL1       -0.3523
     40 C         -11.5788  -13.3057   33.3986 C.ar    1  UNL1        0.0563
     41 C         -12.1387  -14.0961   34.4013 C.ar    1  UNL1        0.0170
     42 C         -12.6536  -15.3536   34.0365 C.ar    1  UNL1        0.0015
     43 C         -12.5944  -15.7894   32.6940 C.ar    1  UNL1        0.0001
     44 C         -12.0207  -14.9715   31.7036 C.ar    1  UNL1        0.0012
     45 C         -11.5237  -13.7282   32.0950 C.ar    1  UNL1        0.0131
     46 H         -10.9057  -11.5443   34.4183 H       1  UNL1        0.1660
@<TRIPOS>BOND
     1     1     2    2
     2     2     3   am
     3     3    25    1
     4    25    36    1
     5    36    37    1
     6    37    38   ar
     7    38    39   ar
     8    39    40   ar
     9    40    41   ar
    10    41    42   ar
    11    42    43   ar
    12    43    44   ar
    13    44    45   ar
    14    25    26    1
    15    26    27    2
    16    26    28   am
    17    28    30    1
    18    30    31   ar
    19    31    32   ar
    20    32    33   ar
    21    33    34   ar
    22    34    35   ar
    23     2     5    1
    24     5     6   ar
    25     6     7   ar
    26     7     8   ar
    27     8    12    1
    28    12    13    1
    29    13    14    1
    30    14    15    1
    31    15    18    1
    32    18    19   ar
    33    19    20   ar
    34    20    21   ar
    35    21    22   ar
    36    22    23    1
    37    22    24   ar
    38    15    16    1
    39    16    17    1
    40     8     9   ar
    41     9    10   ar
    42    10    11    1
    43    45    37   ar
    44    35    30   ar
    45    10     5   ar
    46    45    40   ar
    47    17    12    1
    48    24    18   ar
    49     3     4    1
    50    39    46    1
    51    28    29    1
@<TRIPOS>MOLECULE
*****
 46 51 0 0 0
SMALL
GASTEIGER

@<TRIPOS>ATOM
      1 O          -8.9923  -10.2869   30.3332 O.2     1  UNL1       -0.2701
      2 C          -8.4300  -11.3728   30.6435 C.2     1  UNL1        0.2483
      3 N          -7.8664  -11.5338   31.9553 N.am    1  UNL1       -0.2945
      4 H          -7.2153  -12.3332   32.1278 H       1  UNL1        0.1501
      5 C          -8.3345  -12.4534   29.6363 C.ar    1  UNL1        0.0808
      6 C          -9.4878  -13.1704   29.2771 C.ar    1  UNL1        0.0080
      7 C          -9.4219  -14.1924   28.3271 C.ar    1  UNL1        0.0148
      8 C          -8.1998  -14.5235   27.7217 C.ar    1  UNL1        0.0502
      9 C          -7.0413  -13.8263   28.0979 C.ar    1  UNL1        0.0443
     10 C          -7.1033  -12.8008   29.0469 C.ar    1  UNL1        0.1457
     11 F          -5.9515  -12.1870   29.4189 F       1  UNL1       -0.2040
     12 N          -8.1304  -15.5880   26.7534 N.pl3   1  UNL1       -0.3040
     13 C          -8.8895  -16.8288   26.9813 C.3     1  UNL1        0.1122
     14 C          -8.8924  -17.7196   25.7337 C.3     1  UNL1        0.1122
     15 N          -9.1150  -16.8967   24.5363 N.pl3   1  UNL1       -0.3040
     16 C          -8.2788  -15.7072   24.3045 C.3     1  UNL1        0.1122
     17 C          -7.3715  -15.4187   25.5059 C.3     1  UNL1        0.1122
     18 C         -10.1880  -17.2002   23.6242 C.ar    1  UNL1        0.0502
     19 C         -11.1544  -16.2273   23.3124 C.ar    1  UNL1        0.0147
     20 C         -12.1874  -16.5189   22.4166 C.ar    1  UNL1        0.0036
     21 C         -12.2635  -17.7806   21.8215 C.ar    1  UNL1        0.0297
     22 C         -11.3044  -18.7524   22.1191 C.ar    1  UNL1        0.1414
     23 F         -11.3791  -19.9766   21.5409 F       1  UNL1       -0.2041
     24 C         -10.2688  -18.4644   23.0140 C.ar    1  UNL1        0.0441
     25 C          -8.1201  -10.5696   33.0312 C.3     1  UNL1        0.1535
     26 C          -7.7194   -9.1853   32.5878 C.2     1  UNL1        0.2443
     27 O          -6.4969   -8.8936   32.4792 O.2     1  UNL1       -0.2730
     28 N          -8.7314   -8.2171   32.2686 N.am    1  UNL1       -0.2825
     29 H          -9.6904   -8.3673   32.6562 H       1  UNL1        0.1549
     30 C          -8.5008   -7.0341   31.4849 C.ar    1  UNL1        0.0535
     31 C          -7.3174   -6.3065   31.6703 C.ar    1  UNL1        0.0353
     32 C          -7.1005   -5.1387   30.9351 C.ar    1  UNL1        0.1002
     33 N          -8.0409   -4.7015   30.0568 N.ar    1  UNL1       -0.2422
     34 C          -9.2070   -5.3741   29.8693 C.ar    1  UNL1        0.1002
     35 C          -9.4629   -6.5475   30.5831 C.ar    1  UNL1        0.0353
     36 C          -9.6057  -10.5968   33.4384 C.3     1  UNL1        0.0569
     37 C          -9.9822  -11.9022   34.0813 C.ar    1  UNL1       -0.0017
     38 C          -9.2959  -12.5479   35.1059 C.ar    1  UNL1        0.0681
     39 N          -9.8534  -13.7532   35.3616 N.ar    1  UNL1       -0.3523
     40 C         -10.8789  -13.8780   34.5013 C.ar    1  UNL1        0.0563
     41 C         -11.7400  -14.9660   34.3654 C.ar    1  UNL1        0.0170
     42 C         -12.7364  -14.8960   33.3746 C.ar    1  UNL1        0.0015
     43 C         -12.8461  -13.7549   32.5489 C.ar    1  UNL1        0.0001
     44 C         -11.9611  -12.6729   32.7069 C.ar    1  UNL1        0.0012
     45 C         -10.9873  -12.7694   33.7010 C.ar    1  UNL1        0.0131
     46 H          -9.5354  -14.4510   36.0703 H       1  UNL1        0.1660
@<TRIPOS>BOND
     1     1     2    2
     2     2     3   am
     3     3    25    1
     4    25    36    1
     5    36    37    1
     6    37    38   ar
     7    38    39   ar
     8    39    40   ar
     9    40    41   ar
    10    41    42   ar
    11    42    43   ar
    12    43    44   ar
    13    44    45   ar
    14    25    26    1
    15    26    27    2
    16    26    28   am
    17    28    30    1
    18    30    31   ar
    19    31    32   ar
    20    32    33   ar
    21    33    34   ar
    22    34    35   ar
    23     2     5    1
    24     5     6   ar
    25     6     7   ar
    26     7     8   ar
    27     8    12    1
    28    12    13    1
    29    13    14    1
    30    14    15    1
    31    15    18    1
    32    18    19   ar
    33    19    20   ar
    34    20    21   ar
    35    21    22   ar
    36    22    23    1
    37    22    24   ar
    38    15    16    1
    39    16    17    1
    40     8     9   ar
    41     9    10   ar
    42    10    11    1
    43    45    37   ar
    44    35    30   ar
    45    10     5   ar
    46    45    40   ar
    47    17    12    1
    48    24    18   ar
    49     3     4    1
    50    39    46    1
    51    28    29    1
@<TRIPOS>MOLECULE
*****
 46 51 0 0 0
SMALL
GASTEIGER

@<TRIPOS>ATOM
      1 O          -6.4135  -11.4475   30.0986 O.2     1  UNL1       -0.2701
      2 C          -7.5323  -12.0261   30.0257 C.2     1  UNL1        0.2483
      3 N          -8.5855  -11.6573   30.9307 N.am    1  UNL1       -0.2945
      4 H          -9.4179  -12.2839   31.0149 H       1  UNL1        0.1501
      5 C          -7.7295  -13.0992   29.0253 C.ar    1  UNL1        0.0808
      6 C          -6.6253  -13.5926   28.3108 C.ar    1  UNL1        0.0080
      7 C          -6.7871  -14.6067   27.3639 C.ar    1  UNL1        0.0148
      8 C          -8.0580  -15.1437   27.1065 C.ar    1  UNL1        0.0502
      9 C          -9.1669  -14.6345   27.8001 C.ar    1  UNL1        0.0443
     10 C          -9.0087  -13.6208   28.7507 C.ar    1  UNL1        0.1457
     11 F         -10.1135  -13.1223   29.3612 F       1  UNL1       -0.2040
     12 N          -8.2259  -16.1788   26.1187 N.pl3   1  UNL1       -0.3040
     13 C          -9.0926  -17.3319   26.4140 C.3     1  UNL1        0.1122
     14 C          -9.3441  -18.1778   25.1605 C.3     1  UNL1        0.1122
     15 N          -9.6071  -17.2984   24.0124 N.pl3   1  UNL1       -0.3040
     16 C          -8.6709  -16.2049   23.7032 C.3     1  UNL1        0.1122
     17 C          -7.6027  -16.0585   24.7929 C.3     1  UNL1        0.1122
     18 C         -10.8068  -17.4499   23.2294 C.ar    1  UNL1        0.0502
     19 C         -10.7683  -17.3017   21.8314 C.ar    1  UNL1        0.0147
     20 C         -11.9308  -17.4625   21.0714 C.ar    1  UNL1        0.0036
     21 C         -13.1396  -17.7757   21.6977 C.ar    1  UNL1        0.0297
     22 C         -13.1876  -17.9318   23.0855 C.ar    1  UNL1        0.1414
     23 F         -14.3614  -18.2359   23.6924 F       1  UNL1       -0.2041
     24 C         -12.0267  -17.7728   23.8495 C.ar    1  UNL1        0.0441
     25 C          -8.4899  -10.4715   31.7886 C.3     1  UNL1        0.1535
     26 C          -8.7213   -9.2248   30.9726 C.2     1  UNL1        0.2443
     27 O          -8.8998   -9.3176   29.7273 O.2     1  UNL1       -0.2730
     28 N          -8.7614   -7.9440   31.6217 N.am    1  UNL1       -0.2825
     29 H          -8.3113   -7.8584   32.5611 H       1  UNL1        0.1549
     30 C          -9.3442   -6.7629   31.0454 C.ar    1  UNL1        0.0535
     31 C         -10.7315   -6.5762   31.1161 C.ar    1  UNL1        0.0353
     32 C         -11.3085   -5.4468   30.5309 C.ar    1  UNL1        0.1002
     33 N         -10.5296   -4.5422   29.8812 N.ar    1  UNL1       -0.2422
     34 C          -9.1842   -4.7054   29.7784 C.ar    1  UNL1        0.1002
     35 C          -8.5666   -5.8201   30.3511 C.ar    1  UNL1        0.0353
     36 C          -9.5080  -10.5583   32.9417 C.3     1  UNL1        0.0569
     37 C         -10.6613  -11.4588   32.5983 C.ar    1  UNL1       -0.0017
     38 C         -11.6146  -11.2409   31.6076 C.ar    1  UNL1        0.0681
     39 N         -12.5690  -12.1980   31.6515 N.ar    1  UNL1       -0.3523
     40 C         -12.2319  -13.0121   32.6669 C.ar    1  UNL1        0.0563
     41 C         -12.9281  -14.1326   33.1181 C.ar    1  UNL1        0.0170
     42 C         -12.4057  -14.8304   34.2224 C.ar    1  UNL1        0.0015
     43 C         -11.2151  -14.3954   34.8462 C.ar    1  UNL1        0.0001
     44 C         -10.5353  -13.2591   34.3709 C.ar    1  UNL1        0.0012
     45 C         -11.0748  -12.5915   33.2713 C.ar    1  UNL1        0.0131
     46 H         -13.4072  -12.2733   31.0334 H       1  UNL1        0.1660
@<TRIPOS>BOND
     1     1     2    2
     2     2     3   am
     3     3    25    1
     4    25    36    1
     5    36    37    1
     6    37    38   ar
     7    38    39   ar
     8    39    40   ar
     9    40    41   ar
    10    41    42   ar
    11    42    43   ar
    12    43    44   ar
    13    44    45   ar
    14    25    26    1
    15    26    27    2
    16    26    28   am
    17    28    30    1
    18    30    31   ar
    19    31    32   ar
    20    32    33   ar
    21    33    34   ar
    22    34    35   ar
    23     2     5    1
    24     5     6   ar
    25     6     7   ar
    26     7     8   ar
    27     8    12    1
    28    12    13    1
    29    13    14    1
    30    14    15    1
    31    15    18    1
    32    18    19   ar
    33    19    20   ar
    34    20    21   ar
    35    21    22   ar
    36    22    23    1
    37    22    24   ar
    38    15    16    1
    39    16    17    1
    40     8     9   ar
    41     9    10   ar
    42    10    11    1
    43    45    37   ar
    44    35    30   ar
    45    10     5   ar
    46    45    40   ar
    47    17    12    1
    48    24    18   ar
    49     3     4    1
    50    39    46    1
    51    28    29    1
@<TRIPOS>MOLECULE
*****
 46 51 0 0 0
SMALL
GASTEIGER

@<TRIPOS>ATOM
      1 O          -8.7109  -15.5959   28.3457 O.2     1  UNL1       -0.2701
      2 C          -8.0881  -14.7481   27.6492 C.2     1  UNL1        0.2483
      3 N          -7.9873  -13.3887   28.1036 N.am    1  UNL1       -0.2945
      4 H          -7.6735  -12.6552   27.4282 H       1  UNL1        0.1501
      5 C          -7.4969  -15.1646   26.3577 C.ar    1  UNL1        0.0808
      6 C          -6.1036  -15.3028   26.2453 C.ar    1  UNL1        0.0080
      7 C          -5.5238  -15.6971   25.0371 C.ar    1  UNL1        0.0148
      8 C          -6.3250  -15.9547   23.9139 C.ar    1  UNL1        0.0502
      9 C          -7.7153  -15.7921   24.0161 C.ar    1  UNL1        0.0443
     10 C          -8.2999  -15.3997   25.2246 C.ar    1  UNL1        0.1457
     11 F          -9.6424  -15.2052   25.2658 F       1  UNL1       -0.2040
     12 N          -5.7247  -16.3465   22.6643 N.pl3   1  UNL1       -0.3040
     13 C          -4.7335  -15.4647   22.0258 C.3     1  UNL1        0.1122
     14 C          -4.0306  -16.1665   20.8581 C.3     1  UNL1        0.1122
     15 N          -3.6938  -17.5460   21.2379 N.pl3   1  UNL1       -0.3040
     16 C          -4.7358  -18.4218   21.7991 C.3     1  UNL1        0.1122
     17 C          -6.0344  -17.6499   22.0595 C.3     1  UNL1        0.1122
     18 C          -2.3403  -18.0280   21.1336 C.ar    1  UNL1        0.0502
     19 C          -1.9981  -19.3015   21.6223 C.ar    1  UNL1        0.0147
     20 C          -0.6871  -19.7735   21.5081 C.ar    1  UNL1        0.0036
     21 C           0.2923  -18.9823   20.9028 C.ar    1  UNL1        0.0297
     22 C          -0.0385  -17.7180   20.4077 C.ar    1  UNL1        0.1414
     23 F           0.9128  -16.9509   19.8204 F       1  UNL1       -0.2041
     24 C          -1.3492  -17.2425   20.5191 C.ar    1  UNL1        0.0441
     25 C          -8.3819  -12.9941   29.4600 C.3     1  UNL1        0.1535
     26 C          -7.6923  -11.7093   29.8442 C.2     1  UNL1        0.2443
     27 O          -7.7091  -10.7296   29.0498 O.2     1  UNL1       -0.2730
     28 N          -7.0429  -11.6021   31.1210 N.am    1  UNL1       -0.2825
     29 H          -6.7737  -12.4869   31.6078 H       1  UNL1        0.1549
     30 C          -6.7028  -10.3566   31.7535 C.ar    1  UNL1        0.0535
     31 C          -7.6449   -9.7231   32.5753 C.ar    1  UNL1        0.0353
     32 C          -7.3332   -8.4972   33.1679 C.ar    1  UNL1        0.1002
     33 N          -6.1282   -7.9137   32.9342 N.ar    1  UNL1       -0.2422
     34 C          -5.2015   -8.4934   32.1264 C.ar    1  UNL1        0.1002
     35 C          -5.4722   -9.7203   31.5155 C.ar    1  UNL1        0.0353
     36 C          -9.9115  -12.8331   29.5498 C.3     1  UNL1        0.0569
     37 C         -10.3205  -12.0907   30.7910 C.ar    1  UNL1       -0.0017
     38 C         -10.4261  -12.6196   32.0742 C.ar    1  UNL1        0.0681
     39 N         -10.9270  -11.6963   32.9261 N.ar    1  UNL1       -0.3523
     40 C         -11.1474  -10.5931   32.1901 C.ar    1  UNL1        0.0563
     41 C         -11.6850   -9.3820   32.6236 C.ar    1  UNL1        0.0170
     42 C         -11.8549   -8.3600   31.6716 C.ar    1  UNL1        0.0015
     43 C         -11.4915   -8.5704   30.3227 C.ar    1  UNL1        0.0001
     44 C         -10.9540   -9.8043   29.9134 C.ar    1  UNL1        0.0012
     45 C         -10.7926  -10.7961   30.8810 C.ar    1  UNL1        0.0131
     46 H         -11.1210  -11.8255   33.9439 H       1  UNL1        0.1660
@<TRIPOS>BOND
     1     1     2    2
     2     2     3   am
     3     3    25    1
     4    25    36    1
     5    36    37    1
     6    37    38   ar
     7    38    39   ar
     8    39    40   ar
     9    40    41   ar
    10    41    42   ar
    11    42    43   ar
    12    43    44   ar
    13    44    45   ar
    14    25    26    1
    15    26    27    2
    16    26    28   am
    17    28    30    1
    18    30    31   ar
    19    31    32   ar
    20    32    33   ar
    21    33    34   ar
    22    34    35   ar
    23     2     5    1
    24     5     6   ar
    25     6     7   ar
    26     7     8   ar
    27     8    12    1
    28    12    13    1
    29    13    14    1
    30    14    15    1
    31    15    18    1
    32    18    19   ar
    33    19    20   ar
    34    20    21   ar
    35    21    22   ar
    36    22    23    1
    37    22    24   ar
    38    15    16    1
    39    16    17    1
    40     8     9   ar
    41     9    10   ar
    42    10    11    1
    43    45    37   ar
    44    35    30   ar
    45    10     5   ar
    46    45    40   ar
    47    17    12    1
    48    24    18   ar
    49     3     4    1
    50    39    46    1
    51    28    29    1
@<TRIPOS>MOLECULE
*****
 46 51 0 0 0
SMALL
GASTEIGER

@<TRIPOS>ATOM
      1 O          -8.1212  -10.1130   30.9629 O.2     1  UNL1       -0.2701
      2 C          -8.8747  -11.1151   30.8221 C.2     1  UNL1        0.2483
      3 N         -10.0573  -11.2361   31.6291 N.am    1  UNL1       -0.2945
      4 H         -10.5459  -12.1593   31.6690 H       1  UNL1        0.1501
      5 C          -8.5085  -12.1660   29.8461 C.ar    1  UNL1        0.0808
      6 C          -9.5014  -13.0255   29.3475 C.ar    1  UNL1        0.0080
      7 C          -9.1795  -14.0227   28.4237 C.ar    1  UNL1        0.0148
      8 C          -7.8565  -14.1858   27.9847 C.ar    1  UNL1        0.0502
      9 C          -6.8580  -13.3453   28.5010 C.ar    1  UNL1        0.0443
     10 C          -7.1765  -12.3441   29.4242 C.ar    1  UNL1        0.1457
     11 F          -6.1732  -11.5872   29.9363 F       1  UNL1       -0.2040
     12 N          -7.5231  -15.2244   27.0437 N.pl3   1  UNL1       -0.3040
     13 C          -8.4389  -15.5164   25.9284 C.3     1  UNL1        0.1122
     14 C          -7.7931  -16.4592   24.9067 C.3     1  UNL1        0.1122
     15 N          -6.4011  -16.0525   24.6661 N.pl3   1  UNL1       -0.3040
     16 C          -5.4942  -15.8489   25.8080 C.3     1  UNL1        0.1122
     17 C          -6.2445  -15.9429   27.1415 C.3     1  UNL1        0.1122
     18 C          -5.9342  -15.7822   23.3303 C.ar    1  UNL1        0.0502
     19 C          -6.8135  -15.2736   22.3578 C.ar    1  UNL1        0.0147
     20 C          -6.3557  -14.9989   21.0656 C.ar    1  UNL1        0.0036
     21 C          -5.0177  -15.2250   20.7334 C.ar    1  UNL1        0.0297
     22 C          -4.1340  -15.7238   21.6942 C.ar    1  UNL1        0.1414
     23 F          -2.8355  -15.9428   21.3708 F       1  UNL1       -0.2041
     24 C          -4.5877  -15.9990   22.9884 C.ar    1  UNL1        0.0441
     25 C         -10.5509  -10.1264   32.4515 C.3     1  UNL1        0.1535
     26 C         -10.8441   -8.9305   31.5812 C.2     1  UNL1        0.2443
     27 O         -12.0174   -8.7368   31.1605 O.2     1  UNL1       -0.2730
     28 N          -9.7917   -8.0079   31.2580 N.am    1  UNL1       -0.2825
     29 H          -8.8053   -8.3428   31.3434 H       1  UNL1        0.1549
     30 C         -10.0079   -6.6673   30.7857 C.ar    1  UNL1        0.0535
     31 C         -11.1644   -5.9788   31.1766 C.ar    1  UNL1        0.0353
     32 C         -11.3969   -4.6878   30.6965 C.ar    1  UNL1        0.1002
     33 N         -10.5137   -4.1092   29.8408 N.ar    1  UNL1       -0.2422
     34 C          -9.3934   -4.7587   29.4278 C.ar    1  UNL1        0.1002
     35 C          -9.1221   -6.0505   29.8854 C.ar    1  UNL1        0.0353
     36 C         -11.8123  -10.5515   33.2272 C.3     1  UNL1        0.0569
     37 C         -12.4214  -11.8013   32.6561 C.ar    1  UNL1       -0.0017
     38 C         -13.2525  -11.8821   31.5423 C.ar    1  UNL1        0.0681
     39 N         -13.7046  -13.1464   31.3810 N.ar    1  UNL1       -0.3523
     40 C         -13.1744  -13.8617   32.3882 C.ar    1  UNL1        0.0563
     41 C         -13.3732  -15.2147   32.6595 C.ar    1  UNL1        0.0170
     42 C         -12.7369  -15.7588   33.7902 C.ar    1  UNL1        0.0015
     43 C         -11.9286  -14.9470   34.6169 C.ar    1  UNL1        0.0001
     44 C         -11.7484  -13.5837   34.3202 C.ar    1  UNL1        0.0012
     45 C         -12.3877  -13.0745   33.1897 C.ar    1  UNL1        0.0131
     46 H         -14.3512  -13.4883   30.6358 H       1  UNL1        0.1660
@<TRIPOS>BOND
     1     1     2    2
     2     2     3   am
     3     3    25    1
     4    25    36    1
     5    36    37    1
     6    37    38   ar
     7    38    39   ar
     8    39    40   ar
     9    40    41   ar
    10    41    42   ar
    11    42    43   ar
    12    43    44   ar
    13    44    45   ar
    14    25    26    1
    15    26    27    2
    16    26    28   am
    17    28    30    1
    18    30    31   ar
    19    31    32   ar
    20    32    33   ar
    21    33    34   ar
    22    34    35   ar
    23     2     5    1
    24     5     6   ar
    25     6     7   ar
    26     7     8   ar
    27     8    12    1
    28    12    13    1
    29    13    14    1
    30    14    15    1
    31    15    18    1
    32    18    19   ar
    33    19    20   ar
    34    20    21   ar
    35    21    22   ar
    36    22    23    1
    37    22    24   ar
    38    15    16    1
    39    16    17    1
    40     8     9   ar
    41     9    10   ar
    42    10    11    1
    43    45    37   ar
    44    35    30   ar
    45    10     5   ar
    46    45    40   ar
    47    17    12    1
    48    24    18   ar
    49     3     4    1
    50    39    46    1
    51    28    29    1
@<TRIPOS>MOLECULE
*****
 46 51 0 0 0
SMALL
GASTEIGER

@<TRIPOS>ATOM
      1 O          -9.2205  -10.2159   30.5715 O.2     1  UNL1       -0.2701
      2 C          -8.4769  -11.1960   30.8512 C.2     1  UNL1        0.2483
      3 N          -7.8299  -11.2565   32.1326 N.am    1  UNL1       -0.2945
      4 H          -7.0515  -11.9404   32.2706 H       1  UNL1        0.1501
      5 C          -8.2603  -12.2537   29.8386 C.ar    1  UNL1        0.0808
      6 C          -6.9795  -12.4386   29.2921 C.ar    1  UNL1        0.0080
      7 C          -6.7511  -13.4322   28.3371 C.ar    1  UNL1        0.0148
      8 C          -7.8005  -14.2571   27.9034 C.ar    1  UNL1        0.0502
      9 C          -9.0867  -14.0574   28.4285 C.ar    1  UNL1        0.0443
     10 C          -9.3191  -13.0653   29.3865 C.ar    1  UNL1        0.1457
     11 F         -10.5871  -12.8724   29.8301 F       1  UNL1       -0.2040
     12 N          -7.5670  -15.2712   26.9072 N.pl3   1  UNL1       -0.3040
     13 C          -8.5100  -15.4203   25.7864 C.3     1  UNL1        0.1122
     14 C          -7.9569  -16.3633   24.7118 C.3     1  UNL1        0.1122
     15 N          -6.5346  -16.0727   24.4803 N.pl3   1  UNL1       -0.3040
     16 C          -5.6084  -16.0121   25.6232 C.3     1  UNL1        0.1122
     17 C          -6.3587  -16.1069   26.9567 C.3     1  UNL1        0.1122
     18 C          -6.0504  -15.7765   23.1563 C.ar    1  UNL1        0.0502
     19 C          -6.9034  -15.2002   22.1983 C.ar    1  UNL1        0.0147
     20 C          -6.4283  -14.9008   20.9179 C.ar    1  UNL1        0.0036
     21 C          -5.0989  -15.1697   20.5832 C.ar    1  UNL1        0.0297
     22 C          -4.2410  -15.7360   21.5298 C.ar    1  UNL1        0.1414
     23 F          -2.9508  -15.9965   21.2039 F       1  UNL1       -0.2041
     24 C          -4.7120  -16.0361   22.8122 C.ar    1  UNL1        0.0441
     25 C          -8.1804  -10.3385   33.2216 C.3     1  UNL1        0.1535
     26 C          -7.8434   -8.9218   32.8301 C.2     1  UNL1        0.2443
     27 O          -6.6816   -8.4762   33.0370 O.2     1  UNL1       -0.2730
     28 N          -8.8393   -8.0987   32.2025 N.am    1  UNL1       -0.2825
     29 H          -9.8423   -8.3650   32.3272 H       1  UNL1        0.1549
     30 C          -8.5482   -6.9097   31.4485 C.ar    1  UNL1        0.0535
     31 C          -7.2612   -6.3577   31.5051 C.ar    1  UNL1        0.0353
     32 C          -6.9795   -5.1850   30.8004 C.ar    1  UNL1        0.1002
     33 N          -7.9542   -4.5732   30.0773 N.ar    1  UNL1       -0.2422
     34 C          -9.2169   -5.0730   30.0189 C.ar    1  UNL1        0.1002
     35 C          -9.5404   -6.2448   30.7075 C.ar    1  UNL1        0.0353
     36 C          -9.6766  -10.4612   33.5677 C.3     1  UNL1        0.0569
     37 C         -10.0040  -11.8077   34.1497 C.ar    1  UNL1       -0.0017
     38 C          -9.2717  -12.4914   35.1161 C.ar    1  UNL1        0.0681
     39 N          -9.7945  -13.7214   35.3226 N.ar    1  UNL1       -0.3523
     40 C         -10.8439  -13.8237   34.4886 C.ar    1  UNL1        0.0563
     41 C         -11.6850  -14.9227   34.3200 C.ar    1  UNL1        0.0170
     42 C         -12.7138  -14.8227   33.3654 C.ar    1  UNL1        0.0015
     43 C         -12.8744  -13.6417   32.6069 C.ar    1  UNL1        0.0001
     44 C         -12.0085  -12.5494   32.7965 C.ar    1  UNL1        0.0012
     45 C         -11.0017  -12.6765   33.7537 C.ar    1  UNL1        0.0131
     46 H          -9.4391  -14.4487   35.9822 H       1  UNL1        0.1660
@<TRIPOS>BOND
     1     1     2    2
     2     2     3   am
     3     3    25    1
     4    25    36    1
     5    36    37    1
     6    37    38   ar
     7    38    39   ar
     8    39    40   ar
     9    40    41   ar
    10    41    42   ar
    11    42    43   ar
    12    43    44   ar
    13    44    45   ar
    14    25    26    1
    15    26    27    2
    16    26    28   am
    17    28    30    1
    18    30    31   ar
    19    31    32   ar
    20    32    33   ar
    21    33    34   ar
    22    34    35   ar
    23     2     5    1
    24     5     6   ar
    25     6     7   ar
    26     7     8   ar
    27     8    12    1
    28    12    13    1
    29    13    14    1
    30    14    15    1
    31    15    18    1
    32    18    19   ar
    33    19    20   ar
    34    20    21   ar
    35    21    22   ar
    36    22    23    1
    37    22    24   ar
    38    15    16    1
    39    16    17    1
    40     8     9   ar
    41     9    10   ar
    42    10    11    1
    43    45    37   ar
    44    35    30   ar
    45    10     5   ar
    46    45    40   ar
    47    17    12    1
    48    24    18   ar
    49     3     4    1
    50    39    46    1
    51    28    29    1
@<TRIPOS>MOLECULE
*****
 46 51 0 0 0
SMALL
GASTEIGER

@<TRIPOS>ATOM
      1 O          -5.3483  -16.1242   26.6207 O.2     1  UNL1       -0.2701
      2 C          -6.2633  -15.3309   26.2669 C.2     1  UNL1        0.2483
      3 N          -6.5893  -15.1949   24.8742 N.am    1  UNL1       -0.2945
      4 H          -7.1787  -14.3860   24.5729 H       1  UNL1        0.1501
      5 C          -6.9655  -14.5297   27.2946 C.ar    1  UNL1        0.0808
      6 C          -6.2862  -13.4852   27.9432 C.ar    1  UNL1        0.0080
      7 C          -6.9295  -12.7143   28.9144 C.ar    1  UNL1        0.0148
      8 C          -8.2636  -12.9765   29.2623 C.ar    1  UNL1        0.0502
      9 C          -8.9365  -14.0362   28.6346 C.ar    1  UNL1        0.0443
     10 C          -8.2968  -14.8090   27.6601 C.ar    1  UNL1        0.1457
     11 F          -8.9671  -15.8556   27.1151 F       1  UNL1       -0.2040
     12 N          -8.9211  -12.1906   30.2750 N.pl3   1  UNL1       -0.3040
     13 C          -8.1553  -11.1784   31.0211 C.3     1  UNL1        0.1122
     14 C          -9.0775  -10.2831   31.8566 C.3     1  UNL1        0.1122
     15 N         -10.2623   -9.9166   31.0675 N.pl3   1  UNL1       -0.3040
     16 C         -11.0484  -10.9691   30.4025 C.3     1  UNL1        0.1122
     17 C         -10.3636  -12.3357   30.5179 C.3     1  UNL1        0.1122
     18 C         -10.6218   -8.5344   30.8790 C.ar    1  UNL1        0.0502
     19 C         -11.9185   -8.0871   31.1890 C.ar    1  UNL1        0.0147
     20 C         -12.2619   -6.7426   31.0184 C.ar    1  UNL1        0.0036
     21 C         -11.3153   -5.8327   30.5414 C.ar    1  UNL1        0.0297
     22 C         -10.0219   -6.2653   30.2367 C.ar    1  UNL1        0.1414
     23 F          -9.1038   -5.3813   29.7739 F       1  UNL1       -0.2041
     24 C          -9.6739   -7.6093   30.4069 C.ar    1  UNL1        0.0441
     25 C          -6.0585  -16.1132   23.8611 C.3     1  UNL1        0.1535
     26 C          -7.1510  -16.5068   22.8992 C.2     1  UNL1        0.2443
     27 O          -7.8243  -15.6119   22.3187 O.2     1  UNL1       -0.2730
     28 N          -7.4005  -17.8960   22.6322 N.am    1  UNL1       -0.2825
     29 H          -7.0660  -18.5957   23.3329 H       1  UNL1        0.1549
     30 C          -8.1161  -18.3833   21.4845 C.ar    1  UNL1        0.0535
     31 C          -9.5048  -18.2077   21.4146 C.ar    1  UNL1        0.0353
     32 C         -10.2112  -18.7063   20.3175 C.ar    1  UNL1        0.1002
     33 N          -9.5565  -19.3737   19.3311 N.ar    1  UNL1       -0.2422
     34 C          -8.2135  -19.5774   19.3799 C.ar    1  UNL1        0.1002
     35 C          -7.4690  -19.0935   20.4585 C.ar    1  UNL1        0.0353
     36 C          -4.8843  -15.4611   23.1065 C.3     1  UNL1        0.0569
     37 C          -4.6167  -16.1461   21.7957 C.ar    1  UNL1       -0.0017
     38 C          -4.8930  -15.6426   20.5277 C.ar    1  UNL1        0.0681
     39 N          -4.6256  -16.5715   19.5819 N.ar    1  UNL1       -0.3523
     40 C          -4.1925  -17.6595   20.2421 C.ar    1  UNL1        0.0563
     41 C          -3.8193  -18.8865   19.6953 C.ar    1  UNL1        0.0170
     42 C          -3.4192  -19.9056   20.5790 C.ar    1  UNL1        0.0015
     43 C          -3.4050  -19.6792   21.9735 C.ar    1  UNL1        0.0001
     44 C          -3.7899  -18.4315   22.4971 C.ar    1  UNL1        0.0012
     45 C          -4.1763  -17.4395   21.5958 C.ar    1  UNL1        0.0131
     46 H          -4.7515  -16.4673   18.5506 H       1  UNL1        0.1660
@<TRIPOS>BOND
     1     1     2    2
     2     2     3   am
     3     3    25    1
     4    25    36    1
     5    36    37    1
     6    37    38   ar
     7    38    39   ar
     8    39    40   ar
     9    40    41   ar
    10    41    42   ar
    11    42    43   ar
    12    43    44   ar
    13    44    45   ar
    14    25    26    1
    15    26    27    2
    16    26    28   am
    17    28    30    1
    18    30    31   ar
    19    31    32   ar
    20    32    33   ar
    21    33    34   ar
    22    34    35   ar
    23     2     5    1
    24     5     6   ar
    25     6     7   ar
    26     7     8   ar
    27     8    12    1
    28    12    13    1
    29    13    14    1
    30    14    15    1
    31    15    18    1
    32    18    19   ar
    33    19    20   ar
    34    20    21   ar
    35    21    22   ar
    36    22    23    1
    37    22    24   ar
    38    15    16    1
    39    16    17    1
    40     8     9   ar
    41     9    10   ar
    42    10    11    1
    43    45    37   ar
    44    35    30   ar
    45    10     5   ar
    46    45    40   ar
    47    17    12    1
    48    24    18   ar
    49     3     4    1
    50    39    46    1
    51    28    29    1
@<TRIPOS>MOLECULE
*****
 46 51 0 0 0
SMALL
GASTEIGER

@<TRIPOS>ATOM
      1 O          -9.2513  -15.5033   28.9889 O.2     1  UNL1       -0.2701
      2 C          -8.9409  -14.5646   28.2051 C.2     1  UNL1        0.2483
      3 N          -9.1666  -13.2020   28.6009 N.am    1  UNL1       -0.2945
      4 H          -9.1204  -12.4532   27.8731 H       1  UNL1        0.1501
      5 C          -8.3761  -14.8873   26.8755 C.ar    1  UNL1        0.0808
      6 C          -9.2407  -15.1619   25.8030 C.ar    1  UNL1        0.0080
      7 C          -8.7302  -15.4663   24.5388 C.ar    1  UNL1        0.0148
      8 C          -7.3442  -15.5094   24.3225 C.ar    1  UNL1        0.0502
      9 C          -6.4779  -15.2611   25.3985 C.ar    1  UNL1        0.0443
     10 C          -6.9849  -14.9537   26.6652 C.ar    1  UNL1        0.1457
     11 F          -6.1131  -14.7706   27.6890 F       1  UNL1       -0.2040
     12 N          -6.8189  -15.8384   23.0220 N.pl3   1  UNL1       -0.3040
     13 C          -5.5679  -15.2120   22.5634 C.3     1  UNL1        0.1122
     14 C          -5.0455  -15.8771   21.2848 C.3     1  UNL1        0.1122
     15 N          -5.1726  -17.3372   21.3969 N.pl3   1  UNL1       -0.3040
     16 C          -6.4653  -17.9283   21.7807 C.3     1  UNL1        0.1122
     17 C          -7.4771  -16.8484   22.1810 C.3     1  UNL1        0.1122
     18 C          -4.0291  -18.1921   21.2048 C.ar    1  UNL1        0.0502
     19 C          -2.7562  -17.7886   21.6460 C.ar    1  UNL1        0.0147
     20 C          -1.6496  -18.6251   21.4712 C.ar    1  UNL1        0.0036
     21 C          -1.8032  -19.8714   20.8590 C.ar    1  UNL1        0.0297
     22 C          -3.0648  -20.2849   20.4230 C.ar    1  UNL1        0.1414
     23 F          -3.2128  -21.4948   19.8290 F       1  UNL1       -0.2041
     24 C          -4.1746  -19.4516   20.5969 C.ar    1  UNL1        0.0441
     25 C          -9.5313  -12.8450   29.9761 C.3     1  UNL1        0.1535
     26 C          -8.6608  -11.7142   30.4631 C.2     1  UNL1        0.2443
     27 O          -8.2685  -11.6996   31.6619 O.2     1  UNL1       -0.2730
     28 N          -8.2644  -10.6757   29.5532 N.am    1  UNL1       -0.2825
     29 H          -8.8364  -10.5389   28.6893 H       1  UNL1        0.1549
     30 C          -7.1567   -9.7862   29.7740 C.ar    1  UNL1        0.0535
     31 C          -7.3921   -8.5181   30.3226 C.ar    1  UNL1        0.0353
     32 C          -6.3251   -7.6365   30.5106 C.ar    1  UNL1        0.1002
     33 N          -5.0673   -8.0009   30.1470 N.ar    1  UNL1       -0.2422
     34 C          -4.8101   -9.2157   29.5943 C.ar    1  UNL1        0.1002
     35 C          -5.8484  -10.1281   29.3906 C.ar    1  UNL1        0.0353
     36 C         -11.0191  -12.4524   30.0533 C.3     1  UNL1        0.0569
     37 C         -11.5320  -12.4922   31.4655 C.ar    1  UNL1       -0.0017
     38 C         -11.5847  -11.4243   32.3568 C.ar    1  UNL1        0.0681
     39 N         -11.9986  -11.8446   33.5738 N.ar    1  UNL1       -0.3523
     40 C         -12.1981  -13.1693   33.4610 C.ar    1  UNL1        0.0563
     41 C         -12.6045  -14.0506   34.4619 C.ar    1  UNL1        0.0170
     42 C         -12.7257  -15.4123   34.1294 C.ar    1  UNL1        0.0015
     43 C         -12.4374  -15.8580   32.8201 C.ar    1  UNL1        0.0001
     44 C         -12.0262  -14.9460   31.8310 C.ar    1  UNL1        0.0012
     45 C         -11.9206  -13.6021   32.1895 C.ar    1  UNL1        0.0131
     46 H         -12.1174  -11.2589   34.4300 H       1  UNL1        0.1660
@<TRIPOS>BOND
     1     1     2    2
     2     2     3   am
     3     3    25    1
     4    25    36    1
     5    36    37    1
     6    37    38   ar
     7    38    39   ar
     8    39    40   ar
     9    40    41   ar
    10    41    42   ar
    11    42    43   ar
    12    43    44   ar
    13    44    45   ar
    14    25    26    1
    15    26    27    2
    16    26    28   am
    17    28    30    1
    18    30    31   ar
    19    31    32   ar
    20    32    33   ar
    21    33    34   ar
    22    34    35   ar
    23     2     5    1
    24     5     6   ar
    25     6     7   ar
    26     7     8   ar
    27     8    12    1
    28    12    13    1
    29    13    14    1
    30    14    15    1
    31    15    18    1
    32    18    19   ar
    33    19    20   ar
    34    20    21   ar
    35    21    22   ar
    36    22    23    1
    37    22    24   ar
    38    15    16    1
    39    16    17    1
    40     8     9   ar
    41     9    10   ar
    42    10    11    1
    43    45    37   ar
    44    35    30   ar
    45    10     5   ar
    46    45    40   ar
    47    17    12    1
    48    24    18   ar
    49     3     4    1
    50    39    46    1
    51    28    29    1
