@<TRIPOS>MOLECULE
*****
 41 45 0 0 0
SMALL
GASTEIGER

@<TRIPOS>ATOM
      1 C          -9.4290  -10.2841   32.9686 C.3     1  UNL1        0.1332
      2 N          -9.5748  -11.3588   31.9867 N.ar    1  UNL1       -0.2977
      3 C         -10.5957  -12.2542   31.8534 C.ar    1  UNL1        0.2018
      4 N         -10.3989  -13.1664   30.8669 N.ar    1  UNL1       -0.2135
      5 C          -9.2165  -12.7972   30.3452 C.ar    1  UNL1        0.0999
      6 C          -8.5547  -13.3766   29.2549 C.ar    1  UNL1        0.0282
      7 C          -7.3296  -12.8047   28.8272 C.ar    1  UNL1        0.0888
      8 C          -6.8580  -11.6567   29.5098 C.ar    1  UNL1        0.1401
      9 C          -7.5194  -11.1206   30.5909 C.ar    1  UNL1        0.0327
     10 C          -8.7190  -11.7059   31.0067 C.ar    1  UNL1        0.0789
     11 C          -6.8055   -9.9065   31.0741 C.3     1  UNL1        0.0709
     12 C          -5.6221   -9.7780   30.0597 C.3     1  UNL1        0.1375
     13 C          -4.2630   -9.8473   30.7690 C.3     1  UNL1        0.0439
     14 C          -5.7314   -8.4867   29.2377 C.3     1  UNL1        0.0439
     15 O          -5.7511  -10.9003   29.1853 O.3     1  UNL1       -0.4824
     16 C          -6.6086  -13.3763   27.6701 C.2     1  UNL1        0.2525
     17 O          -5.5489  -12.8176   27.2764 O.2     1  UNL1       -0.2697
     18 N          -7.1010  -14.5514   27.0002 N.am    1  UNL1       -0.2803
     19 H          -7.9602  -15.0176   27.3665 H       1  UNL1        0.1552
     20 C          -6.4366  -15.1836   25.8934 C.ar    1  UNL1        0.0507
     21 C          -5.2561  -15.9211   26.0736 C.ar    1  UNL1        0.0178
     22 C          -4.6158  -16.5029   24.9787 C.ar    1  UNL1        0.0378
     23 C          -5.1347  -16.3454   23.6869 C.ar    1  UNL1        0.1376
     24 O          -4.4851  -16.9344   22.6017 O.3     1  UNL1       -0.5056
     25 C          -6.3065  -15.5885   23.4857 C.ar    1  UNL1        0.1062
     26 C          -6.9427  -15.0042   24.5979 C.ar    1  UNL1        0.0216
     27 H          -3.6406  -17.4816   22.7207 H       1  UNL1        0.2922
     28 C          -6.8585  -15.4103   22.0897 C.3     1  UNL1        0.4214
     29 F          -7.1419  -16.6492   21.5438 F       1  UNL1       -0.1657
     30 F          -5.9607  -14.7610   21.2598 F       1  UNL1       -0.1657
     31 F          -8.0215  -14.6637   22.1446 F       1  UNL1       -0.1657
     32 N         -11.7943  -12.2491   32.6422 N.pl3   1  UNL1       -0.2814
     33 H         -12.1446  -11.3257   32.9826 H       1  UNL1        0.1551
     34 C         -12.5116  -13.4298   33.0376 C.ar    1  UNL1        0.0889
     35 C         -13.6935  -13.7647   32.3556 C.ar    1  UNL1        0.1543
     36 F         -14.1350  -12.9898   31.3330 F       1  UNL1       -0.2028
     37 C         -14.4105  -14.9124   32.7043 C.ar    1  UNL1        0.0310
     38 C         -13.9651  -15.7270   33.7459 C.ar    1  UNL1        0.0033
     39 C         -12.8085  -15.3898   34.4516 C.ar    1  UNL1        0.0128
     40 C         -12.0812  -14.2422   34.1128 C.ar    1  UNL1        0.0733
     41 CL        -10.6891  -13.8245   35.1060 Cl      1  UNL1       -0.0809
@<TRIPOS>BOND
     1     1     2    1
     2     2     3   ar
     3     3    32    1
     4    32    34    1
     5    34    35   ar
     6    35    36    1
     7    35    37   ar
     8    37    38   ar
     9    38    39   ar
    10    39    40   ar
    11    40    41    1
    12     3     4   ar
    13     4     5   ar
    14     5     6   ar
    15     6     7   ar
    16     7    16    1
    17    16    17    2
    18    16    18   am
    19    18    20    1
    20    20    21   ar
    21    21    22   ar
    22    22    23   ar
    23    23    24    1
    24    23    25   ar
    25    25    28    1
    26    28    29    1
    27    28    30    1
    28    28    31    1
    29    25    26   ar
    30     7     8   ar
    31     8     9   ar
    32     9    10   ar
    33     9    11    1
    34    11    12    1
    35    12    13    1
    36    12    14    1
    37    12    15    1
    38    10     2   ar
    39    40    34   ar
    40    10     5   ar
    41    26    20   ar
    42    15     8    1
    43    32    33    1
    44    18    19    1
    45    24    27    1
@<TRIPOS>MOLECULE
*****
 41 45 0 0 0
SMALL
GASTEIGER

@<TRIPOS>ATOM
      1 C          -8.9254  -10.4739   32.0232 C.3     1  UNL1        0.1332
      2 N          -9.2420  -11.6313   31.1863 N.ar    1  UNL1       -0.2977
      3 C         -10.3472  -12.4305   31.2258 C.ar    1  UNL1        0.2018
      4 N         -10.3093  -13.4617   30.3430 N.ar    1  UNL1       -0.2135
      5 C          -9.1411  -13.2716   29.7060 C.ar    1  UNL1        0.0999
      6 C          -8.6191  -14.0313   28.6511 C.ar    1  UNL1        0.0282
      7 C          -7.3830  -13.6345   28.0806 C.ar    1  UNL1        0.0888
      8 C          -6.7587  -12.4702   28.5911 C.ar    1  UNL1        0.1401
      9 C          -7.2850  -11.7543   29.6421 C.ar    1  UNL1        0.0327
     10 C          -8.4979  -12.1682   30.2006 C.ar    1  UNL1        0.0789
     11 C          -6.4292  -10.5707   29.9316 C.3     1  UNL1        0.0709
     12 C          -5.3191  -10.6736   28.8347 C.3     1  UNL1        0.1375
     13 C          -3.9222  -10.7977   29.4578 C.3     1  UNL1        0.0439
     14 C          -5.3725   -9.4772   27.8750 C.3     1  UNL1        0.0439
     15 O          -5.6154  -11.8678   28.1088 O.3     1  UNL1       -0.4824
     16 C          -6.8065  -14.3998   26.9548 C.2     1  UNL1        0.2525
     17 O          -5.6182  -14.8122   27.0439 O.2     1  UNL1       -0.2697
     18 N          -7.5829  -14.6746   25.7742 N.am    1  UNL1       -0.2803
     19 H          -8.5758  -14.3545   25.7382 H       1  UNL1        0.1552
     20 C          -7.1030  -15.4408   24.6568 C.ar    1  UNL1        0.0507
     21 C          -5.8606  -15.1689   24.0632 C.ar    1  UNL1        0.0178
     22 C          -5.4293  -15.9102   22.9624 C.ar    1  UNL1        0.0378
     23 C          -6.2365  -16.9230   22.4284 C.ar    1  UNL1        0.1376
     24 O          -5.7916  -17.6577   21.3289 O.3     1  UNL1       -0.5056
     25 C          -7.4969  -17.1935   22.9982 C.ar    1  UNL1        0.1062
     26 C          -7.9227  -16.4374   24.1074 C.ar    1  UNL1        0.0216
     27 H          -4.8904  -17.4809   20.9009 H       1  UNL1        0.2922
     28 C          -8.3714  -18.2792   22.4135 C.3     1  UNL1        0.4214
     29 F          -9.5366  -18.3810   23.1517 F       1  UNL1       -0.1657
     30 F          -7.7386  -19.5105   22.4217 F       1  UNL1       -0.1657
     31 F          -8.6910  -17.9609   21.1060 F       1  UNL1       -0.1657
     32 N         -11.4773  -12.2192   32.0843 N.pl3   1  UNL1       -0.2814
     33 H         -11.8789  -11.2557   32.1257 H       1  UNL1        0.1551
     34 C         -12.0570  -13.2281   32.9274 C.ar    1  UNL1        0.0889
     35 C         -13.3013  -13.7753   32.5717 C.ar    1  UNL1        0.1543
     36 F         -13.9310  -13.3634   31.4425 F       1  UNL1       -0.2028
     37 C         -13.8894  -14.7675   33.3607 C.ar    1  UNL1        0.0310
     38 C         -13.2508  -15.2112   34.5192 C.ar    1  UNL1        0.0033
     39 C         -12.0283  -14.6548   34.9004 C.ar    1  UNL1        0.0128
     40 C         -11.4285  -13.6595   34.1191 C.ar    1  UNL1        0.0733
     41 CL         -9.9373  -12.9339   34.7093 Cl      1  UNL1       -0.0809
@<TRIPOS>BOND
     1     1     2    1
     2     2     3   ar
     3     3    32    1
     4    32    34    1
     5    34    35   ar
     6    35    36    1
     7    35    37   ar
     8    37    38   ar
     9    38    39   ar
    10    39    40   ar
    11    40    41    1
    12     3     4   ar
    13     4     5   ar
    14     5     6   ar
    15     6     7   ar
    16     7    16    1
    17    16    17    2
    18    16    18   am
    19    18    20    1
    20    20    21   ar
    21    21    22   ar
    22    22    23   ar
    23    23    24    1
    24    23    25   ar
    25    25    28    1
    26    28    29    1
    27    28    30    1
    28    28    31    1
    29    25    26   ar
    30     7     8   ar
    31     8     9   ar
    32     9    10   ar
    33     9    11    1
    34    11    12    1
    35    12    13    1
    36    12    14    1
    37    12    15    1
    38    10     2   ar
    39    40    34   ar
    40    10     5   ar
    41    26    20   ar
    42    15     8    1
    43    32    33    1
    44    18    19    1
    45    24    27    1
@<TRIPOS>MOLECULE
*****
 41 45 0 0 0
SMALL
GASTEIGER

@<TRIPOS>ATOM
      1 C          -8.7774  -10.4741   32.3041 C.3     1  UNL1        0.1332
      2 N          -9.1750  -11.6007   31.4598 N.ar    1  UNL1       -0.2977
      3 C         -10.2988  -12.3698   31.5443 C.ar    1  UNL1        0.2018
      4 N         -10.3415  -13.3790   30.6366 N.ar    1  UNL1       -0.2135
      5 C          -9.2067  -13.2051   29.9377 C.ar    1  UNL1        0.0999
      6 C          -8.7682  -13.9520   28.8366 C.ar    1  UNL1        0.0282
      7 C          -7.5558  -13.5753   28.2050 C.ar    1  UNL1        0.0888
      8 C          -6.8697  -12.4420   28.7060 C.ar    1  UNL1        0.1401
      9 C          -7.3139  -11.7387   29.8023 C.ar    1  UNL1        0.0327
     10 C          -8.5044  -12.1329   30.4202 C.ar    1  UNL1        0.0789
     11 C          -6.4089  -10.5869   30.0698 C.3     1  UNL1        0.0709
     12 C          -5.3669  -10.6926   28.9083 C.3     1  UNL1        0.1375
     13 C          -3.9408  -10.8712   29.4463 C.3     1  UNL1        0.0439
     14 C          -5.4403   -9.4713   27.9819 C.3     1  UNL1        0.0439
     15 O          -5.7388  -11.8594   28.1727 O.3     1  UNL1       -0.4824
     16 C          -7.0672  -14.3274   27.0298 C.2     1  UNL1        0.2525
     17 O          -5.8510  -14.6569   26.9802 O.2     1  UNL1       -0.2697
     18 N          -7.9591  -14.6823   25.9571 N.am    1  UNL1       -0.2803
     19 H          -8.9689  -14.4306   26.0371 H       1  UNL1        0.1552
     20 C          -7.5650  -15.4417   24.8021 C.ar    1  UNL1        0.0507
     21 C          -8.2936  -16.5655   24.3822 C.ar    1  UNL1        0.0178
     22 C          -7.8748  -17.3015   23.2730 C.ar    1  UNL1        0.0378
     23 C          -6.7158  -16.9368   22.5756 C.ar    1  UNL1        0.1376
     24 O          -6.3101  -17.6806   21.4672 O.3     1  UNL1       -0.5056
     25 C          -5.9599  -15.8248   22.9980 C.ar    1  UNL1        0.1062
     26 C          -6.3909  -15.0909   24.1200 C.ar    1  UNL1        0.0216
     27 H          -6.8357  -18.4849   21.1454 H       1  UNL1        0.2922
     28 C          -4.7033  -15.4397   22.2509 C.3     1  UNL1        0.4214
     29 F          -4.2605  -14.2076   22.6969 F       1  UNL1       -0.1657
     30 F          -4.9197  -15.3596   20.8859 F       1  UNL1       -0.1657
     31 F          -3.7201  -16.3845   22.4828 F       1  UNL1       -0.1657
     32 N         -11.3713  -12.1491   32.4716 N.pl3   1  UNL1       -0.2814
     33 H         -11.5975  -11.1604   32.7220 H       1  UNL1        0.1551
     34 C         -12.1160  -13.1953   33.1163 C.ar    1  UNL1        0.0889
     35 C         -13.3712  -13.5530   32.5960 C.ar    1  UNL1        0.1543
     36 F         -13.8579  -12.9267   31.4950 F       1  UNL1       -0.2028
     37 C         -14.1180  -14.5744   33.1892 C.ar    1  UNL1        0.0310
     38 C         -13.6281  -15.2368   34.3153 C.ar    1  UNL1        0.0033
     39 C         -12.3958  -14.8713   34.8604 C.ar    1  UNL1        0.0128
     40 C         -11.6379  -13.8490   34.2762 C.ar    1  UNL1        0.0733
     41 CL        -10.1411  -13.3739   35.0716 Cl      1  UNL1       -0.0809
@<TRIPOS>BOND
     1     1     2    1
     2     2     3   ar
     3     3    32    1
     4    32    34    1
     5    34    35   ar
     6    35    36    1
     7    35    37   ar
     8    37    38   ar
     9    38    39   ar
    10    39    40   ar
    11    40    41    1
    12     3     4   ar
    13     4     5   ar
    14     5     6   ar
    15     6     7   ar
    16     7    16    1
    17    16    17    2
    18    16    18   am
    19    18    20    1
    20    20    21   ar
    21    21    22   ar
    22    22    23   ar
    23    23    24    1
    24    23    25   ar
    25    25    28    1
    26    28    29    1
    27    28    30    1
    28    28    31    1
    29    25    26   ar
    30     7     8   ar
    31     8     9   ar
    32     9    10   ar
    33     9    11    1
    34    11    12    1
    35    12    13    1
    36    12    14    1
    37    12    15    1
    38    10     2   ar
    39    40    34   ar
    40    10     5   ar
    41    26    20   ar
    42    15     8    1
    43    32    33    1
    44    18    19    1
    45    24    27    1
@<TRIPOS>MOLECULE
*****
 41 45 0 0 0
SMALL
GASTEIGER

@<TRIPOS>ATOM
      1 C          -8.5297  -10.3681   32.4362 C.3     1  UNL1        0.1332
      2 N          -8.9781  -11.4884   31.6089 N.ar    1  UNL1       -0.2977
      3 C         -10.1071  -12.2431   31.7415 C.ar    1  UNL1        0.2018
      4 N         -10.2022  -13.2503   30.8357 N.ar    1  UNL1       -0.2135
      5 C          -9.0966  -13.0901   30.0883 C.ar    1  UNL1        0.0999
      6 C          -8.7160  -13.8410   28.9686 C.ar    1  UNL1        0.0282
      7 C          -7.5274  -13.4790   28.2852 C.ar    1  UNL1        0.0888
      8 C          -6.8056  -12.3553   28.7569 C.ar    1  UNL1        0.1401
      9 C          -7.1927  -11.6479   29.8721 C.ar    1  UNL1        0.0327
     10 C          -8.3602  -12.0276   30.5408 C.ar    1  UNL1        0.0789
     11 C          -6.2622  -10.5082   30.1010 C.3     1  UNL1        0.0709
     12 C          -5.2730  -10.6257   28.8952 C.3     1  UNL1        0.1375
     13 C          -3.8273  -10.8233   29.3707 C.3     1  UNL1        0.0439
     14 C          -5.3708   -9.4022   27.9740 C.3     1  UNL1        0.0439
     15 O          -5.6915  -11.7866   28.1755 O.3     1  UNL1       -0.4824
     16 C          -7.1000  -14.2357   27.0893 C.2     1  UNL1        0.2525
     17 O          -5.8779  -14.5130   26.9487 O.2     1  UNL1       -0.2697
     18 N          -8.0572  -14.6534   26.0986 N.am    1  UNL1       -0.2803
     19 H          -9.0678  -14.4440   26.2545 H       1  UNL1        0.1552
     20 C          -7.7220  -15.4210   24.9305 C.ar    1  UNL1        0.0507
     21 C          -8.4896  -16.5285   24.5381 C.ar    1  UNL1        0.0178
     22 C          -8.1276  -17.2733   23.4149 C.ar    1  UNL1        0.0378
     23 C          -6.9871  -16.9338   22.6756 C.ar    1  UNL1        0.1376
     24 O          -6.6383  -17.6861   21.5536 O.3     1  UNL1       -0.5056
     25 C          -6.1923  -15.8385   23.0694 C.ar    1  UNL1        0.1062
     26 C          -6.5661  -15.0957   24.2059 C.ar    1  UNL1        0.0216
     27 H          -7.1926  -18.4787   21.2516 H       1  UNL1        0.2922
     28 C          -4.9557  -15.4808   22.2768 C.3     1  UNL1        0.4214
     29 F          -4.4307  -14.2927   22.7520 F       1  UNL1       -0.1657
     30 F          -5.2337  -15.3289   20.9291 F       1  UNL1       -0.1657
     31 F          -4.0109  -16.4811   22.4182 F       1  UNL1       -0.1657
     32 N         -11.1354  -12.0099   32.7147 N.pl3   1  UNL1       -0.2814
     33 H         -11.2656  -11.0307   33.0546 H       1  UNL1        0.1551
     34 C         -11.9582  -13.0382   33.2894 C.ar    1  UNL1        0.0889
     35 C         -11.4576  -13.7803   34.3724 C.ar    1  UNL1        0.1543
     36 F         -10.2237  -13.5144   34.8704 F       1  UNL1       -0.2028
     37 C         -12.2346  -14.7795   34.9647 C.ar    1  UNL1        0.0310
     38 C         -13.5101  -15.0589   34.4728 C.ar    1  UNL1        0.0033
     39 C         -14.0081  -14.3494   33.3783 C.ar    1  UNL1        0.0128
     40 C         -13.2396  -13.3462   32.7751 C.ar    1  UNL1        0.0733
     41 CL        -13.8889  -12.5597   31.3403 Cl      1  UNL1       -0.0809
@<TRIPOS>BOND
     1     1     2    1
     2     2     3   ar
     3     3    32    1
     4    32    34    1
     5    34    35   ar
     6    35    36    1
     7    35    37   ar
     8    37    38   ar
     9    38    39   ar
    10    39    40   ar
    11    40    41    1
    12     3     4   ar
    13     4     5   ar
    14     5     6   ar
    15     6     7   ar
    16     7    16    1
    17    16    17    2
    18    16    18   am
    19    18    20    1
    20    20    21   ar
    21    21    22   ar
    22    22    23   ar
    23    23    24    1
    24    23    25   ar
    25    25    28    1
    26    28    29    1
    27    28    30    1
    28    28    31    1
    29    25    26   ar
    30     7     8   ar
    31     8     9   ar
    32     9    10   ar
    33     9    11    1
    34    11    12    1
    35    12    13    1
    36    12    14    1
    37    12    15    1
    38    10     2   ar
    39    40    34   ar
    40    10     5   ar
    41    26    20   ar
    42    15     8    1
    43    32    33    1
    44    18    19    1
    45    24    27    1
@<TRIPOS>MOLECULE
*****
 41 45 0 0 0
SMALL
GASTEIGER

@<TRIPOS>ATOM
      1 C          -9.1566  -10.0853   33.1387 C.3     1  UNL1        0.1332
      2 N          -9.3314  -11.1905   32.1962 N.ar    1  UNL1       -0.2977
      3 C         -10.3297  -12.1196   32.1531 C.ar    1  UNL1        0.2018
      4 N         -10.1684  -13.0522   31.1793 N.ar    1  UNL1       -0.2135
      5 C          -9.0346  -12.6619   30.5719 C.ar    1  UNL1        0.0999
      6 C          -8.4268  -13.2510   29.4556 C.ar    1  UNL1        0.0282
      7 C          -7.2510  -12.6543   28.9339 C.ar    1  UNL1        0.0888
      8 C          -6.7729  -11.4744   29.5546 C.ar    1  UNL1        0.1401
      9 C          -7.3795  -10.9289   30.6628 C.ar    1  UNL1        0.0327
     10 C          -8.5304  -11.5384   31.1712 C.ar    1  UNL1        0.0789
     11 C          -6.6749   -9.6810   31.0670 C.3     1  UNL1        0.0709
     12 C          -5.5644   -9.5448   29.9742 C.3     1  UNL1        0.1375
     13 C          -4.1607   -9.5536   30.5942 C.3     1  UNL1        0.0439
     14 C          -5.7679   -8.2805   29.1285 C.3     1  UNL1        0.0439
     15 O          -5.7140  -10.6942   29.1389 O.3     1  UNL1       -0.4824
     16 C          -6.5886  -13.2355   27.7469 C.2     1  UNL1        0.2525
     17 O          -5.5818  -12.6501   27.2635 O.2     1  UNL1       -0.2697
     18 N          -7.0782  -14.4498   27.1485 N.am    1  UNL1       -0.2803
     19 H          -7.8907  -14.9361   27.5877 H       1  UNL1        0.1552
     20 C          -6.4664  -15.0920   26.0174 C.ar    1  UNL1        0.0507
     21 C          -5.2685  -15.8121   26.1449 C.ar    1  UNL1        0.0178
     22 C          -4.6807  -16.4041   25.0262 C.ar    1  UNL1        0.0378
     23 C          -5.2706  -16.2741   23.7622 C.ar    1  UNL1        0.1376
     24 O          -4.6731  -16.8731   22.6528 O.3     1  UNL1       -0.5056
     25 C          -6.4613  -15.5349   23.6129 C.ar    1  UNL1        0.1062
     26 C          -7.0440  -14.9400   24.7485 C.ar    1  UNL1        0.0216
     27 H          -3.8164  -17.4080   22.7344 H       1  UNL1        0.2922
     28 C          -7.0901  -15.3863   22.2462 C.3     1  UNL1        0.4214
     29 F          -8.2283  -14.6066   22.3441 F       1  UNL1       -0.1657
     30 F          -7.4432  -16.6109   21.7057 F       1  UNL1       -0.1657
     31 F          -6.1941  -14.7726   21.3896 F       1  UNL1       -0.1657
     32 N         -11.4743  -12.1289   33.0185 N.pl3   1  UNL1       -0.2814
     33 H         -11.7084  -11.2425   33.5193 H       1  UNL1        0.1551
     34 C         -12.2843  -13.2862   33.2817 C.ar    1  UNL1        0.0889
     35 C         -11.8917  -14.1705   34.3006 C.ar    1  UNL1        0.1543
     36 F         -10.7740  -13.9209   35.0285 F       1  UNL1       -0.2028
     37 C         -12.6615  -15.2995   34.5931 C.ar    1  UNL1        0.0310
     38 C         -13.8199  -15.5658   33.8623 C.ar    1  UNL1        0.0033
     39 C         -14.2055  -14.7116   32.8274 C.ar    1  UNL1        0.0128
     40 C         -13.4426  -13.5773   32.5235 C.ar    1  UNL1        0.0733
     41 CL        -13.9323  -12.5986   31.1448 Cl      1  UNL1       -0.0809
@<TRIPOS>BOND
     1     1     2    1
     2     2     3   ar
     3     3    32    1
     4    32    34    1
     5    34    35   ar
     6    35    36    1
     7    35    37   ar
     8    37    38   ar
     9    38    39   ar
    10    39    40   ar
    11    40    41    1
    12     3     4   ar
    13     4     5   ar
    14     5     6   ar
    15     6     7   ar
    16     7    16    1
    17    16    17    2
    18    16    18   am
    19    18    20    1
    20    20    21   ar
    21    21    22   ar
    22    22    23   ar
    23    23    24    1
    24    23    25   ar
    25    25    28    1
    26    28    29    1
    27    28    30    1
    28    28    31    1
    29    25    26   ar
    30     7     8   ar
    31     8     9   ar
    32     9    10   ar
    33     9    11    1
    34    11    12    1
    35    12    13    1
    36    12    14    1
    37    12    15    1
    38    10     2   ar
    39    40    34   ar
    40    10     5   ar
    41    26    20   ar
    42    15     8    1
    43    32    33    1
    44    18    19    1
    45    24    27    1
@<TRIPOS>MOLECULE
*****
 41 45 0 0 0
SMALL
GASTEIGER

@<TRIPOS>ATOM
      1 C          -9.2930  -10.0793   34.2598 C.3     1  UNL1        0.1332
      2 N          -8.6060  -10.3707   33.0014 N.ar    1  UNL1       -0.2977
      3 C          -7.4356   -9.8490   32.5326 C.ar    1  UNL1        0.2018
      4 N          -7.0961  -10.2911   31.2943 N.ar    1  UNL1       -0.2135
      5 C          -8.0860  -11.1507   30.9981 C.ar    1  UNL1        0.0999
      6 C          -8.2089  -11.9345   29.8436 C.ar    1  UNL1        0.0282
      7 C          -9.3119  -12.8200   29.7431 C.ar    1  UNL1        0.0888
      8 C         -10.2138  -12.8846   30.8333 C.ar    1  UNL1        0.1401
      9 C         -10.0791  -12.0877   31.9472 C.ar    1  UNL1        0.0327
     10 C          -8.9927  -11.2111   32.0229 C.ar    1  UNL1        0.0789
     11 C         -11.1510  -12.4028   32.9316 C.3     1  UNL1        0.0709
     12 C         -11.9270  -13.5671   32.2328 C.3     1  UNL1        0.1375
     13 C         -13.3983  -13.2004   31.9965 C.3     1  UNL1        0.0439
     14 C         -11.8228  -14.8683   33.0397 C.3     1  UNL1        0.0439
     15 O         -11.2813  -13.7471   30.9712 O.3     1  UNL1       -0.4824
     16 C          -9.4686  -13.6764   28.5483 C.2     1  UNL1        0.2525
     17 O         -10.4153  -13.4403   27.7496 O.2     1  UNL1       -0.2697
     18 N          -8.5588  -14.7626   28.2937 N.am    1  UNL1       -0.2803
     19 H          -7.7613  -14.9162   28.9495 H       1  UNL1        0.1552
     20 C          -8.6266  -15.6137   27.1375 C.ar    1  UNL1        0.0507
     21 C          -9.0691  -16.9423   27.2324 C.ar    1  UNL1        0.0178
     22 C          -9.1004  -17.7562   26.0993 C.ar    1  UNL1        0.0378
     23 C          -8.6772  -17.2622   24.8586 C.ar    1  UNL1        0.1376
     24 O          -8.7159  -18.0866   23.7337 O.3     1  UNL1       -0.5056
     25 C          -8.2082  -15.9375   24.7504 C.ar    1  UNL1        0.1062
     26 C          -8.1789  -15.1261   25.9011 C.ar    1  UNL1        0.0216
     27 H          -9.0473  -19.0427   23.7864 H       1  UNL1        0.2922
     28 C          -7.7413  -15.4098   23.4130 C.3     1  UNL1        0.4214
     29 F          -7.4517  -14.0619   23.5241 F       1  UNL1       -0.1657
     30 F          -8.7036  -15.5716   22.4310 F       1  UNL1       -0.1657
     31 F          -6.6001  -16.0867   23.0221 F       1  UNL1       -0.1657
     32 N          -6.5983   -8.9386   33.2598 N.pl3   1  UNL1       -0.2814
     33 H          -6.6190   -8.9916   34.3029 H       1  UNL1        0.1551
     34 C          -5.7776   -7.9277   32.6521 C.ar    1  UNL1        0.0889
     35 C          -4.5419   -7.6131   33.2423 C.ar    1  UNL1        0.1543
     36 F          -4.1315   -8.2675   34.3580 F       1  UNL1       -0.2028
     37 C          -3.7116   -6.6445   32.6720 C.ar    1  UNL1        0.0310
     38 C          -4.1125   -5.9697   31.5184 C.ar    1  UNL1        0.0033
     39 C          -5.3509   -6.2512   30.9385 C.ar    1  UNL1        0.0128
     40 C          -6.1928   -7.2189   31.5003 C.ar    1  UNL1        0.0733
     41 CL         -7.7795   -7.4537   30.7752 Cl      1  UNL1       -0.0809
@<TRIPOS>BOND
     1     1     2    1
     2     2     3   ar
     3     3    32    1
     4    32    34    1
     5    34    35   ar
     6    35    36    1
     7    35    37   ar
     8    37    38   ar
     9    38    39   ar
    10    39    40   ar
    11    40    41    1
    12     3     4   ar
    13     4     5   ar
    14     5     6   ar
    15     6     7   ar
    16     7    16    1
    17    16    17    2
    18    16    18   am
    19    18    20    1
    20    20    21   ar
    21    21    22   ar
    22    22    23   ar
    23    23    24    1
    24    23    25   ar
    25    25    28    1
    26    28    29    1
    27    28    30    1
    28    28    31    1
    29    25    26   ar
    30     7     8   ar
    31     8     9   ar
    32     9    10   ar
    33     9    11    1
    34    11    12    1
    35    12    13    1
    36    12    14    1
    37    12    15    1
    38    10     2   ar
    39    40    34   ar
    40    10     5   ar
    41    26    20   ar
    42    15     8    1
    43    32    33    1
    44    18    19    1
    45    24    27    1
@<TRIPOS>MOLECULE
*****
 41 45 0 0 0
SMALL
GASTEIGER

@<TRIPOS>ATOM
      1 C          -9.3565  -14.9587   27.3617 C.3     1  UNL1        0.1332
      2 N          -7.9403  -14.7868   27.0374 N.ar    1  UNL1       -0.2977
      3 C          -6.9749  -14.1496   27.7611 C.ar    1  UNL1        0.2018
      4 N          -5.7624  -14.1200   27.1504 N.ar    1  UNL1       -0.2135
      5 C          -5.9811  -14.7989   26.0112 C.ar    1  UNL1        0.0999
      6 C          -5.0429  -15.1109   25.0187 C.ar    1  UNL1        0.0282
      7 C          -5.4671  -15.8829   23.9075 C.ar    1  UNL1        0.0888
      8 C          -6.8132  -16.3225   23.8788 C.ar    1  UNL1        0.1401
      9 C          -7.7185  -15.9839   24.8585 C.ar    1  UNL1        0.0327
     10 C          -7.2853  -15.2110   25.9399 C.ar    1  UNL1        0.0789
     11 C          -9.0364  -16.6162   24.5751 C.3     1  UNL1        0.0709
     12 C          -8.7504  -17.4372   23.2750 C.3     1  UNL1        0.1375
     13 C          -9.6496  -16.9868   22.1159 C.3     1  UNL1        0.0439
     14 C          -8.9098  -18.9435   23.5217 C.3     1  UNL1        0.0439
     15 O          -7.3883  -17.1597   22.9455 O.3     1  UNL1       -0.4824
     16 C          -4.5039  -16.2476   22.8470 C.2     1  UNL1        0.2525
     17 O          -4.8096  -16.0254   21.6440 O.2     1  UNL1       -0.2697
     18 N          -3.2360  -16.8452   23.1746 N.am    1  UNL1       -0.2803
     19 H          -2.9899  -16.9862   24.1792 H       1  UNL1        0.1552
     20 C          -2.2362  -17.1932   22.2024 C.ar    1  UNL1        0.0507
     21 C          -1.9447  -16.3498   21.1191 C.ar    1  UNL1        0.0178
     22 C          -0.9882  -16.7231   20.1741 C.ar    1  UNL1        0.0378
     23 C          -0.3194  -17.9489   20.2872 C.ar    1  UNL1        0.1376
     24 O           0.6361  -18.3082   19.3361 O.3     1  UNL1       -0.5056
     25 C          -0.6167  -18.8179   21.3562 C.ar    1  UNL1        0.1062
     26 C          -1.5855  -18.4315   22.3025 C.ar    1  UNL1        0.0216
     27 H           0.8660  -17.7015   18.5579 H       1  UNL1        0.2922
     28 C           0.0979  -20.1451   21.4702 C.3     1  UNL1        0.4214
     29 F           1.1007  -20.0495   22.4180 F       1  UNL1       -0.1657
     30 F           0.6668  -20.5288   20.2678 F       1  UNL1       -0.1657
     31 F          -0.8007  -21.1217   21.8598 F       1  UNL1       -0.1657
     32 N          -7.1742  -13.5765   29.0614 N.pl3   1  UNL1       -0.2814
     33 H          -7.1672  -14.2243   29.8810 H       1  UNL1        0.1551
     34 C          -7.4346  -12.1844   29.3044 C.ar    1  UNL1        0.0889
     35 C          -6.3774  -11.2666   29.1855 C.ar    1  UNL1        0.1543
     36 F          -5.1386  -11.6934   28.8326 F       1  UNL1       -0.2028
     37 C          -6.5962   -9.9034   29.4019 C.ar    1  UNL1        0.0310
     38 C          -7.8661   -9.4453   29.7545 C.ar    1  UNL1        0.0033
     39 C          -8.9188  -10.3500   29.9052 C.ar    1  UNL1        0.0128
     40 C          -8.7129  -11.7185   29.6920 C.ar    1  UNL1        0.0733
     41 CL        -10.0585  -12.8124   29.9942 Cl      1  UNL1       -0.0809
@<TRIPOS>BOND
     1     1     2    1
     2     2     3   ar
     3     3    32    1
     4    32    34    1
     5    34    35   ar
     6    35    36    1
     7    35    37   ar
     8    37    38   ar
     9    38    39   ar
    10    39    40   ar
    11    40    41    1
    12     3     4   ar
    13     4     5   ar
    14     5     6   ar
    15     6     7   ar
    16     7    16    1
    17    16    17    2
    18    16    18   am
    19    18    20    1
    20    20    21   ar
    21    21    22   ar
    22    22    23   ar
    23    23    24    1
    24    23    25   ar
    25    25    28    1
    26    28    29    1
    27    28    30    1
    28    28    31    1
    29    25    26   ar
    30     7     8   ar
    31     8     9   ar
    32     9    10   ar
    33     9    11    1
    34    11    12    1
    35    12    13    1
    36    12    14    1
    37    12    15    1
    38    10     2   ar
    39    40    34   ar
    40    10     5   ar
    41    26    20   ar
    42    15     8    1
    43    32    33    1
    44    18    19    1
    45    24    27    1
@<TRIPOS>MOLECULE
*****
 41 45 0 0 0
SMALL
GASTEIGER

@<TRIPOS>ATOM
      1 C          -8.6851   -9.4402   31.2784 C.3     1  UNL1        0.1332
      2 N          -9.1037  -10.6920   30.6475 N.ar    1  UNL1       -0.2977
      3 C         -10.3290  -11.2914   30.6812 C.ar    1  UNL1        0.2018
      4 N         -10.3736  -12.4837   30.0327 N.ar    1  UNL1       -0.2135
      5 C          -9.1263  -12.6111   29.5482 C.ar    1  UNL1        0.0999
      6 C          -8.6305  -13.6504   28.7503 C.ar    1  UNL1        0.0282
      7 C          -7.2882  -13.5740   28.2997 C.ar    1  UNL1        0.0888
      8 C          -6.5310  -12.4318   28.6577 C.ar    1  UNL1        0.1401
      9 C          -7.0381  -11.4351   29.4598 C.ar    1  UNL1        0.0327
     10 C          -8.3595  -11.5340   29.9055 C.ar    1  UNL1        0.0789
     11 C          -6.0264  -10.3565   29.6334 C.3     1  UNL1        0.0709
     12 C          -4.8358  -10.8580   28.7519 C.3     1  UNL1        0.1375
     13 C          -3.5607  -11.0487   29.5843 C.3     1  UNL1        0.0439
     14 C          -4.5714   -9.9042   27.5791 C.3     1  UNL1        0.0439
     15 O          -5.2533  -12.1242   28.2388 O.3     1  UNL1       -0.4824
     16 C          -6.7322  -14.6420   27.4421 C.2     1  UNL1        0.2525
     17 O          -6.9625  -15.8452   27.7412 O.2     1  UNL1       -0.2697
     18 N          -5.9415  -14.3216   26.2826 N.am    1  UNL1       -0.2803
     19 H          -5.7947  -13.3184   26.0343 H       1  UNL1        0.1552
     20 C          -5.3987  -15.3029   25.3835 C.ar    1  UNL1        0.0507
     21 C          -4.6367  -16.3836   25.8540 C.ar    1  UNL1        0.0178
     22 C          -4.0985  -17.3082   24.9579 C.ar    1  UNL1        0.0378
     23 C          -4.2996  -17.1605   23.5794 C.ar    1  UNL1        0.1376
     24 O          -3.7573  -18.0936   22.6952 O.3     1  UNL1       -0.5056
     25 C          -5.0428  -16.0681   23.0888 C.ar    1  UNL1        0.1062
     26 C          -5.5792  -15.1402   24.0023 C.ar    1  UNL1        0.0216
     27 H          -3.2180  -18.8862   23.0235 H       1  UNL1        0.2922
     28 C          -5.2491  -15.9043   21.6002 C.3     1  UNL1        0.4214
     29 F          -5.9771  -14.7532   21.3590 F       1  UNL1       -0.1657
     30 F          -5.9322  -16.9772   21.0536 F       1  UNL1       -0.1657
     31 F          -4.0210  -15.8024   20.9721 F       1  UNL1       -0.1657
     32 N         -11.4936  -10.7341   31.3074 N.pl3   1  UNL1       -0.2814
     33 H         -12.1448  -11.3933   31.7898 H       1  UNL1        0.1551
     34 C         -11.8491   -9.3424   31.2691 C.ar    1  UNL1        0.0889
     35 C         -12.5503   -8.7921   32.3553 C.ar    1  UNL1        0.1543
     36 F         -12.8693   -9.5646   33.4243 F       1  UNL1       -0.2028
     37 C         -12.9016   -7.4395   32.3585 C.ar    1  UNL1        0.0310
     38 C         -12.5717   -6.6277   31.2727 C.ar    1  UNL1        0.0033
     39 C         -11.9013   -7.1683   30.1737 C.ar    1  UNL1        0.0128
     40 C         -11.5442   -8.5222   30.1575 C.ar    1  UNL1        0.0733
     41 CL        -10.7886   -9.1589   28.7007 Cl      1  UNL1       -0.0809
@<TRIPOS>BOND
     1     1     2    1
     2     2     3   ar
     3     3    32    1
     4    32    34    1
     5    34    35   ar
     6    35    36    1
     7    35    37   ar
     8    37    38   ar
     9    38    39   ar
    10    39    40   ar
    11    40    41    1
    12     3     4   ar
    13     4     5   ar
    14     5     6   ar
    15     6     7   ar
    16     7    16    1
    17    16    17    2
    18    16    18   am
    19    18    20    1
    20    20    21   ar
    21    21    22   ar
    22    22    23   ar
    23    23    24    1
    24    23    25   ar
    25    25    28    1
    26    28    29    1
    27    28    30    1
    28    28    31    1
    29    25    26   ar
    30     7     8   ar
    31     8     9   ar
    32     9    10   ar
    33     9    11    1
    34    11    12    1
    35    12    13    1
    36    12    14    1
    37    12    15    1
    38    10     2   ar
    39    40    34   ar
    40    10     5   ar
    41    26    20   ar
    42    15     8    1
    43    32    33    1
    44    18    19    1
    45    24    27    1
@<TRIPOS>MOLECULE
*****
 41 45 0 0 0
SMALL
GASTEIGER

@<TRIPOS>ATOM
      1 C          -8.3235   -9.2936   32.2335 C.3     1  UNL1        0.1332
      2 N          -7.6810  -10.0975   31.1936 N.ar    1  UNL1       -0.2977
      3 C          -6.4592   -9.9162   30.6140 C.ar    1  UNL1        0.2018
      4 N          -6.1793  -10.8133   29.6338 N.ar    1  UNL1       -0.2135
      5 C          -7.2651  -11.6056   29.6302 C.ar    1  UNL1        0.0999
      6 C          -7.4844  -12.7369   28.8335 C.ar    1  UNL1        0.0282
      7 C          -8.6846  -13.4694   29.0171 C.ar    1  UNL1        0.0888
      8 C          -9.5833  -13.0319   30.0207 C.ar    1  UNL1        0.1401
      9 C          -9.3509  -11.9047   30.7753 C.ar    1  UNL1        0.0327
     10 C          -8.1683  -11.1877   30.5711 C.ar    1  UNL1        0.0789
     11 C         -10.4483  -11.7184   31.7642 C.3     1  UNL1        0.0709
     12 C         -11.3592  -12.9628   31.5042 C.3     1  UNL1        0.1375
     13 C         -12.7779  -12.5457   31.0939 C.3     1  UNL1        0.0439
     14 C         -11.4061  -13.8842   32.7306 C.3     1  UNL1        0.0439
     15 O         -10.7446  -13.6604   30.4195 O.3     1  UNL1       -0.4824
     16 C          -8.9463  -14.6786   28.2080 C.2     1  UNL1        0.2525
     17 O          -9.4499  -15.6895   28.7689 O.2     1  UNL1       -0.2697
     18 N          -8.6354  -14.7086   26.8028 N.am    1  UNL1       -0.2803
     19 H          -8.2530  -13.8478   26.3528 H       1  UNL1        0.1552
     20 C          -8.8939  -15.8334   25.9461 C.ar    1  UNL1        0.0507
     21 C          -9.1359  -17.1122   26.4712 C.ar    1  UNL1        0.0178
     22 C          -9.3580  -18.1933   25.6171 C.ar    1  UNL1        0.0378
     23 C          -9.3272  -18.0179   24.2276 C.ar    1  UNL1        0.1376
     24 O          -9.5530  -19.1073   23.3856 O.3     1  UNL1       -0.5056
     25 C          -9.0627  -16.7449   23.6836 C.ar    1  UNL1        0.1062
     26 C          -8.8378  -15.6619   24.5553 C.ar    1  UNL1        0.0216
     27 H          -9.7435  -20.0323   23.7527 H       1  UNL1        0.2922
     28 C          -9.0187  -16.5601   22.1839 C.3     1  UNL1        0.4214
     29 F          -8.0938  -17.4319   21.6384 F       1  UNL1       -0.1657
     30 F          -8.6628  -15.2688   21.8342 F       1  UNL1       -0.1657
     31 F         -10.2651  -16.8301   21.6484 F       1  UNL1       -0.1657
     32 N          -5.5172   -8.9029   30.9948 N.pl3   1  UNL1       -0.2814
     33 H          -4.5263   -9.1970   31.1463 H       1  UNL1        0.1551
     34 C          -5.8560   -7.5268   31.2322 C.ar    1  UNL1        0.0889
     35 C          -6.4190   -6.7774   30.1854 C.ar    1  UNL1        0.1543
     36 F          -6.6492   -7.3545   28.9791 F       1  UNL1       -0.2028
     37 C          -6.7727   -5.4400   30.3835 C.ar    1  UNL1        0.0310
     38 C          -6.5535   -4.8334   31.6208 C.ar    1  UNL1        0.0033
     39 C          -5.9674   -5.5579   32.6605 C.ar    1  UNL1        0.0128
     40 C          -5.6076   -6.8984   32.4750 C.ar    1  UNL1        0.0733
     41 CL         -4.7849   -7.7222   33.7953 Cl      1  UNL1       -0.0809
@<TRIPOS>BOND
     1     1     2    1
     2     2     3   ar
     3     3    32    1
     4    32    34    1
     5    34    35   ar
     6    35    36    1
     7    35    37   ar
     8    37    38   ar
     9    38    39   ar
    10    39    40   ar
    11    40    41    1
    12     3     4   ar
    13     4     5   ar
    14     5     6   ar
    15     6     7   ar
    16     7    16    1
    17    16    17    2
    18    16    18   am
    19    18    20    1
    20    20    21   ar
    21    21    22   ar
    22    22    23   ar
    23    23    24    1
    24    23    25   ar
    25    25    28    1
    26    28    29    1
    27    28    30    1
    28    28    31    1
    29    25    26   ar
    30     7     8   ar
    31     8     9   ar
    32     9    10   ar
    33     9    11    1
    34    11    12    1
    35    12    13    1
    36    12    14    1
    37    12    15    1
    38    10     2   ar
    39    40    34   ar
    40    10     5   ar
    41    26    20   ar
    42    15     8    1
    43    32    33    1
    44    18    19    1
    45    24    27    1
