@<TRIPOS>MOLECULE
*****
 38 42 0 0 0
SMALL
GASTEIGER

@<TRIPOS>ATOM
      1 C          47.3714   12.9372  -23.6071 C.2     1  UNL1        0.2491
      2 O          46.7583   12.1359  -24.3640 O.2     1  UNL1       -0.2699
      3 N          47.9181   12.4561  -22.3659 N.am    1  UNL1       -0.2760
      4 C          48.6130   11.1618  -22.3408 C.3     1  UNL1        0.0954
      5 C          48.7842   10.6429  -20.9056 C.3     1  UNL1        0.0399
      6 C          49.4297   11.6894  -19.9496 C.3     1  UNL1        0.0645
      7 C          48.9103   13.1389  -20.2351 C.3     1  UNL1        0.0399
      8 C          47.6545   13.1676  -21.1090 C.3     1  UNL1        0.0954
      9 C          49.0678   11.2828  -18.4775 C.3     1  UNL1        0.0479
     10 C          49.9764   11.9585  -17.4899 C.ar    1  UNL1        0.0269
     11 C          51.2494   12.3222  -17.7858 C.ar    1  UNL1        0.1517
     12 N          51.8711   12.8030  -16.6984 N.ar    1  UNL1       -0.1649
     13 N          51.0132   12.7437  -15.6810 N.ar    1  UNL1       -0.2485
     14 C          49.8301   12.2311  -16.1442 C.ar    1  UNL1        0.1506
     15 C          51.7908   12.1516  -19.1247 C.2     1  UNL1        0.2650
     16 O          52.9998   12.3945  -19.3796 O.2     1  UNL1       -0.2684
     17 N          50.9006   11.6743  -20.1450 N.am    1  UNL1       -0.3023
     18 H          51.2949   11.4929  -21.0957 H       1  UNL1        0.1497
     19 C          50.3662   18.0086  -25.3397 C.ar    1  UNL1        0.2249
     20 C          49.2614   18.8530  -25.4869 C.ar    1  UNL1        0.0577
     21 C          47.9784   18.3628  -25.2338 C.ar    1  UNL1        0.0063
     22 C          47.8080   17.0313  -24.8343 C.ar    1  UNL1        0.0179
     23 C          46.5357   16.5045  -24.5772 C.ar    1  UNL1        0.0016
     24 C          46.3972   15.1714  -24.1787 C.ar    1  UNL1        0.0046
     25 C          47.5281   14.3500  -24.0226 C.ar    1  UNL1        0.0551
     26 C          48.8024   14.8765  -24.2976 C.ar    1  UNL1        0.0237
     27 C          48.9467   16.2095  -24.6950 C.ar    1  UNL1        0.0845
     28 N          50.1832   16.7152  -24.9504 N.ar    1  UNL1       -0.2117
     29 C          52.6346   18.6438  -24.5792 C.3     1  UNL1        0.2542
     30 O          51.6479   18.5044  -25.5947 O.3     1  UNL1       -0.4561
     31 C          51.3956   13.1625  -14.3066 C.3     1  UNL1        0.0869
     32 C          52.7663   13.8633  -14.3358 C.3     1  UNL1        0.0244
     33 C          51.5197   11.9175  -13.3931 C.3     1  UNL1        0.0244
     34 C          50.3235   14.0830  -13.6808 C.3     1  UNL1        0.0244
     35 C          48.5952   11.9638  -15.3865 C.2     1  UNL1        0.3553
     36 O          48.2019   10.7851  -15.1892 O.2     1  UNL1       -0.2434
     37 O          47.8998   13.0241  -14.8142 O.3     1  UNL1       -0.4761
     38 H          47.0644   12.8620  -14.2648 H       1  UNL1        0.2955
@<TRIPOS>BOND
     1    29    30    1
     2    30    19    1
     3    19    20   ar
     4    20    21   ar
     5    21    22   ar
     6    22    23   ar
     7    23    24   ar
     8    24    25   ar
     9    25     1    1
    10     1     2    2
    11     1     3   am
    12     3     4    1
    13     4     5    1
    14     5     6    1
    15     6     7    1
    16     7     8    1
    17     6     9    1
    18     9    10    1
    19    10    11   ar
    20    11    12   ar
    21    12    13   ar
    22    13    31    1
    23    31    32    1
    24    31    33    1
    25    31    34    1
    26    13    14   ar
    27    14    35    1
    28    35    36    2
    29    35    37    1
    30    11    15    1
    31    15    16    2
    32    15    17   am
    33    25    26   ar
    34    26    27   ar
    35    27    28   ar
    36    28    19   ar
    37    27    22   ar
    38     8     3    1
    39    14    10   ar
    40    17     6    1
    41    37    38    1
    42    17    18    1
@<TRIPOS>MOLECULE
*****
 38 42 0 0 0
SMALL
GASTEIGER

@<TRIPOS>ATOM
      1 C          49.8153   12.1592  -17.4412 C.2     1  UNL1        0.2491
      2 O          50.6026   11.2836  -16.9891 O.2     1  UNL1       -0.2699
      3 N          49.6496   12.2910  -18.8645 N.am    1  UNL1       -0.2760
      4 C          49.5287   11.0807  -19.6887 C.3     1  UNL1        0.0954
      5 C          49.7427   11.3902  -21.1776 C.3     1  UNL1        0.0399
      6 C          48.8523   12.5593  -21.6936 C.3     1  UNL1        0.0645
      7 C          48.7220   13.7050  -20.6340 C.3     1  UNL1        0.0399
      8 C          49.7549   13.6058  -19.5093 C.3     1  UNL1        0.0954
      9 C          49.5124   13.1255  -23.0001 C.3     1  UNL1        0.0479
     10 C          48.5318   13.9432  -23.7921 C.ar    1  UNL1        0.0269
     11 C          47.1935   13.7225  -23.7647 C.ar    1  UNL1        0.1517
     12 N          46.5628   14.5177  -24.6421 N.ar    1  UNL1       -0.1649
     13 N          47.4859   15.2537  -25.2592 N.ar    1  UNL1       -0.2485
     14 C          48.7132   14.9234  -24.7476 C.ar    1  UNL1        0.1506
     15 C          46.6124   12.7181  -22.8881 C.2     1  UNL1        0.2650
     16 O          45.3848   12.4407  -22.9308 O.2     1  UNL1       -0.2684
     17 N          47.4943   12.0359  -21.9836 N.am    1  UNL1       -0.3023
     18 H          47.0965   11.2719  -21.3918 H       1  UNL1        0.1497
     19 C          45.5089   16.1445  -15.6351 C.ar    1  UNL1        0.2249
     20 C          45.8487   16.2061  -14.2802 C.ar    1  UNL1        0.0577
     21 C          46.9184   15.4468  -13.8008 C.ar    1  UNL1        0.0063
     22 C          47.6422   14.6311  -14.6796 C.ar    1  UNL1        0.0179
     23 C          48.7173   13.8521  -14.2327 C.ar    1  UNL1        0.0016
     24 C          49.4219   13.0481  -15.1340 C.ar    1  UNL1        0.0046
     25 C          49.0680   13.0191  -16.4949 C.ar    1  UNL1        0.0551
     26 C          47.9781   13.7890  -16.9375 C.ar    1  UNL1        0.0237
     27 C          47.2709   14.5959  -16.0406 C.ar    1  UNL1        0.0845
     28 N          46.2232   15.3454  -16.4772 N.ar    1  UNL1       -0.2117
     29 C          43.1200   16.3840  -16.2385 C.3     1  UNL1        0.2542
     30 O          44.4371   16.9063  -16.1093 O.3     1  UNL1       -0.4561
     31 C          47.1309   16.2197  -26.3322 C.3     1  UNL1        0.0869
     32 C          46.9591   17.6274  -25.7327 C.3     1  UNL1        0.0244
     33 C          45.7839   15.8135  -26.9806 C.3     1  UNL1        0.0244
     34 C          48.1935   16.2286  -27.4544 C.3     1  UNL1        0.0244
     35 C          50.0320   15.4583  -25.1283 C.2     1  UNL1        0.3553
     36 O          50.8176   14.7869  -25.8461 O.2     1  UNL1       -0.2434
     37 O          50.3792   16.7531  -24.7564 O.3     1  UNL1       -0.4761
     38 H          51.2687   17.1523  -25.0314 H       1  UNL1        0.2955
@<TRIPOS>BOND
     1    29    30    1
     2    30    19    1
     3    19    20   ar
     4    20    21   ar
     5    21    22   ar
     6    22    23   ar
     7    23    24   ar
     8    24    25   ar
     9    25     1    1
    10     1     2    2
    11     1     3   am
    12     3     4    1
    13     4     5    1
    14     5     6    1
    15     6     7    1
    16     7     8    1
    17     6     9    1
    18     9    10    1
    19    10    11   ar
    20    11    12   ar
    21    12    13   ar
    22    13    31    1
    23    31    32    1
    24    31    33    1
    25    31    34    1
    26    13    14   ar
    27    14    35    1
    28    35    36    2
    29    35    37    1
    30    11    15    1
    31    15    16    2
    32    15    17   am
    33    25    26   ar
    34    26    27   ar
    35    27    28   ar
    36    28    19   ar
    37    27    22   ar
    38     8     3    1
    39    14    10   ar
    40    17     6    1
    41    37    38    1
    42    17    18    1
@<TRIPOS>MOLECULE
*****
 38 42 0 0 0
SMALL
GASTEIGER

@<TRIPOS>ATOM
      1 C          52.4494    8.4093  -30.0509 C.2     1  UNL1        0.2491
      2 O          51.8568    8.0146  -31.0920 O.2     1  UNL1       -0.2699
      3 N          51.6756    8.9172  -28.9490 N.am    1  UNL1       -0.2760
      4 C          50.4455    8.2184  -28.5525 C.3     1  UNL1        0.0954
      5 C          49.5711    9.0918  -27.6410 C.3     1  UNL1        0.0399
      6 C          50.3484    9.6759  -26.4243 C.3     1  UNL1        0.0645
      7 C          51.8031   10.1061  -26.8132 C.3     1  UNL1        0.0399
      8 C          52.0193   10.2011  -28.3251 C.3     1  UNL1        0.0954
      9 C          49.5541   10.9246  -25.9013 C.3     1  UNL1        0.0479
     10 C          49.9747   11.2885  -24.5056 C.ar    1  UNL1        0.0269
     11 C          50.4472   10.3801  -23.6157 C.ar    1  UNL1        0.1517
     12 N          50.6437   10.9480  -22.4161 N.ar    1  UNL1       -0.1649
     13 N          50.2877   12.2282  -22.5099 N.ar    1  UNL1       -0.2485
     14 C          49.8759   12.4680  -23.7944 C.ar    1  UNL1        0.1506
     15 C          50.6562    8.9916  -23.9941 C.2     1  UNL1        0.2650
     16 O          50.9992    8.1250  -23.1472 O.2     1  UNL1       -0.2684
     17 N          50.4360    8.6374  -25.3679 N.am    1  UNL1       -0.3023
     18 H          50.5266    7.6316  -25.6367 H       1  UNL1        0.1497
     19 C          57.9269    5.6772  -29.5808 C.ar    1  UNL1        0.2249
     20 C          58.7285    6.8198  -29.6657 C.ar    1  UNL1        0.0577
     21 C          58.1312    8.0735  -29.8142 C.ar    1  UNL1        0.0063
     22 C          56.7358    8.1769  -29.8759 C.ar    1  UNL1        0.0179
     23 C          56.1030    9.4173  -30.0297 C.ar    1  UNL1        0.0016
     24 C          54.7077    9.4892  -30.0870 C.ar    1  UNL1        0.0046
     25 C          53.9263    8.3246  -29.9820 C.ar    1  UNL1        0.0551
     26 C          54.5646    7.0794  -29.8446 C.ar    1  UNL1        0.0237
     27 C          55.9596    7.0020  -29.7852 C.ar    1  UNL1        0.0845
     28 N          56.5704    5.7950  -29.6429 N.ar    1  UNL1       -0.2117
     29 C          59.6718    4.0278  -30.1830 C.3     1  UNL1        0.2542
     30 O          58.5301    4.4250  -29.4327 O.3     1  UNL1       -0.4561
     31 C          50.3402   13.1451  -21.3406 C.3     1  UNL1        0.0869
     32 C          51.5891   14.0407  -21.4341 C.3     1  UNL1        0.0244
     33 C          50.4442   12.3226  -20.0320 C.3     1  UNL1        0.0244
     34 C          49.0582   14.0022  -21.2406 C.3     1  UNL1        0.0244
     35 C          49.3752   13.7286  -24.3695 C.2     1  UNL1        0.3553
     36 O          50.1704   14.6392  -24.7179 O.2     1  UNL1       -0.2434
     37 O          48.0124   13.8807  -24.6040 O.3     1  UNL1       -0.4761
     38 H          47.6485   14.7271  -25.0251 H       1  UNL1        0.2955
@<TRIPOS>BOND
     1    29    30    1
     2    30    19    1
     3    19    20   ar
     4    20    21   ar
     5    21    22   ar
     6    22    23   ar
     7    23    24   ar
     8    24    25   ar
     9    25     1    1
    10     1     2    2
    11     1     3   am
    12     3     4    1
    13     4     5    1
    14     5     6    1
    15     6     7    1
    16     7     8    1
    17     6     9    1
    18     9    10    1
    19    10    11   ar
    20    11    12   ar
    21    12    13   ar
    22    13    31    1
    23    31    32    1
    24    31    33    1
    25    31    34    1
    26    13    14   ar
    27    14    35    1
    28    35    36    2
    29    35    37    1
    30    11    15    1
    31    15    16    2
    32    15    17   am
    33    25    26   ar
    34    26    27   ar
    35    27    28   ar
    36    28    19   ar
    37    27    22   ar
    38     8     3    1
    39    14    10   ar
    40    17     6    1
    41    37    38    1
    42    17    18    1
@<TRIPOS>MOLECULE
*****
 38 42 0 0 0
SMALL
GASTEIGER

@<TRIPOS>ATOM
      1 C          48.1865   12.4891  -25.8001 C.2     1  UNL1        0.2491
      2 O          47.9553   11.6505  -26.7134 O.2     1  UNL1       -0.2699
      3 N          48.3850   12.0264  -24.4520 N.am    1  UNL1       -0.2760
      4 C          49.2119   10.8352  -24.2158 C.3     1  UNL1        0.0954
      5 C          49.0025   10.2765  -22.8007 C.3     1  UNL1        0.0399
      6 C          49.1686   11.3529  -21.6873 C.3     1  UNL1        0.0645
      7 C          48.5654   12.7332  -22.1155 C.3     1  UNL1        0.0399
      8 C          47.6496   12.6373  -23.3377 C.3     1  UNL1        0.0954
      9 C          48.4305   10.8335  -20.4031 C.3     1  UNL1        0.0479
     10 C          48.8861   11.5758  -19.1789 C.ar    1  UNL1        0.0269
     11 C          50.1244   12.1175  -19.0613 C.ar    1  UNL1        0.1517
     12 N          50.3064   12.6244  -17.8325 N.ar    1  UNL1       -0.1649
     13 N          49.1936   12.4050  -17.1339 N.ar    1  UNL1       -0.2485
     14 C          48.2950   11.7633  -17.9452 C.ar    1  UNL1        0.1506
     15 C          51.0708   12.0828  -20.1649 C.2     1  UNL1        0.2650
     16 O          52.2531   12.4945  -20.0288 O.2     1  UNL1       -0.2684
     17 N          50.6149   11.5408  -21.4138 N.am    1  UNL1       -0.3023
     18 H          51.3046   11.4578  -22.1945 H       1  UNL1        0.1497
     19 C          50.6486   18.1087  -26.0187 C.ar    1  UNL1        0.2249
     20 C          49.6293   18.7462  -26.7327 C.ar    1  UNL1        0.0577
     21 C          48.5067   18.0183  -27.1333 C.ar    1  UNL1        0.0063
     22 C          48.4098   16.6575  -26.8165 C.ar    1  UNL1        0.0179
     23 C          47.3010   15.8955  -27.2066 C.ar    1  UNL1        0.0016
     24 C          47.2319   14.5388  -26.8748 C.ar    1  UNL1        0.0046
     25 C          48.2647   13.9282  -26.1410 C.ar    1  UNL1        0.0551
     26 C          49.3840   14.6914  -25.7653 C.ar    1  UNL1        0.0237
     27 C          49.4575   16.0488  -26.0933 C.ar    1  UNL1        0.0845
     28 N          50.5391   16.7836  -25.7186 N.ar    1  UNL1       -0.2117
     29 C          52.5363   18.5107  -24.4685 C.3     1  UNL1        0.2542
     30 O          51.7701   18.8420  -25.6207 O.3     1  UNL1       -0.4561
     31 C          49.0707   12.8055  -15.7074 C.3     1  UNL1        0.0869
     32 C          48.1086   14.0009  -15.5809 C.3     1  UNL1        0.0244
     33 C          50.4521   13.2500  -15.1653 C.3     1  UNL1        0.0244
     34 C          48.5947   11.6247  -14.8312 C.3     1  UNL1        0.0244
     35 C          46.9367   11.3005  -17.6118 C.2     1  UNL1        0.3553
     36 O          46.7517   10.4341  -16.7184 O.2     1  UNL1       -0.2434
     37 O          45.8408   11.8872  -18.2363 O.3     1  UNL1       -0.4761
     38 H          44.8963   11.6054  -18.0023 H       1  UNL1        0.2955
@<TRIPOS>BOND
     1    29    30    1
     2    30    19    1
     3    19    20   ar
     4    20    21   ar
     5    21    22   ar
     6    22    23   ar
     7    23    24   ar
     8    24    25   ar
     9    25     1    1
    10     1     2    2
    11     1     3   am
    12     3     4    1
    13     4     5    1
    14     5     6    1
    15     6     7    1
    16     7     8    1
    17     6     9    1
    18     9    10    1
    19    10    11   ar
    20    11    12   ar
    21    12    13   ar
    22    13    31    1
    23    31    32    1
    24    31    33    1
    25    31    34    1
    26    13    14   ar
    27    14    35    1
    28    35    36    2
    29    35    37    1
    30    11    15    1
    31    15    16    2
    32    15    17   am
    33    25    26   ar
    34    26    27   ar
    35    27    28   ar
    36    28    19   ar
    37    27    22   ar
    38     8     3    1
    39    14    10   ar
    40    17     6    1
    41    37    38    1
    42    17    18    1
@<TRIPOS>MOLECULE
*****
 38 42 0 0 0
SMALL
GASTEIGER

@<TRIPOS>ATOM
      1 C          49.7258   10.8399  -18.7455 C.2     1  UNL1        0.2491
      2 O          50.3498    9.7636  -18.5377 O.2     1  UNL1       -0.2699
      3 N          49.3902   11.2109  -20.0947 N.am    1  UNL1       -0.2760
      4 C          48.8785   10.1866  -21.0153 C.3     1  UNL1        0.0954
      5 C          48.9394   10.6607  -22.4747 C.3     1  UNL1        0.0399
      6 C          48.2737   12.0515  -22.6944 C.3     1  UNL1        0.0645
      7 C          48.5629   13.0308  -21.5071 C.3     1  UNL1        0.0399
      8 C          49.6977   12.5558  -20.5971 C.3     1  UNL1        0.0954
      9 C          48.8491   12.6548  -24.0242 C.3     1  UNL1        0.0479
     10 C          47.9765   13.7651  -24.5375 C.ar    1  UNL1        0.0269
     11 C          46.6416   13.8243  -24.3029 C.ar    1  UNL1        0.1517
     12 N          46.0884   14.8530  -24.9632 N.ar    1  UNL1       -0.1649
     13 N          47.0556   15.4648  -25.6450 N.ar    1  UNL1       -0.2485
     14 C          48.2361   14.8162  -25.3945 C.ar    1  UNL1        0.1506
     15 C          45.9802   12.8441  -23.4565 C.2     1  UNL1        0.2650
     16 O          44.7288   12.8359  -23.3161 O.2     1  UNL1       -0.2684
     17 N          46.8049   11.8687  -22.8008 N.am    1  UNL1       -0.3023
     18 H          46.3335   11.1250  -22.2380 H       1  UNL1        0.1497
     19 C          46.8177   15.3768  -15.8046 C.ar    1  UNL1        0.2249
     20 C          47.3212   15.1389  -14.5220 C.ar    1  UNL1        0.0577
     21 C          48.2127   14.0842  -14.3141 C.ar    1  UNL1        0.0063
     22 C          48.5959   13.2741  -15.3905 C.ar    1  UNL1        0.0179
     23 C          49.4838   12.2044  -15.2177 C.ar    1  UNL1        0.0016
     24 C          49.8488   11.4137  -16.3117 C.ar    1  UNL1        0.0046
     25 C          49.3394   11.6870  -17.5938 C.ar    1  UNL1        0.0551
     26 C          48.4355   12.7507  -17.7612 C.ar    1  UNL1        0.0237
     27 C          48.0682   13.5455  -16.6708 C.ar    1  UNL1        0.0845
     28 N          47.2004   14.5790  -16.8414 N.ar    1  UNL1       -0.2117
     29 C          44.5459   16.3507  -15.6686 C.3     1  UNL1        0.2542
     30 O          45.9254   16.4336  -16.0067 O.3     1  UNL1       -0.4561
     31 C          46.7785   16.6304  -26.5255 C.3     1  UNL1        0.0869
     32 C          46.6875   17.9141  -25.6803 C.3     1  UNL1        0.0244
     33 C          45.4181   16.4370  -27.2409 C.3     1  UNL1        0.0244
     34 C          47.8559   16.7735  -27.6241 C.3     1  UNL1        0.0244
     35 C          49.5727   15.1168  -25.9363 C.2     1  UNL1        0.3553
     36 O          50.0822   14.3961  -26.8329 O.2     1  UNL1       -0.2434
     37 O          50.2444   16.2575  -25.5084 O.3     1  UNL1       -0.4761
     38 H          51.1517   16.4999  -25.8881 H       1  UNL1        0.2955
@<TRIPOS>BOND
     1    29    30    1
     2    30    19    1
     3    19    20   ar
     4    20    21   ar
     5    21    22   ar
     6    22    23   ar
     7    23    24   ar
     8    24    25   ar
     9    25     1    1
    10     1     2    2
    11     1     3   am
    12     3     4    1
    13     4     5    1
    14     5     6    1
    15     6     7    1
    16     7     8    1
    17     6     9    1
    18     9    10    1
    19    10    11   ar
    20    11    12   ar
    21    12    13   ar
    22    13    31    1
    23    31    32    1
    24    31    33    1
    25    31    34    1
    26    13    14   ar
    27    14    35    1
    28    35    36    2
    29    35    37    1
    30    11    15    1
    31    15    16    2
    32    15    17   am
    33    25    26   ar
    34    26    27   ar
    35    27    28   ar
    36    28    19   ar
    37    27    22   ar
    38     8     3    1
    39    14    10   ar
    40    17     6    1
    41    37    38    1
    42    17    18    1
@<TRIPOS>MOLECULE
*****
 38 42 0 0 0
SMALL
GASTEIGER

@<TRIPOS>ATOM
      1 C          46.8283   13.1244  -23.7622 C.2     1  UNL1        0.2491
      2 O          45.7725   12.7415  -24.3361 O.2     1  UNL1       -0.2699
      3 N          47.0825   12.7139  -22.4066 N.am    1  UNL1       -0.2760
      4 C          46.8130   11.3238  -22.0145 C.3     1  UNL1        0.0954
      5 C          46.7740   11.1675  -20.4873 C.3     1  UNL1        0.0399
      6 C          48.0296   11.7581  -19.7797 C.3     1  UNL1        0.0645
      7 C          48.5041   13.0914  -20.4501 C.3     1  UNL1        0.0399
      8 C          47.4580   13.7005  -21.3862 C.3     1  UNL1        0.0954
      9 C          47.6528   12.0298  -18.2804 C.3     1  UNL1        0.0479
     10 C          48.8831   12.1874  -17.4326 C.ar    1  UNL1        0.0269
     11 C          50.0630   11.5842  -17.7233 C.ar    1  UNL1        0.1517
     12 N          50.9603   11.8020  -16.7499 N.ar    1  UNL1       -0.1649
     13 N          50.3688   12.5372  -15.8096 N.ar    1  UNL1       -0.2485
     14 C          49.0842   12.7961  -16.2096 C.ar    1  UNL1        0.1506
     15 C          50.2318   10.8034  -18.9384 C.2     1  UNL1        0.2650
     16 O          51.2910   10.1607  -19.1638 O.2     1  UNL1       -0.2684
     17 N          49.1363   10.7733  -19.8659 N.am    1  UNL1       -0.3023
     18 H          49.2261   10.1680  -20.7131 H       1  UNL1        0.1497
     19 C          49.0588   18.2844  -26.2298 C.ar    1  UNL1        0.2249
     20 C          50.2426   17.7589  -26.7567 C.ar    1  UNL1        0.0577
     21 C          50.5317   16.4029  -26.5887 C.ar    1  UNL1        0.0063
     22 C          49.6346   15.5805  -25.8956 C.ar    1  UNL1        0.0179
     23 C          49.8946   14.2174  -25.7036 C.ar    1  UNL1        0.0016
     24 C          48.9795   13.4211  -25.0081 C.ar    1  UNL1        0.0046
     25 C          47.7886   13.9737  -24.5038 C.ar    1  UNL1        0.0551
     26 C          47.5382   15.3455  -24.6833 C.ar    1  UNL1        0.0237
     27 C          48.4493   16.1461  -25.3793 C.ar    1  UNL1        0.0845
     28 N          48.1965   17.4706  -25.5575 N.ar    1  UNL1       -0.2117
     29 C          47.6456   20.2724  -25.8071 C.3     1  UNL1        0.2542
     30 O          48.7748   19.6424  -26.4005 O.3     1  UNL1       -0.4561
     31 C          51.0731   12.9272  -14.5596 C.3     1  UNL1        0.0869
     32 C          52.4909   13.4269  -14.8924 C.3     1  UNL1        0.0244
     33 C          51.2110   11.6969  -13.6283 C.3     1  UNL1        0.0244
     34 C          50.2822   14.0028  -13.7812 C.3     1  UNL1        0.0244
     35 C          48.0434   13.5545  -15.4941 C.2     1  UNL1        0.3553
     36 O          47.4807   14.5428  -16.0323 O.2     1  UNL1       -0.2434
     37 O          47.6217   13.1233  -14.2404 O.3     1  UNL1       -0.4761
     38 H          46.8875   13.6120  -13.7422 H       1  UNL1        0.2955
@<TRIPOS>BOND
     1    29    30    1
     2    30    19    1
     3    19    20   ar
     4    20    21   ar
     5    21    22   ar
     6    22    23   ar
     7    23    24   ar
     8    24    25   ar
     9    25     1    1
    10     1     2    2
    11     1     3   am
    12     3     4    1
    13     4     5    1
    14     5     6    1
    15     6     7    1
    16     7     8    1
    17     6     9    1
    18     9    10    1
    19    10    11   ar
    20    11    12   ar
    21    12    13   ar
    22    13    31    1
    23    31    32    1
    24    31    33    1
    25    31    34    1
    26    13    14   ar
    27    14    35    1
    28    35    36    2
    29    35    37    1
    30    11    15    1
    31    15    16    2
    32    15    17   am
    33    25    26   ar
    34    26    27   ar
    35    27    28   ar
    36    28    19   ar
    37    27    22   ar
    38     8     3    1
    39    14    10   ar
    40    17     6    1
    41    37    38    1
    42    17    18    1
@<TRIPOS>MOLECULE
*****
 38 42 0 0 0
SMALL
GASTEIGER

@<TRIPOS>ATOM
      1 C          48.1075   13.1910  -23.9509 C.2     1  UNL1        0.2491
      2 O          47.2878   12.5652  -24.6771 O.2     1  UNL1       -0.2699
      3 N          48.3598   12.7276  -22.6121 N.am    1  UNL1       -0.2760
      4 C          48.5214   11.2877  -22.3687 C.3     1  UNL1        0.0954
      5 C          48.4000   10.9525  -20.8750 C.3     1  UNL1        0.0399
      6 C          49.3287   11.8211  -19.9757 C.3     1  UNL1        0.0645
      7 C          49.4032   13.3038  -20.4742 C.3     1  UNL1        0.0399
      8 C          48.3035   13.6580  -21.4776 C.3     1  UNL1        0.0954
      9 C          48.7530   11.7867  -18.5159 C.3     1  UNL1        0.0479
     10 C          49.7858   12.2232  -17.5158 C.ar    1  UNL1        0.0269
     11 C          51.1182   12.0577  -17.7095 C.ar    1  UNL1        0.1517
     12 N          51.8067   12.4322  -16.6205 N.ar    1  UNL1       -0.1649
     13 N          50.9281   12.8318  -15.7024 N.ar    1  UNL1       -0.2485
     14 C          49.6697   12.7193  -16.2324 C.ar    1  UNL1        0.1506
     15 C          51.6378   11.5144  -18.9544 C.2     1  UNL1        0.2650
     16 O          52.8636   11.2664  -19.1012 O.2     1  UNL1       -0.2684
     17 N          50.6978   11.2494  -20.0067 N.am    1  UNL1       -0.3023
     18 H          51.0534   10.8045  -20.8829 H       1  UNL1        0.1497
     19 C          48.6637   18.9344  -26.0470 C.ar    1  UNL1        0.2249
     20 C          50.0388   18.9227  -26.3002 C.ar    1  UNL1        0.0577
     21 C          50.7803   17.7689  -26.0367 C.ar    1  UNL1        0.0063
     22 C          50.1419   16.6334  -25.5223 C.ar    1  UNL1        0.0179
     23 C          50.8549   15.4608  -25.2412 C.ar    1  UNL1        0.0016
     24 C          50.1898   14.3425  -24.7291 C.ar    1  UNL1        0.0046
     25 C          48.8026   14.3778  -24.5002 C.ar    1  UNL1        0.0551
     26 C          48.0923   15.5613  -24.7674 C.ar    1  UNL1        0.0237
     27 C          48.7524   16.6821  -25.2810 C.ar    1  UNL1        0.0845
     28 N          48.0576   17.8210  -25.5460 N.ar    1  UNL1       -0.2117
     29 C          46.8920   20.5584  -25.4542 C.3     1  UNL1        0.2542
     30 O          47.9267   20.0920  -26.3123 O.3     1  UNL1       -0.4561
     31 C          51.3545   13.2762  -14.3491 C.3     1  UNL1        0.0869
     32 C          50.3327   14.2786  -13.7819 C.3     1  UNL1        0.0244
     33 C          52.7236   13.9954  -14.4392 C.3     1  UNL1        0.0244
     34 C          51.5317   12.0750  -13.3931 C.3     1  UNL1        0.0244
     35 C          48.3803   13.0258  -15.5890 C.2     1  UNL1        0.3553
     36 O          47.6608   13.9707  -16.0043 O.2     1  UNL1       -0.2434
     37 O          47.9164   12.2101  -14.5621 O.3     1  UNL1       -0.4761
     38 H          47.0196   12.3843  -14.1243 H       1  UNL1        0.2955
@<TRIPOS>BOND
     1    29    30    1
     2    30    19    1
     3    19    20   ar
     4    20    21   ar
     5    21    22   ar
     6    22    23   ar
     7    23    24   ar
     8    24    25   ar
     9    25     1    1
    10     1     2    2
    11     1     3   am
    12     3     4    1
    13     4     5    1
    14     5     6    1
    15     6     7    1
    16     7     8    1
    17     6     9    1
    18     9    10    1
    19    10    11   ar
    20    11    12   ar
    21    12    13   ar
    22    13    31    1
    23    31    32    1
    24    31    33    1
    25    31    34    1
    26    13    14   ar
    27    14    35    1
    28    35    36    2
    29    35    37    1
    30    11    15    1
    31    15    16    2
    32    15    17   am
    33    25    26   ar
    34    26    27   ar
    35    27    28   ar
    36    28    19   ar
    37    27    22   ar
    38     8     3    1
    39    14    10   ar
    40    17     6    1
    41    37    38    1
    42    17    18    1
@<TRIPOS>MOLECULE
*****
 38 42 0 0 0
SMALL
GASTEIGER

@<TRIPOS>ATOM
      1 C          46.6808   11.6027  -27.9500 C.2     1  UNL1        0.2491
      2 O          45.8812   12.2005  -28.7209 O.2     1  UNL1       -0.2699
      3 N          46.7380   11.9808  -26.5628 N.am    1  UNL1       -0.2760
      4 C          45.4871   12.2357  -25.8355 C.3     1  UNL1        0.0954
      5 C          45.7443   12.9814  -24.5179 C.3     1  UNL1        0.0399
      6 C          46.8265   12.2989  -23.6298 C.3     1  UNL1        0.0645
      7 C          48.0065   11.7257  -24.4850 C.3     1  UNL1        0.0399
      8 C          48.0272   12.2610  -25.9184 C.3     1  UNL1        0.0954
      9 C          47.3778   13.3766  -22.6307 C.3     1  UNL1        0.0479
     10 C          48.0915   12.7310  -21.4769 C.ar    1  UNL1        0.0269
     11 C          47.7822   11.4931  -21.0161 C.ar    1  UNL1        0.1517
     12 N          48.4934   11.2044  -19.9157 N.ar    1  UNL1       -0.1649
     13 N          49.2622   12.2572  -19.6415 N.ar    1  UNL1       -0.2485
     14 C          49.0385   13.2144  -20.5960 C.ar    1  UNL1        0.1506
     15 C          46.7806   10.6710  -21.6762 C.2     1  UNL1        0.2650
     16 O          46.4192    9.5645  -21.1957 O.2     1  UNL1       -0.2684
     17 N          46.2002   11.1765  -22.8881 N.am    1  UNL1       -0.3023
     18 H          45.4380   10.6203  -23.3373 H       1  UNL1        0.1497
     19 C          48.2680    7.0321  -31.7290 C.ar    1  UNL1        0.2249
     20 C          49.5031    6.7169  -31.1541 C.ar    1  UNL1        0.0577
     21 C          49.9524    7.4358  -30.0442 C.ar    1  UNL1        0.0063
     22 C          49.1633    8.4650  -29.5154 C.ar    1  UNL1        0.0179
     23 C          49.5848    9.2101  -28.4064 C.ar    1  UNL1        0.0016
     24 C          48.7746   10.2312  -27.9001 C.ar    1  UNL1        0.0046
     25 C          47.5292   10.5147  -28.4886 C.ar    1  UNL1        0.0551
     26 C          47.1163    9.7766  -29.6116 C.ar    1  UNL1        0.0237
     27 C          47.9220    8.7534  -30.1212 C.ar    1  UNL1        0.0845
     28 N          47.5123    8.0369  -31.2024 N.ar    1  UNL1       -0.2117
     29 C          48.6400    6.0743  -33.9811 C.3     1  UNL1        0.2542
     30 O          47.8235    6.3096  -32.8399 O.3     1  UNL1       -0.4561
     31 C          50.1536   12.2895  -18.4520 C.3     1  UNL1        0.0869
     32 C          51.5793   12.6856  -18.8776 C.3     1  UNL1        0.0244
     33 C          50.2250   10.8814  -17.8103 C.3     1  UNL1        0.0244
     34 C          49.6159   13.2564  -17.3730 C.3     1  UNL1        0.0244
     35 C          49.6440   14.5532  -20.7019 C.2     1  UNL1        0.3553
     36 O          49.1551   15.5331  -20.0823 O.2     1  UNL1       -0.2434
     37 O          50.8171   14.7186  -21.4313 O.3     1  UNL1       -0.4761
     38 H          51.2671   15.6239  -21.4942 H       1  UNL1        0.2955
@<TRIPOS>BOND
     1    29    30    1
     2    30    19    1
     3    19    20   ar
     4    20    21   ar
     5    21    22   ar
     6    22    23   ar
     7    23    24   ar
     8    24    25   ar
     9    25     1    1
    10     1     2    2
    11     1     3   am
    12     3     4    1
    13     4     5    1
    14     5     6    1
    15     6     7    1
    16     7     8    1
    17     6     9    1
    18     9    10    1
    19    10    11   ar
    20    11    12   ar
    21    12    13   ar
    22    13    31    1
    23    31    32    1
    24    31    33    1
    25    31    34    1
    26    13    14   ar
    27    14    35    1
    28    35    36    2
    29    35    37    1
    30    11    15    1
    31    15    16    2
    32    15    17   am
    33    25    26   ar
    34    26    27   ar
    35    27    28   ar
    36    28    19   ar
    37    27    22   ar
    38     8     3    1
    39    14    10   ar
    40    17     6    1
    41    37    38    1
    42    17    18    1
@<TRIPOS>MOLECULE
*****
 38 42 0 0 0
SMALL
GASTEIGER

@<TRIPOS>ATOM
      1 C          51.2558   13.3967  -23.9734 C.2     1  UNL1        0.2491
      2 O          51.5376   13.4003  -22.7439 O.2     1  UNL1       -0.2699
      3 N          51.4173   12.1833  -24.7300 N.am    1  UNL1       -0.2760
      4 C          50.9809   10.9083  -24.1447 C.3     1  UNL1        0.0954
      5 C          51.5664    9.7101  -24.9061 C.3     1  UNL1        0.0399
      6 C          51.3190    9.7813  -26.4422 C.3     1  UNL1        0.0645
      7 C          51.4608   11.2419  -26.9890 C.3     1  UNL1        0.0399
      8 C          52.1478   12.1899  -26.0036 C.3     1  UNL1        0.0954
      9 C          52.3744    8.8542  -27.1423 C.3     1  UNL1        0.0479
     10 C          51.9574    8.5231  -28.5473 C.ar    1  UNL1        0.0269
     11 C          50.6599    8.4685  -28.9394 C.ar    1  UNL1        0.1517
     12 N          50.5648    8.0459  -30.2092 N.ar    1  UNL1       -0.1649
     13 N          51.7987    7.8080  -30.6513 N.ar    1  UNL1       -0.2485
     14 C          52.6810    8.1015  -29.6451 C.ar    1  UNL1        0.1506
     15 C          49.5811    8.8144  -28.0277 C.2     1  UNL1        0.2650
     16 O          48.3736    8.6702  -28.3548 O.2     1  UNL1       -0.2684
     17 N          49.9421    9.3079  -26.7287 N.am    1  UNL1       -0.3023
     18 H          49.1749    9.5033  -26.0465 H       1  UNL1        0.1497
     19 C          47.6762   16.8312  -27.5900 C.ar    1  UNL1        0.2249
     20 C          48.2289   18.0803  -27.2906 C.ar    1  UNL1        0.0577
     21 C          49.2852   18.1686  -26.3812 C.ar    1  UNL1        0.0063
     22 C          49.7829   17.0070  -25.7774 C.ar    1  UNL1        0.0179
     23 C          50.8377   17.0587  -24.8569 C.ar    1  UNL1        0.0016
     24 C          51.3141   15.8818  -24.2710 C.ar    1  UNL1        0.0046
     25 C          50.7497   14.6374  -24.6041 C.ar    1  UNL1        0.0551
     26 C          49.6802   14.5903  -25.5155 C.ar    1  UNL1        0.0237
     27 C          49.2009   15.7641  -26.1054 C.ar    1  UNL1        0.0845
     28 N          48.1720   15.7104  -26.9934 N.ar    1  UNL1       -0.2117
     29 C          45.4399   15.9950  -28.2438 C.3     1  UNL1        0.2542
     30 O          46.6189   16.7488  -28.5006 O.3     1  UNL1       -0.4561
     31 C          52.0549    7.2824  -32.0183 C.3     1  UNL1        0.0869
     32 C          52.2483    8.4522  -33.0005 C.3     1  UNL1        0.0244
     33 C          50.8367    6.4557  -32.5004 C.3     1  UNL1        0.0244
     34 C          53.2814    6.3423  -32.0382 C.3     1  UNL1        0.0244
     35 C          54.1492    7.9800  -29.6576 C.2     1  UNL1        0.3553
     36 O          54.8706    8.9202  -30.0802 O.2     1  UNL1       -0.2434
     37 O          54.7469    6.8441  -29.1211 O.3     1  UNL1       -0.4761
     38 H          55.7552    6.7512  -29.0927 H       1  UNL1        0.2955
@<TRIPOS>BOND
     1    29    30    1
     2    30    19    1
     3    19    20   ar
     4    20    21   ar
     5    21    22   ar
     6    22    23   ar
     7    23    24   ar
     8    24    25   ar
     9    25     1    1
    10     1     2    2
    11     1     3   am
    12     3     4    1
    13     4     5    1
    14     5     6    1
    15     6     7    1
    16     7     8    1
    17     6     9    1
    18     9    10    1
    19    10    11   ar
    20    11    12   ar
    21    12    13   ar
    22    13    31    1
    23    31    32    1
    24    31    33    1
    25    31    34    1
    26    13    14   ar
    27    14    35    1
    28    35    36    2
    29    35    37    1
    30    11    15    1
    31    15    16    2
    32    15    17   am
    33    25    26   ar
    34    26    27   ar
    35    27    28   ar
    36    28    19   ar
    37    27    22   ar
    38     8     3    1
    39    14    10   ar
    40    17     6    1
    41    37    38    1
    42    17    18    1
