@<TRIPOS>MOLECULE
*****
 45 51 0 0 0
SMALL
GASTEIGER

@<TRIPOS>ATOM
      1 N          62.7504   87.4618   14.6152 N.am    1  UNL1       -0.0905
      2 C          62.8129   87.7729   15.9556 C.2     1  UNL1        0.4229
      3 O          62.4404   86.9422   16.8307 O.2     1  UNL1       -0.2135
      4 C          63.3302   88.9938   16.3824 C.2     1  UNL1        0.1157
      5 C          63.8557   89.8781   15.4554 C.2     1  UNL1        0.0173
      6 C          63.7750   89.5861   14.0940 C.ar    1  UNL1        0.0828
      7 C          64.3639   90.4474   13.1640 C.ar    1  UNL1        0.1047
      8 N          64.2776   90.1842   11.8401 N.ar    1  UNL1       -0.2434
      9 C          63.5674   89.1337   11.3606 C.ar    1  UNL1        0.0870
     10 C          63.4571   88.9697    9.9768 C.ar    1  UNL1        0.0193
     11 C          62.6268   87.9849    9.4475 C.ar    1  UNL1        0.0016
     12 C          61.8537   87.1803   10.2961 C.ar    1  UNL1        0.0018
     13 C          61.9732   87.3419   11.6884 C.ar    1  UNL1        0.0075
     14 C          62.8979   88.2522   12.2495 C.ar    1  UNL1        0.0810
     15 C          63.1151   88.4050   13.6605 C.ar    1  UNL1        0.2297
     16 C          60.9089   86.1796    9.7352 C.ar    1  UNL1        0.0192
     17 C          60.9875   85.8039    8.3831 C.ar    1  UNL1        0.0988
     18 N          60.1266   84.8873    7.8687 N.ar    1  UNL1       -0.2438
     19 C          59.1657   84.3007    8.6281 C.ar    1  UNL1        0.0813
     20 C          58.2987   83.3603    8.0604 C.ar    1  UNL1        0.0191
     21 C          57.3109   82.7575    8.8455 C.ar    1  UNL1        0.0015
     22 C          57.1865   83.0918   10.1981 C.ar    1  UNL1        0.0001
     23 C          58.0487   84.0311   10.7735 C.ar    1  UNL1        0.0015
     24 C          59.0419   84.6415    9.9923 C.ar    1  UNL1        0.0177
     25 C          59.9208   85.5854   10.5392 C.ar    1  UNL1        0.0030
     26 C          62.1069   83.3759   13.5962 C.ar    1  UNL1        0.0522
     27 C          61.0315   84.2715   13.6764 C.ar    1  UNL1        0.0206
     28 C          61.2426   85.6058   14.0185 C.ar    1  UNL1        0.0703
     29 C          62.5372   86.0725   14.2770 C.ar    1  UNL1        0.2271
     30 C          63.6226   85.1867   14.1784 C.ar    1  UNL1        0.0742
     31 C          63.4219   83.8258   13.8752 C.ar    1  UNL1        0.0906
     32 C          59.5232   78.6849   12.3877 C.2     1  UNL1        0.2257
     33 O          58.9388   78.0780   13.3270 O.2     1  UNL1       -0.2749
     34 N          60.6134   79.5870   12.6955 N.am    1  UNL1       -0.2760
     35 C          61.5113   80.1363   11.6650 C.3     1  UNL1        0.1148
     36 C          61.6441   81.6505   11.8449 C.3     1  UNL1        0.1123
     37 N          61.8420   82.0072   13.2556 N.pl3   1  UNL1       -0.3041
     38 C          61.9820   80.9595   14.2705 C.3     1  UNL1        0.1123
     39 C          60.8608   79.9243   14.1096 C.3     1  UNL1        0.1148
     40 C          58.0028   79.5633   10.6076 C.3     1  UNL1        0.0101
     41 C          59.0050   78.4764   10.9886 C.3     1  UNL1        0.0853
     42 C          64.6110   82.8891   13.8087 C.3     1  UNL1        0.4199
     43 F          64.7170   82.3226   12.5518 F       1  UNL1       -0.1658
     44 F          65.7668   83.5920   14.0913 F       1  UNL1       -0.1658
     45 F          64.4895   81.8574   14.7240 F       1  UNL1       -0.1658
@<TRIPOS>BOND
     1    40    41    1
     2    41    32    1
     3    32    33    2
     4    32    34   am
     5    34    35    1
     6    35    36    1
     7    36    37    1
     8    37    26    1
     9    26    27   ar
    10    27    28   ar
    11    28    29   ar
    12    29     1    1
    13     1     2    1
    14     2     3    2
    15     2     4    1
    16     4     5    2
    17     5     6    1
    18     6     7   ar
    19     7     8   ar
    20     8     9   ar
    21     9    10   ar
    22    10    11   ar
    23    11    12   ar
    24    12    16    1
    25    16    17   ar
    26    17    18   ar
    27    18    19   ar
    28    19    20   ar
    29    20    21   ar
    30    21    22   ar
    31    22    23   ar
    32    23    24   ar
    33    24    25   ar
    34    12    13   ar
    35    13    14   ar
    36    14    15   ar
    37    29    30   ar
    38    30    31   ar
    39    31    42    1
    40    42    43    1
    41    42    44    1
    42    42    45    1
    43    37    38    1
    44    38    39    1
    45    39    34    1
    46    31    26   ar
    47    15     1    1
    48    15     6   ar
    49    14     9   ar
    50    25    16   ar
    51    24    19   ar
@<TRIPOS>MOLECULE
*****
 45 51 0 0 0
SMALL
GASTEIGER

@<TRIPOS>ATOM
      1 N          62.9264   87.6918   14.8288 N.am    1  UNL1       -0.0905
      2 C          62.8208   87.8504   16.1929 C.2     1  UNL1        0.4229
      3 O          62.4037   86.9086   16.9235 O.2     1  UNL1       -0.2135
      4 C          63.2135   89.0375   16.8069 C.2     1  UNL1        0.1157
      5 C          63.7849   90.0456   16.0489 C.2     1  UNL1        0.0173
      6 C          63.8738   89.9075   14.6638 C.ar    1  UNL1        0.0828
      7 C          64.5098   90.8962   13.9079 C.ar    1  UNL1        0.1047
      8 N          64.5871   90.7822   12.5623 N.ar    1  UNL1       -0.2434
      9 C          63.9987   89.7611   11.8922 C.ar    1  UNL1        0.0870
     10 C          64.0530   89.7512   10.4955 C.ar    1  UNL1        0.0193
     11 C          63.3470   88.7954    9.7691 C.ar    1  UNL1        0.0016
     12 C          62.5339   87.8637   10.4294 C.ar    1  UNL1        0.0018
     13 C          62.4880   87.8707   11.8353 C.ar    1  UNL1        0.0075
     14 C          63.2884   88.7534   12.5960 C.ar    1  UNL1        0.0810
     15 C          63.3379   88.7540   14.0309 C.ar    1  UNL1        0.2297
     16 C          61.7189   86.8903    9.6569 C.ar    1  UNL1        0.0192
     17 C          60.3172   86.9924    9.6347 C.ar    1  UNL1        0.0988
     18 N          59.5702   86.1053    8.9270 N.ar    1  UNL1       -0.2438
     19 C          60.1370   85.0949    8.2186 C.ar    1  UNL1        0.0813
     20 C          59.3322   84.2021    7.5018 C.ar    1  UNL1        0.0191
     21 C          59.9192   83.1633    6.7727 C.ar    1  UNL1        0.0015
     22 C          61.3099   83.0134    6.7572 C.ar    1  UNL1        0.0001
     23 C          62.1218   83.9010    7.4712 C.ar    1  UNL1        0.0015
     24 C          61.5406   84.9455    8.2064 C.ar    1  UNL1        0.0177
     25 C          62.3264   85.8509    8.9312 C.ar    1  UNL1        0.0030
     26 C          62.6675   83.7038   13.3538 C.ar    1  UNL1        0.0522
     27 C          63.8262   84.1533   14.0023 C.ar    1  UNL1        0.0206
     28 C          63.9127   85.4608   14.4764 C.ar    1  UNL1        0.0703
     29 C          62.8356   86.3418   14.3197 C.ar    1  UNL1        0.2271
     30 C          61.6633   85.8933   13.6898 C.ar    1  UNL1        0.0742
     31 C          61.5754   84.5880   13.1675 C.ar    1  UNL1        0.0906
     32 C          60.9740   79.0070   11.0706 C.2     1  UNL1        0.2257
     33 O          60.1461   78.3062   11.7152 O.2     1  UNL1       -0.2749
     34 N          61.8300   79.9307   11.7852 N.am    1  UNL1       -0.2760
     35 C          62.9869   80.5948   11.1602 C.3     1  UNL1        0.1148
     36 C          62.9481   82.0957   11.4582 C.3     1  UNL1        0.1123
     37 N          62.6276   82.3541   12.8677 N.pl3   1  UNL1       -0.3041
     38 C          62.4826   81.2406   13.8092 C.3     1  UNL1        0.1123
     39 C          61.5562   80.1718   13.2141 C.3     1  UNL1        0.1148
     40 C          60.2273   80.0393    8.9190 C.3     1  UNL1        0.0101
     41 C          60.9803   78.8812    9.5693 C.3     1  UNL1        0.0853
     42 C          60.3082   84.1456   12.4643 C.3     1  UNL1        0.4199
     43 F          59.7349   83.0719   13.1205 F       1  UNL1       -0.1658
     44 F          59.4090   85.1944   12.4334 F       1  UNL1       -0.1658
     45 F          60.5677   83.7508   11.1629 F       1  UNL1       -0.1658
@<TRIPOS>BOND
     1    40    41    1
     2    41    32    1
     3    32    33    2
     4    32    34   am
     5    34    35    1
     6    35    36    1
     7    36    37    1
     8    37    26    1
     9    26    27   ar
    10    27    28   ar
    11    28    29   ar
    12    29     1    1
    13     1     2    1
    14     2     3    2
    15     2     4    1
    16     4     5    2
    17     5     6    1
    18     6     7   ar
    19     7     8   ar
    20     8     9   ar
    21     9    10   ar
    22    10    11   ar
    23    11    12   ar
    24    12    16    1
    25    16    17   ar
    26    17    18   ar
    27    18    19   ar
    28    19    20   ar
    29    20    21   ar
    30    21    22   ar
    31    22    23   ar
    32    23    24   ar
    33    24    25   ar
    34    12    13   ar
    35    13    14   ar
    36    14    15   ar
    37    29    30   ar
    38    30    31   ar
    39    31    42    1
    40    42    43    1
    41    42    44    1
    42    42    45    1
    43    37    38    1
    44    38    39    1
    45    39    34    1
    46    31    26   ar
    47    15     1    1
    48    15     6   ar
    49    14     9   ar
    50    25    16   ar
    51    24    19   ar
