@<TRIPOS>MOLECULE
*****
 45 50 0 0 0
SMALL
GASTEIGER

@<TRIPOS>ATOM
      1 C          61.4019   87.9246    8.8270 C.ar    1  UNL1        0.0702
      2 C          61.7709   88.6310    9.9822 C.ar    1  UNL1        0.0191
      3 C          61.7609   87.9951   11.2248 C.ar    1  UNL1        0.0356
      4 C          61.3548   86.6541   11.3143 C.ar    1  UNL1        0.1318
      5 N          60.9933   85.9925   10.1799 N.ar    1  UNL1       -0.2279
      6 C          60.9958   86.5913    8.9598 C.ar    1  UNL1        0.1149
      7 N          61.3524   85.9583   12.5751 N.pl3   1  UNL1       -0.2932
      8 C          62.4405   86.1279   13.5484 C.3     1  UNL1        0.0923
      9 C          62.9521   84.7629   14.0399 C.3     1  UNL1        0.0252
     10 C          61.8485   83.6723   14.0939 C.3     1  UNL1        0.0472
     11 C          60.4417   84.2954   14.1855 C.3     1  UNL1        0.0252
     12 C          60.1702   85.1687   12.9510 C.3     1  UNL1        0.0923
     13 C          62.1015   82.6961   15.2592 C.3     1  UNL1        0.2054
     14 O          62.4848   81.4057   14.7803 O.3     1  UNL1       -0.4754
     15 C          62.1718   80.8757   13.5176 C.ar    1  UNL1        0.1410
     16 C          62.9942   81.0582   12.3896 C.ar    1  UNL1        0.0665
     17 C          62.6304   80.5085   11.1583 C.ar    1  UNL1        0.1434
     18 F          63.4263   80.6903   10.0757 F       1  UNL1       -0.2041
     19 C          61.4503   79.7710   11.0384 C.ar    1  UNL1        0.0363
     20 C          60.6193   79.5734   12.1546 C.ar    1  UNL1        0.0807
     21 C          60.9929   80.1304   13.3905 C.ar    1  UNL1        0.0435
     22 C          59.3684   78.7919   12.0351 C.2     1  UNL1        0.3382
     23 O          58.3203   79.1696   12.6258 O.2     1  UNL1       -0.2451
     24 O          59.3368   77.6302   11.2678 O.3     1  UNL1       -0.4771
     25 H          58.4857   77.0879   11.1795 H       1  UNL1        0.2954
     26 C          60.1662   88.8761    6.8219 C.2     1  UNL1        0.2839
     27 O          59.0417   88.5547    7.2904 O.2     1  UNL1       -0.2665
     28 N          61.3732   88.5483    7.5326 N.am    1  UNL1       -0.2766
     29 H          62.2904   88.8240    7.1192 H       1  UNL1        0.1553
     30 C          57.6680   89.9962    5.0925 C.3     1  UNL1        0.0345
     31 C          59.1325   90.0734    4.7835 C.ar    1  UNL1        0.0202
     32 C          60.2102   89.5708    5.5236 C.ar    1  UNL1        0.1946
     33 O          61.3421   89.7866    4.8765 O.2     1  UNL1       -0.4492
     34 C          61.0568   90.4248    3.7677 C.ar    1  UNL1        0.1452
     35 C          61.9444   90.8592    2.7894 C.ar    1  UNL1        0.0375
     36 C          61.4176   91.5295    1.6713 C.ar    1  UNL1        0.0031
     37 C          60.0193   91.7533    1.5476 C.ar    1  UNL1        0.0002
     38 C          59.1507   91.2924    2.5661 C.ar    1  UNL1        0.0028
     39 C          59.7089   90.6335    3.6615 C.ar    1  UNL1        0.0337
     40 C          59.4740   92.4624    0.3623 C.ar    1  UNL1        0.0000
     41 C          58.0948   92.4310    0.0810 C.ar    1  UNL1        0.0000
     42 C          57.5845   93.0987   -1.0365 C.ar    1  UNL1        0.0000
     43 C          58.4418   93.8044   -1.8835 C.ar    1  UNL1        0.0000
     44 C          59.8118   93.8434   -1.6152 C.ar    1  UNL1        0.0000
     45 C          60.3278   93.1767   -0.4998 C.ar    1  UNL1        0.0000
@<TRIPOS>BOND
     1    30    31    1
     2    31    32   ar
     3    32    26    1
     4    26    27    2
     5    26    28   am
     6    28     1    1
     7     1     2   ar
     8     2     3   ar
     9     3     4   ar
    10     4     7    1
    11     7     8    1
    12     8     9    1
    13     9    10    1
    14    10    13    1
    15    13    14    1
    16    14    15    1
    17    15    16   ar
    18    16    17   ar
    19    17    18    1
    20    17    19   ar
    21    19    20   ar
    22    20    22    1
    23    22    23    2
    24    22    24    1
    25    20    21   ar
    26    10    11    1
    27    11    12    1
    28     4     5   ar
    29     5     6   ar
    30    32    33   ar
    31    33    34   ar
    32    34    35   ar
    33    35    36   ar
    34    36    37   ar
    35    37    40    1
    36    40    41   ar
    37    41    42   ar
    38    42    43   ar
    39    43    44   ar
    40    44    45   ar
    41    37    38   ar
    42    38    39   ar
    43    39    31   ar
    44     6     1   ar
    45    39    34   ar
    46    12     7    1
    47    45    40   ar
    48    21    15   ar
    49    28    29    1
    50    24    25    1
@<TRIPOS>MOLECULE
*****
 45 50 0 0 0
SMALL
GASTEIGER

@<TRIPOS>ATOM
      1 C          61.3895   88.2333    8.9316 C.ar    1  UNL1        0.0702
      2 C          61.8259   88.9236   10.0728 C.ar    1  UNL1        0.0191
      3 C          61.7757   88.3088   11.3250 C.ar    1  UNL1        0.0356
      4 C          61.2619   87.0071   11.4381 C.ar    1  UNL1        0.1318
      5 N          60.8368   86.3610   10.3169 N.ar    1  UNL1       -0.2279
      6 C          60.8768   86.9398    9.0879 C.ar    1  UNL1        0.1149
      7 N          61.2145   86.3321   12.7094 N.pl3   1  UNL1       -0.2932
      8 C          62.2500   86.5435   13.7307 C.3     1  UNL1        0.0923
      9 C          62.7684   85.1992   14.2700 C.3     1  UNL1        0.0252
     10 C          61.6889   84.0837   14.2900 C.3     1  UNL1        0.0472
     11 C          60.2653   84.6746   14.3029 C.3     1  UNL1        0.0252
     12 C          60.0340   85.5208   13.0417 C.3     1  UNL1        0.0923
     13 C          61.9075   83.1331   15.4829 C.3     1  UNL1        0.2054
     14 O          62.4785   81.8935   15.0600 O.3     1  UNL1       -0.4754
     15 C          62.2897   81.2921   13.8045 C.ar    1  UNL1        0.1410
     16 C          61.4853   80.1517   13.6193 C.ar    1  UNL1        0.0665
     17 C          61.3360   79.5962   12.3466 C.ar    1  UNL1        0.1434
     18 F          60.5614   78.4964   12.1761 F       1  UNL1       -0.2041
     19 C          61.9807   80.1702   11.2486 C.ar    1  UNL1        0.0363
     20 C          62.7835   81.3122   11.4130 C.ar    1  UNL1        0.0807
     21 C          62.9285   81.8651   12.6977 C.ar    1  UNL1        0.0435
     22 C          63.4682   81.9265   10.2538 C.2     1  UNL1        0.3382
     23 O          64.6685   81.6392    9.9951 O.2     1  UNL1       -0.2451
     24 O          62.7924   82.8288    9.4363 O.3     1  UNL1       -0.4771
     25 H          63.2520   83.2550    8.6405 H       1  UNL1        0.2954
     26 C          60.2378   88.9676    6.7897 C.2     1  UNL1        0.2839
     27 O          59.1347   88.4745    7.1464 O.2     1  UNL1       -0.2665
     28 N          61.3997   88.8385    7.6281 N.am    1  UNL1       -0.2766
     29 H          62.3006   89.2540    7.3058 H       1  UNL1        0.1553
     30 C          57.7763   90.0800    5.0038 C.3     1  UNL1        0.0345
     31 C          59.2468   90.1536    4.7238 C.ar    1  UNL1        0.0202
     32 C          60.3088   89.6544    5.4884 C.ar    1  UNL1        0.1946
     33 O          61.4537   89.8650    4.8629 O.2     1  UNL1       -0.4492
     34 C          61.1915   90.4967    3.7447 C.ar    1  UNL1        0.1452
     35 C          62.0991   90.9243    2.7819 C.ar    1  UNL1        0.0375
     36 C          61.5957   91.5883    1.6493 C.ar    1  UNL1        0.0031
     37 C          60.2004   91.8130    1.4963 C.ar    1  UNL1        0.0002
     38 C          59.3110   91.3592    2.4998 C.ar    1  UNL1        0.0028
     39 C          59.8463   90.7063    3.6102 C.ar    1  UNL1        0.0337
     40 C          59.6799   92.5155    0.2960 C.ar    1  UNL1        0.0000
     41 C          58.3063   92.7982    0.1714 C.ar    1  UNL1        0.0000
     42 C          57.8190   93.4588   -0.9605 C.ar    1  UNL1        0.0000
     43 C          58.6942   93.8448   -1.9781 C.ar    1  UNL1        0.0000
     44 C          60.0590   93.5703   -1.8663 C.ar    1  UNL1        0.0000
     45 C          60.5518   92.9091   -0.7371 C.ar    1  UNL1        0.0000
@<TRIPOS>BOND
     1    30    31    1
     2    31    32   ar
     3    32    26    1
     4    26    27    2
     5    26    28   am
     6    28     1    1
     7     1     2   ar
     8     2     3   ar
     9     3     4   ar
    10     4     7    1
    11     7     8    1
    12     8     9    1
    13     9    10    1
    14    10    13    1
    15    13    14    1
    16    14    15    1
    17    15    16   ar
    18    16    17   ar
    19    17    18    1
    20    17    19   ar
    21    19    20   ar
    22    20    22    1
    23    22    23    2
    24    22    24    1
    25    20    21   ar
    26    10    11    1
    27    11    12    1
    28     4     5   ar
    29     5     6   ar
    30    32    33   ar
    31    33    34   ar
    32    34    35   ar
    33    35    36   ar
    34    36    37   ar
    35    37    40    1
    36    40    41   ar
    37    41    42   ar
    38    42    43   ar
    39    43    44   ar
    40    44    45   ar
    41    37    38   ar
    42    38    39   ar
    43    39    31   ar
    44     6     1   ar
    45    39    34   ar
    46    12     7    1
    47    45    40   ar
    48    21    15   ar
    49    28    29    1
    50    24    25    1
