@<TRIPOS>MOLECULE
*****
 49 54 0 0 0
SMALL
GASTEIGER

@<TRIPOS>ATOM
      1 O          59.3438   85.8480    7.4316 O.2     1  UNL1       -0.2701
      2 C          60.0435   85.6028    8.4523 C.2     1  UNL1        0.2483
      3 N          60.2228   84.2458    8.8856 N.am    1  UNL1       -0.2945
      4 H          61.0027   84.0321    9.5474 H       1  UNL1        0.1501
      5 C          60.6982   86.7192    9.1692 C.ar    1  UNL1        0.0808
      6 C          61.5878   86.4437   10.2198 C.ar    1  UNL1        0.0080
      7 C          62.2109   87.4832   10.9150 C.ar    1  UNL1        0.0148
      8 C          61.9635   88.8225   10.5699 C.ar    1  UNL1        0.0502
      9 C          61.0900   89.0971    9.5030 C.ar    1  UNL1        0.0443
     10 C          60.4650   88.0588    8.8060 C.ar    1  UNL1        0.1457
     11 F          59.6791   88.3675    7.7443 F       1  UNL1       -0.2040
     12 N          62.6113   89.8968   11.2859 N.pl3   1  UNL1       -0.3040
     13 C          62.0586   90.3714   12.5654 C.3     1  UNL1        0.1122
     14 C          63.1801   90.8165   13.5150 C.3     1  UNL1        0.1122
     15 N          64.1968   91.6227   12.8230 N.pl3   1  UNL1       -0.3041
     16 C          64.0413   91.9204   11.3949 C.3     1  UNL1        0.1122
     17 C          63.7136   90.6313   10.6406 C.3     1  UNL1        0.1122
     18 C          65.3805   92.0340   13.5323 C.ar    1  UNL1        0.0479
     19 C          66.5811   92.2581   12.8400 C.ar    1  UNL1        0.0145
     20 C          67.7344   92.6445   13.5282 C.ar    1  UNL1        0.0051
     21 C          67.7047   92.8298   14.9209 C.ar    1  UNL1        0.0715
     22 C          66.5105   92.5742   15.6163 C.ar    1  UNL1        0.0051
     23 C          65.3576   92.1866   14.9273 C.ar    1  UNL1        0.0145
     24 C          68.9607   93.1983   15.6696 C.3     1  UNL1        0.4186
     25 F          70.0588   93.1673   14.8274 F       1  UNL1       -0.1659
     26 F          68.8579   94.4733   16.1987 F       1  UNL1       -0.1659
     27 F          69.1573   92.2977   16.6996 F       1  UNL1       -0.1659
     28 C          59.4659   83.1353    8.2995 C.3     1  UNL1        0.1535
     29 C          60.1992   81.8413    8.5291 C.2     1  UNL1        0.2443
     30 O          59.9572   80.8565    7.7798 O.2     1  UNL1       -0.2730
     31 N          61.1908   81.7429    9.5656 N.am    1  UNL1       -0.2825
     32 H          61.5602   82.6302    9.9758 H       1  UNL1        0.1549
     33 C          61.7844   80.5069    9.9973 C.ar    1  UNL1        0.0535
     34 C          62.3148   79.5849    9.0789 C.ar    1  UNL1        0.0353
     35 C          62.8582   78.3846    9.5439 C.ar    1  UNL1        0.1002
     36 N          62.8596   78.1058   10.8742 N.ar    1  UNL1       -0.2422
     37 C          62.3364   78.9704   11.7831 C.ar    1  UNL1        0.1002
     38 C          61.7821   80.1810   11.3604 C.ar    1  UNL1        0.0353
     39 C          58.0497   83.0559    8.8970 C.3     1  UNL1        0.0569
     40 C          58.0970   82.7831   10.3735 C.ar    1  UNL1       -0.0017
     41 C          58.1421   83.7366   11.3864 C.ar    1  UNL1        0.0681
     42 N          58.2698   83.1388   12.5926 N.ar    1  UNL1       -0.3523
     43 C          58.3149   81.8173   12.3500 C.ar    1  UNL1        0.0563
     44 C          58.4668   80.7928   13.2833 C.ar    1  UNL1        0.0170
     45 C          58.5125   79.4702   12.8066 C.ar    1  UNL1        0.0015
     46 C          58.4076   79.2039   11.4236 C.ar    1  UNL1        0.0001
     47 C          58.2562   80.2576   10.5041 C.ar    1  UNL1        0.0012
     48 C          58.2139   81.5596   11.0063 C.ar    1  UNL1        0.0131
     49 H          58.3374   83.6125   13.5207 H       1  UNL1        0.1660
@<TRIPOS>BOND
     1     1     2    2
     2     2     3   am
     3     3    28    1
     4    28    39    1
     5    39    40    1
     6    40    41   ar
     7    41    42   ar
     8    42    43   ar
     9    43    44   ar
    10    44    45   ar
    11    45    46   ar
    12    46    47   ar
    13    47    48   ar
    14    28    29    1
    15    29    30    2
    16    29    31   am
    17    31    33    1
    18    33    34   ar
    19    34    35   ar
    20    35    36   ar
    21    36    37   ar
    22    37    38   ar
    23     2     5    1
    24     5     6   ar
    25     6     7   ar
    26     7     8   ar
    27     8    12    1
    28    12    13    1
    29    13    14    1
    30    14    15    1
    31    15    18    1
    32    18    19   ar
    33    19    20   ar
    34    20    21   ar
    35    21    24    1
    36    24    25    1
    37    24    26    1
    38    24    27    1
    39    21    22   ar
    40    22    23   ar
    41    15    16    1
    42    16    17    1
    43     8     9   ar
    44     9    10   ar
    45    10    11    1
    46    48    40   ar
    47    38    33   ar
    48    10     5   ar
    49    48    43   ar
    50    17    12    1
    51    23    18   ar
    52     3     4    1
    53    42    49    1
    54    31    32    1
@<TRIPOS>MOLECULE
*****
 49 54 0 0 0
SMALL
GASTEIGER

@<TRIPOS>ATOM
      1 O          58.1511   83.6729   12.6122 O.2     1  UNL1       -0.2701
      2 C          59.3655   83.6651   12.9539 C.2     1  UNL1        0.2483
      3 N          60.0855   82.4239   13.0019 N.am    1  UNL1       -0.2945
      4 H          61.1299   82.4529   13.0181 H       1  UNL1        0.1501
      5 C          60.0397   84.9440   13.2681 C.ar    1  UNL1        0.0808
      6 C          61.4257   85.0637   13.0790 C.ar    1  UNL1        0.0080
      7 C          62.0833   86.2600   13.3766 C.ar    1  UNL1        0.0148
      8 C          61.3676   87.3666   13.8638 C.ar    1  UNL1        0.0502
      9 C          59.9763   87.2532   14.0316 C.ar    1  UNL1        0.0443
     10 C          59.3159   86.0573   13.7347 C.ar    1  UNL1        0.1457
     11 F          57.9653   86.0124   13.8522 F       1  UNL1       -0.2040
     12 N          62.0471   88.6045   14.1672 N.pl3   1  UNL1       -0.3040
     13 C          61.8505   89.2549   15.4735 C.3     1  UNL1        0.1122
     14 C          63.1349   89.9596   15.9332 C.3     1  UNL1        0.1122
     15 N          63.7699   90.7104   14.8399 N.pl3   1  UNL1       -0.3041
     16 C          63.1465   90.7290   13.5118 C.3     1  UNL1        0.1122
     17 C          62.7869   89.3010   13.1001 C.3     1  UNL1        0.1122
     18 C          65.0443   91.3436   15.0597 C.ar    1  UNL1        0.0479
     19 C          66.0879   91.1787   14.1352 C.ar    1  UNL1        0.0145
     20 C          67.3297   91.7815   14.3533 C.ar    1  UNL1        0.0051
     21 C          67.5464   92.5745   15.4931 C.ar    1  UNL1        0.0715
     22 C          66.5110   92.7124   16.4333 C.ar    1  UNL1        0.0051
     23 C          65.2696   92.1081   16.2150 C.ar    1  UNL1        0.0145
     24 C          68.9009   93.1840   15.7535 C.3     1  UNL1        0.4186
     25 F          68.7765   94.5127   16.1212 F       1  UNL1       -0.1659
     26 F          69.5510   92.5123   16.7743 F       1  UNL1       -0.1659
     27 F          69.6644   93.1043   14.6039 F       1  UNL1       -0.1659
     28 C          59.4145   81.1288   12.8531 C.3     1  UNL1        0.1535
     29 C          58.8554   81.0014   11.4616 C.2     1  UNL1        0.2443
     30 O          58.0223   80.0876   11.2153 O.2     1  UNL1       -0.2730
     31 N          59.2383   81.9346   10.4371 N.am    1  UNL1       -0.2825
     32 H          59.7005   82.8241   10.7328 H       1  UNL1        0.1549
     33 C          58.9292   81.7714    9.0428 C.ar    1  UNL1        0.0535
     34 C          57.7335   82.2628    8.4916 C.ar    1  UNL1        0.0353
     35 C          57.4645   82.0572    7.1360 C.ar    1  UNL1        0.1002
     36 N          58.3473   81.3738    6.3607 N.ar    1  UNL1       -0.2422
     37 C          59.5023   80.8710    6.8712 C.ar    1  UNL1        0.1002
     38 C          59.8092   81.0530    8.2218 C.ar    1  UNL1        0.0353
     39 C          60.3827   79.9683   13.1443 C.3     1  UNL1        0.0569
     40 C          61.7914   80.4635   13.3078 C.ar    1  UNL1       -0.0017
     41 C          62.5329   80.4642   14.4856 C.ar    1  UNL1        0.0681
     42 N          63.7282   81.0658   14.2911 N.ar    1  UNL1       -0.3523
     43 C          63.7447   81.4529   13.0039 C.ar    1  UNL1        0.0563
     44 C          64.7616   82.1399   12.3424 C.ar    1  UNL1        0.0170
     45 C          64.5609   82.4697   10.9897 C.ar    1  UNL1        0.0015
     46 C          63.3615   82.1107   10.3361 C.ar    1  UNL1        0.0001
     47 C          62.3516   81.4186   11.0286 C.ar    1  UNL1        0.0012
     48 C          62.5790   81.1046   12.3699 C.ar    1  UNL1        0.0131
     49 H          64.4768   81.2135   15.0040 H       1  UNL1        0.1660
@<TRIPOS>BOND
     1     1     2    2
     2     2     3   am
     3     3    28    1
     4    28    39    1
     5    39    40    1
     6    40    41   ar
     7    41    42   ar
     8    42    43   ar
     9    43    44   ar
    10    44    45   ar
    11    45    46   ar
    12    46    47   ar
    13    47    48   ar
    14    28    29    1
    15    29    30    2
    16    29    31   am
    17    31    33    1
    18    33    34   ar
    19    34    35   ar
    20    35    36   ar
    21    36    37   ar
    22    37    38   ar
    23     2     5    1
    24     5     6   ar
    25     6     7   ar
    26     7     8   ar
    27     8    12    1
    28    12    13    1
    29    13    14    1
    30    14    15    1
    31    15    18    1
    32    18    19   ar
    33    19    20   ar
    34    20    21   ar
    35    21    24    1
    36    24    25    1
    37    24    26    1
    38    24    27    1
    39    21    22   ar
    40    22    23   ar
    41    15    16    1
    42    16    17    1
    43     8     9   ar
    44     9    10   ar
    45    10    11    1
    46    48    40   ar
    47    38    33   ar
    48    10     5   ar
    49    48    43   ar
    50    17    12    1
    51    23    18   ar
    52     3     4    1
    53    42    49    1
    54    31    32    1
@<TRIPOS>MOLECULE
*****
 49 54 0 0 0
SMALL
GASTEIGER

@<TRIPOS>ATOM
      1 O          59.2378   85.8515    7.2688 O.2     1  UNL1       -0.2701
      2 C          59.9265   85.5845    8.2916 C.2     1  UNL1        0.2483
      3 N          60.0861   84.2199    8.7083 N.am    1  UNL1       -0.2945
      4 H          60.8581   83.9881    9.3732 H       1  UNL1        0.1501
      5 C          60.5887   86.6835    9.0282 C.ar    1  UNL1        0.0808
      6 C          61.5165   86.3828   10.0382 C.ar    1  UNL1        0.0080
      7 C          62.1476   87.4053   10.7511 C.ar    1  UNL1        0.0148
      8 C          61.8700   88.7526   10.4650 C.ar    1  UNL1        0.0502
      9 C          60.9578   89.0531    9.4382 C.ar    1  UNL1        0.0443
     10 C          60.3248   88.0319    8.7233 C.ar    1  UNL1        0.1457
     11 F          59.4998   88.3676    7.7002 F       1  UNL1       -0.2040
     12 N          62.5259   89.8093   11.1992 N.pl3   1  UNL1       -0.3040
     13 C          61.9817   90.2601   12.4910 C.3     1  UNL1        0.1122
     14 C          63.1099   90.6812   13.4437 C.3     1  UNL1        0.1122
     15 N          64.1265   91.4971   12.7630 N.pl3   1  UNL1       -0.3041
     16 C          63.9650   91.8244   11.3420 C.3     1  UNL1        0.1122
     17 C          63.6281   90.5522   10.5633 C.3     1  UNL1        0.1122
     18 C          65.3155   91.8889   13.4744 C.ar    1  UNL1        0.0479
     19 C          66.4641   92.2872   12.7722 C.ar    1  UNL1        0.0145
     20 C          67.6234   92.6552   13.4606 C.ar    1  UNL1        0.0051
     21 C          67.6507   92.6472   14.8656 C.ar    1  UNL1        0.0715
     22 C          66.5105   92.2179   15.5662 C.ar    1  UNL1        0.0051
     23 C          65.3518   91.8488   14.8769 C.ar    1  UNL1        0.0145
     24 C          68.9164   92.9965   15.6072 C.3     1  UNL1        0.4186
     25 F          70.0171   92.8843   14.7753 F       1  UNL1       -0.1659
     26 F          68.8628   94.2964   16.0800 F       1  UNL1       -0.1659
     27 F          69.0700   92.1341   16.6764 F       1  UNL1       -0.1659
     28 C          59.3206   83.1264    8.1018 C.3     1  UNL1        0.1535
     29 C          60.0504   81.8246    8.2957 C.2     1  UNL1        0.2443
     30 O          59.8970   80.9021    7.4499 O.2     1  UNL1       -0.2730
     31 N          60.9410   81.6506    9.4110 N.am    1  UNL1       -0.2825
     32 H          61.2550   82.5048    9.9248 H       1  UNL1        0.1549
     33 C          61.5116   80.3889    9.7967 C.ar    1  UNL1        0.0535
     34 C          60.9734   79.6288   10.8491 C.ar    1  UNL1        0.0353
     35 C          61.5781   78.4206   11.2053 C.ar    1  UNL1        0.1002
     36 N          62.6876   77.9922   10.5472 N.ar    1  UNL1       -0.2422
     37 C          63.2405   78.7160    9.5384 C.ar    1  UNL1        0.1002
     38 C          62.6682   79.9301    9.1516 C.ar    1  UNL1        0.0353
     39 C          57.9084   83.0383    8.7075 C.3     1  UNL1        0.0569
     40 C          57.9618   83.0019   10.2083 C.ar    1  UNL1       -0.0017
     41 C          58.0360   81.8614   11.0025 C.ar    1  UNL1        0.0681
     42 N          57.9744   82.1928   12.3121 N.ar    1  UNL1       -0.3523
     43 C          57.8530   83.5310   12.3518 C.ar    1  UNL1        0.0563
     44 C          57.7277   84.3336   13.4849 C.ar    1  UNL1        0.0170
     45 C          57.5878   85.7205   13.2966 C.ar    1  UNL1        0.0015
     46 C          57.5750   86.2681   11.9948 C.ar    1  UNL1        0.0001
     47 C          57.7021   85.4342   10.8692 C.ar    1  UNL1        0.0012
     48 C          57.8398   84.0621   11.0870 C.ar    1  UNL1        0.0131
     49 H          57.9986   81.5371   13.1244 H       1  UNL1        0.1660
@<TRIPOS>BOND
     1     1     2    2
     2     2     3   am
     3     3    28    1
     4    28    39    1
     5    39    40    1
     6    40    41   ar
     7    41    42   ar
     8    42    43   ar
     9    43    44   ar
    10    44    45   ar
    11    45    46   ar
    12    46    47   ar
    13    47    48   ar
    14    28    29    1
    15    29    30    2
    16    29    31   am
    17    31    33    1
    18    33    34   ar
    19    34    35   ar
    20    35    36   ar
    21    36    37   ar
    22    37    38   ar
    23     2     5    1
    24     5     6   ar
    25     6     7   ar
    26     7     8   ar
    27     8    12    1
    28    12    13    1
    29    13    14    1
    30    14    15    1
    31    15    18    1
    32    18    19   ar
    33    19    20   ar
    34    20    21   ar
    35    21    24    1
    36    24    25    1
    37    24    26    1
    38    24    27    1
    39    21    22   ar
    40    22    23   ar
    41    15    16    1
    42    16    17    1
    43     8     9   ar
    44     9    10   ar
    45    10    11    1
    46    48    40   ar
    47    38    33   ar
    48    10     5   ar
    49    48    43   ar
    50    17    12    1
    51    23    18   ar
    52     3     4    1
    53    42    49    1
    54    31    32    1
