@<TRIPOS>MOLECULE
*****
 40 44 0 0 0
SMALL
GASTEIGER

@<TRIPOS>ATOM
      1 C          49.8869   11.8350  -22.0165 C.2     1  UNL1        0.2493
      2 O          50.8885   11.2003  -22.4451 O.2     1  UNL1       -0.2699
      3 N          48.9769   12.4639  -22.9437 N.am    1  UNL1       -0.2680
      4 C          48.1715   13.6193  -22.5344 C.3     1  UNL1        0.1412
      5 C          46.7742   13.1588  -22.1268 C.3     1  UNL1        0.2268
      6 O          46.3566   12.0236  -22.8840 O.3     1  UNL1       -0.4739
      7 C          46.3874   11.9971  -24.2809 C.ar    1  UNL1        0.1362
      8 C          45.1741   11.8737  -24.9635 C.ar    1  UNL1        0.0366
      9 C          45.1396   11.8718  -26.3576 C.ar    1  UNL1        0.0031
     10 C          46.3268   11.9787  -27.0981 C.ar    1  UNL1       -0.0000
     11 C          47.5505   12.0740  -26.4130 C.ar    1  UNL1        0.0004
     12 C          47.6005   12.0876  -25.0078 C.ar    1  UNL1        0.0317
     13 C          48.9727   12.0495  -24.3545 C.3     1  UNL1        0.1236
     14 C          46.2929   11.9736  -28.5827 C.ar    1  UNL1        0.0015
     15 C          46.5483   10.7735  -29.3039 C.ar    1  UNL1        0.0016
     16 C          46.5180   10.7566  -30.7110 C.ar    1  UNL1        0.0206
     17 C          46.2309   11.9486  -31.3671 C.ar    1  UNL1        0.0985
     18 N          46.1480   12.1599  -32.6930 N.ar    1  UNL1       -0.2241
     19 C          45.8435   13.4824  -32.7694 C.ar    1  UNL1        0.1750
     20 N          45.7374   14.0835  -31.5599 N.ar    1  UNL1       -0.3349
     21 C          45.9860   13.1007  -30.6867 C.ar    1  UNL1        0.0757
     22 C          46.0059   13.1632  -29.2962 C.ar    1  UNL1        0.0185
     23 H          45.5132   15.0834  -31.3593 H       1  UNL1        0.1675
     24 C          50.2488   12.9544  -19.8039 C.ar    1  UNL1       -0.0163
     25 C          50.0004   13.0393  -18.4264 C.ar    1  UNL1        0.0142
     26 C          49.1693   12.1162  -17.7915 C.ar    1  UNL1        0.1056
     27 C          48.5801   11.0892  -18.5313 C.ar    1  UNL1        0.0249
     28 C          48.8261   10.9544  -19.9080 C.ar    1  UNL1        0.0808
     29 C          49.6622   11.9044  -20.5565 C.ar    1  UNL1        0.0559
     30 S          48.8413   12.2624  -16.0673 S.O2    1  UNL1        0.0104
     31 C          50.3788   12.4152  -15.1875 C.3     1  UNL1        0.1816
     32 O          48.1034   11.0461  -15.5822 O.2     1  UNL1       -0.1686
     33 O          47.9916   13.4753  -15.8108 O.2     1  UNL1       -0.1686
     34 C          48.1946    9.8119  -20.6223 C.2     1  UNL1        0.3382
     35 O          48.6779    8.6504  -20.5492 O.2     1  UNL1       -0.2451
     36 O          47.0367   10.0145  -21.3693 O.3     1  UNL1       -0.4771
     37 H          46.5921    9.2470  -21.8587 H       1  UNL1        0.2954
     38 C          51.1679   13.9822  -20.4300 C.3     1  UNL1        0.0265
     39 C          53.4403   13.6476  -21.4744 C.3     1  UNL1        0.0004
     40 C          52.6354   13.6191  -20.1787 C.3     1  UNL1        0.0047
@<TRIPOS>BOND
     1    39    40    1
     2    40    38    1
     3    38    24    1
     4    24    25   ar
     5    25    26   ar
     6    26    30    1
     7    30    31    1
     8    30    32    2
     9    30    33    2
    10    26    27   ar
    11    27    28   ar
    12    28    34    1
    13    34    35    2
    14    34    36    1
    15    28    29   ar
    16    29     1    1
    17     1     2    2
    18     1     3   am
    19     3     4    1
    20     4     5    1
    21     5     6    1
    22     6     7    1
    23     7     8   ar
    24     8     9   ar
    25     9    10   ar
    26    10    14    1
    27    14    15   ar
    28    15    16   ar
    29    16    17   ar
    30    17    18   ar
    31    18    19   ar
    32    19    20   ar
    33    20    21   ar
    34    21    22   ar
    35    10    11   ar
    36    11    12   ar
    37    12    13    1
    38    29    24   ar
    39    13     3    1
    40    12     7   ar
    41    22    14   ar
    42    21    17   ar
    43    36    37    1
    44    20    23    1
@<TRIPOS>MOLECULE
*****
 40 44 0 0 0
SMALL
GASTEIGER

@<TRIPOS>ATOM
      1 C          50.1090   11.9015  -22.0351 C.2     1  UNL1        0.2493
      2 O          51.0682   11.2101  -22.4727 O.2     1  UNL1       -0.2699
      3 N          49.2017   12.5456  -22.9546 N.am    1  UNL1       -0.2680
      4 C          48.4612   13.7474  -22.5566 C.3     1  UNL1        0.1412
      5 C          47.0570   13.3627  -22.0975 C.3     1  UNL1        0.2268
      6 O          46.5671   12.2274  -22.8099 O.3     1  UNL1       -0.4739
      7 C          46.5563   12.1610  -24.2057 C.ar    1  UNL1        0.1362
      8 C          45.3195   12.0745  -24.8508 C.ar    1  UNL1        0.0366
      9 C          45.2447   12.0359  -26.2427 C.ar    1  UNL1        0.0031
     10 C          46.4136   12.0679  -27.0186 C.ar    1  UNL1       -0.0000
     11 C          47.6596   12.1260  -26.3705 C.ar    1  UNL1        0.0004
     12 C          47.7508   12.1759  -24.9681 C.ar    1  UNL1        0.0317
     13 C          49.1381   12.0932  -24.3522 C.3     1  UNL1        0.1236
     14 C          46.3366   12.0235  -28.5008 C.ar    1  UNL1        0.0015
     15 C          46.5628   10.8027  -29.1966 C.ar    1  UNL1        0.0016
     16 C          46.4916   10.7486  -30.6013 C.ar    1  UNL1        0.0206
     17 C          46.1938   11.9248  -31.2807 C.ar    1  UNL1        0.0985
     18 N          46.0739   12.1013  -32.6088 N.ar    1  UNL1       -0.2241
     19 C          45.7764   13.4236  -32.7119 C.ar    1  UNL1        0.1750
     20 N          45.7095   14.0575  -31.5165 N.ar    1  UNL1       -0.3349
     21 C          45.9766   13.0964  -30.6247 C.ar    1  UNL1        0.0757
     22 C          46.0372   13.1958  -29.2375 C.ar    1  UNL1        0.0185
     23 H          45.4981   15.0641  -31.3364 H       1  UNL1        0.1675
     24 C          48.9021   11.2860  -19.9270 C.ar    1  UNL1       -0.0163
     25 C          48.7614   11.3716  -18.5344 C.ar    1  UNL1        0.0142
     26 C          49.6303   12.1549  -17.7746 C.ar    1  UNL1        0.1056
     27 C          50.6509   12.8697  -18.4048 C.ar    1  UNL1        0.0249
     28 C          50.8076   12.8314  -19.8004 C.ar    1  UNL1        0.0808
     29 C          49.9299   12.0213  -20.5721 C.ar    1  UNL1        0.0559
     30 S          49.4588   12.2197  -16.0231 S.O2    1  UNL1        0.0104
     31 C          51.0249   12.6410  -15.2944 C.3     1  UNL1        0.1816
     32 O          49.0060   10.8838  -15.5038 O.2     1  UNL1       -0.1686
     33 O          48.4346   13.2542  -15.6488 O.2     1  UNL1       -0.1686
     34 C          51.8933   13.6502  -20.4046 C.2     1  UNL1        0.3382
     35 O          52.1225   14.8239  -20.0068 O.2     1  UNL1       -0.2451
     36 O          52.6901   13.1124  -21.4123 O.3     1  UNL1       -0.4771
     37 H          53.4357   13.6550  -21.8316 H       1  UNL1        0.2954
     38 C          47.9199   10.4258  -20.6940 C.3     1  UNL1        0.0265
     39 C          48.9113    8.7684  -22.3178 C.3     1  UNL1        0.0004
     40 C          48.4716    9.0078  -20.8767 C.3     1  UNL1        0.0047
@<TRIPOS>BOND
     1    39    40    1
     2    40    38    1
     3    38    24    1
     4    24    25   ar
     5    25    26   ar
     6    26    30    1
     7    30    31    1
     8    30    32    2
     9    30    33    2
    10    26    27   ar
    11    27    28   ar
    12    28    34    1
    13    34    35    2
    14    34    36    1
    15    28    29   ar
    16    29     1    1
    17     1     2    2
    18     1     3   am
    19     3     4    1
    20     4     5    1
    21     5     6    1
    22     6     7    1
    23     7     8   ar
    24     8     9   ar
    25     9    10   ar
    26    10    14    1
    27    14    15   ar
    28    15    16   ar
    29    16    17   ar
    30    17    18   ar
    31    18    19   ar
    32    19    20   ar
    33    20    21   ar
    34    21    22   ar
    35    10    11   ar
    36    11    12   ar
    37    12    13    1
    38    29    24   ar
    39    13     3    1
    40    12     7   ar
    41    22    14   ar
    42    21    17   ar
    43    36    37    1
    44    20    23    1
@<TRIPOS>MOLECULE
*****
 40 44 0 0 0
SMALL
GASTEIGER

@<TRIPOS>ATOM
      1 C          47.9120   10.7245  -20.9591 C.2     1  UNL1        0.2493
      2 O          47.5306    9.5274  -21.0650 O.2     1  UNL1       -0.2699
      3 N          48.1752   11.5082  -22.1423 N.am    1  UNL1       -0.2680
      4 C          49.1062   12.6406  -22.0978 C.3     1  UNL1        0.1412
      5 C          48.3300   13.9429  -21.9185 C.3     1  UNL1        0.2268
      6 O          47.0537   13.8822  -22.5539 O.3     1  UNL1       -0.4739
      7 C          46.8951   13.5112  -23.8918 C.ar    1  UNL1        0.1362
      8 C          46.3809   14.4590  -24.7810 C.ar    1  UNL1        0.0366
      9 C          46.2287   14.1559  -26.1336 C.ar    1  UNL1        0.0031
     10 C          46.5760   12.8866  -26.6211 C.ar    1  UNL1       -0.0000
     11 C          47.0663   11.9229  -25.7229 C.ar    1  UNL1        0.0004
     12 C          47.2350   12.2169  -24.3582 C.ar    1  UNL1        0.0317
     13 C          47.6344   11.0739  -23.4388 C.3     1  UNL1        0.1236
     14 C          46.4116   12.5605  -28.0605 C.ar    1  UNL1        0.0015
     15 C          46.5550   11.2194  -28.5151 C.ar    1  UNL1        0.0016
     16 C          46.4006   10.8985  -29.8768 C.ar    1  UNL1        0.0206
     17 C          46.1044   11.9337  -30.7568 C.ar    1  UNL1        0.0985
     18 N          45.9139   11.8558  -32.0861 N.ar    1  UNL1       -0.2241
     19 C          45.6564   13.1453  -32.4302 C.ar    1  UNL1        0.1750
     20 N          45.6808   14.0004  -31.3796 N.ar    1  UNL1       -0.3349
     21 C          45.9660   13.2184  -30.3320 C.ar    1  UNL1        0.0757
     22 C          46.1104   13.5808  -28.9957 C.ar    1  UNL1        0.0185
     23 H          45.5149   15.0312  -31.3890 H       1  UNL1        0.1675
     24 C          46.9612   11.9410  -18.9854 C.ar    1  UNL1       -0.0163
     25 C          47.1000   12.4531  -17.6873 C.ar    1  UNL1        0.0142
     26 C          48.3037   12.3266  -16.9937 C.ar    1  UNL1        0.1056
     27 C          49.3888   11.6885  -17.5976 C.ar    1  UNL1        0.0249
     28 C          49.2977   11.1864  -18.9065 C.ar    1  UNL1        0.0808
     29 C          48.0657   11.3034  -19.6071 C.ar    1  UNL1        0.0559
     30 S          48.4456   12.9446  -15.3506 S.O2    1  UNL1        0.0104
     31 C          50.1613   13.2159  -14.9710 C.3     1  UNL1        0.1816
     32 O          47.8667   11.9539  -14.3798 O.2     1  UNL1       -0.1686
     33 O          47.6914   14.2387  -15.2254 O.2     1  UNL1       -0.1686
     34 C          50.5077   10.5539  -19.4983 C.2     1  UNL1        0.3382
     35 O          51.6554   11.0383  -19.3078 O.2     1  UNL1       -0.2451
     36 O          50.3834    9.3940  -20.2592 O.3     1  UNL1       -0.4771
     37 H          51.1973    8.9487  -20.6660 H       1  UNL1        0.2954
     38 C          45.6311   12.1198  -19.6867 C.3     1  UNL1        0.0265
     39 C          43.1357   11.8872  -19.3941 C.3     1  UNL1        0.0004
     40 C          44.4761   12.0436  -18.6825 C.3     1  UNL1        0.0047
@<TRIPOS>BOND
     1    39    40    1
     2    40    38    1
     3    38    24    1
     4    24    25   ar
     5    25    26   ar
     6    26    30    1
     7    30    31    1
     8    30    32    2
     9    30    33    2
    10    26    27   ar
    11    27    28   ar
    12    28    34    1
    13    34    35    2
    14    34    36    1
    15    28    29   ar
    16    29     1    1
    17     1     2    2
    18     1     3   am
    19     3     4    1
    20     4     5    1
    21     5     6    1
    22     6     7    1
    23     7     8   ar
    24     8     9   ar
    25     9    10   ar
    26    10    14    1
    27    14    15   ar
    28    15    16   ar
    29    16    17   ar
    30    17    18   ar
    31    18    19   ar
    32    19    20   ar
    33    20    21   ar
    34    21    22   ar
    35    10    11   ar
    36    11    12   ar
    37    12    13    1
    38    29    24   ar
    39    13     3    1
    40    12     7   ar
    41    22    14   ar
    42    21    17   ar
    43    36    37    1
    44    20    23    1
@<TRIPOS>MOLECULE
*****
 40 44 0 0 0
SMALL
GASTEIGER

@<TRIPOS>ATOM
      1 C          47.8058   12.4425  -21.8535 C.2     1  UNL1        0.2493
      2 O          47.2698   13.3694  -22.5193 O.2     1  UNL1       -0.2699
      3 N          48.2058   11.2192  -22.5069 N.am    1  UNL1       -0.2680
      4 C          48.3004    9.9647  -21.7531 C.3     1  UNL1        0.1412
      5 C          49.7477    9.7200  -21.3336 C.3     1  UNL1        0.2268
      6 O          50.6653   10.2341  -22.2980 O.3     1  UNL1       -0.4739
      7 C          50.5899    9.9126  -23.6558 C.ar    1  UNL1        0.1362
      8 C          51.6543    9.2081  -24.2252 C.ar    1  UNL1        0.0366
      9 C          51.6215    8.8332  -25.5680 C.ar    1  UNL1        0.0031
     10 C          50.5235    9.1716  -26.3738 C.ar    1  UNL1       -0.0000
     11 C          49.4652    9.9050  -25.8098 C.ar    1  UNL1        0.0004
     12 C          49.4792   10.2812  -24.4550 C.ar    1  UNL1        0.0317
     13 C          48.3635   11.1921  -23.9686 C.3     1  UNL1        0.1236
     14 C          50.4878    8.7764  -27.8048 C.ar    1  UNL1        0.0015
     15 C          49.2478    8.4855  -28.4400 C.ar    1  UNL1        0.0016
     16 C          49.2018    8.1108  -29.7959 C.ar    1  UNL1        0.0206
     17 C          50.4054    8.0356  -30.4884 C.ar    1  UNL1        0.0985
     18 N          50.5944    7.7039  -31.7783 N.ar    1  UNL1       -0.2241
     19 C          51.9432    7.7951  -31.9189 C.ar    1  UNL1        0.1750
     20 N          52.5815    8.1647  -30.7825 N.ar    1  UNL1       -0.3349
     21 C          51.5954    8.3112  -29.8900 C.ar    1  UNL1        0.0757
     22 C          51.6876    8.6850  -28.5522 C.ar    1  UNL1        0.0185
     23 H          53.6067    8.3025  -30.6396 H       1  UNL1        0.1675
     24 C          46.9859   12.3475  -19.4874 C.ar    1  UNL1       -0.0163
     25 C          47.2127   12.5026  -18.1123 C.ar    1  UNL1        0.0142
     26 C          48.4530   12.9271  -17.6356 C.ar    1  UNL1        0.1056
     27 C          49.4831   13.2083  -18.5353 C.ar    1  UNL1        0.0249
     28 C          49.2867   13.0912  -19.9214 C.ar    1  UNL1        0.0808
     29 C          48.0262   12.6448  -20.4053 C.ar    1  UNL1        0.0559
     30 S          48.7281   13.0804  -15.9028 S.O2    1  UNL1        0.0104
     31 C          47.9456   14.5638  -15.3126 C.3     1  UNL1        0.1816
     32 O          50.2035   13.1450  -15.6229 O.2     1  UNL1       -0.1686
     33 O          48.1540   11.8895  -15.1879 O.2     1  UNL1       -0.1686
     34 C          50.4185   13.4459  -20.8201 C.2     1  UNL1        0.3382
     35 O          50.5067   14.5926  -21.3353 O.2     1  UNL1       -0.2451
     36 O          51.4145   12.5092  -21.0855 O.3     1  UNL1       -0.4771
     37 H          52.1936   12.7357  -21.6920 H       1  UNL1        0.2954
     38 C          45.6142   11.8926  -19.9397 C.3     1  UNL1        0.0265
     39 C          43.1664   11.8227  -19.3315 C.3     1  UNL1        0.0004
     40 C          44.5776   12.1206  -18.8343 C.3     1  UNL1        0.0047
@<TRIPOS>BOND
     1    39    40    1
     2    40    38    1
     3    38    24    1
     4    24    25   ar
     5    25    26   ar
     6    26    30    1
     7    30    31    1
     8    30    32    2
     9    30    33    2
    10    26    27   ar
    11    27    28   ar
    12    28    34    1
    13    34    35    2
    14    34    36    1
    15    28    29   ar
    16    29     1    1
    17     1     2    2
    18     1     3   am
    19     3     4    1
    20     4     5    1
    21     5     6    1
    22     6     7    1
    23     7     8   ar
    24     8     9   ar
    25     9    10   ar
    26    10    14    1
    27    14    15   ar
    28    15    16   ar
    29    16    17   ar
    30    17    18   ar
    31    18    19   ar
    32    19    20   ar
    33    20    21   ar
    34    21    22   ar
    35    10    11   ar
    36    11    12   ar
    37    12    13    1
    38    29    24   ar
    39    13     3    1
    40    12     7   ar
    41    22    14   ar
    42    21    17   ar
    43    36    37    1
    44    20    23    1
