@<TRIPOS>MOLECULE
*****
 32 35 0 0 0
SMALL
GASTEIGER

@<TRIPOS>ATOM
      1 N         -24.2426  -10.1108  -11.4384 N.ar    1  UNL1       -0.3245
      2 C         -23.3589   -9.6124  -10.5297 C.ar    1  UNL1        0.0600
      3 C         -23.5847   -8.6389   -9.5444 C.ar    1  UNL1        0.0177
      4 C         -22.5092   -8.2553   -8.7238 C.ar    1  UNL1        0.0082
      5 C         -21.2337   -8.8322   -8.8970 C.ar    1  UNL1        0.0347
      6 BR        -19.7849   -8.2928   -7.7764 Br      1  UNL1       -0.0490
      7 C         -21.0235   -9.7990   -9.8942 C.ar    1  UNL1        0.0082
      8 C         -22.1113  -10.1649  -10.6875 C.ar    1  UNL1        0.0177
      9 C         -22.2076  -11.0441  -11.7341 C.ar    1  UNL1        0.0174
     10 C         -21.2123  -11.8075  -12.3316 C.ar    1  UNL1        0.0082
     11 C         -21.5546  -12.5755  -13.4441 C.ar    1  UNL1        0.0343
     12 BR        -20.2132  -13.6035  -14.3342 Br      1  UNL1       -0.0490
     13 C         -22.8780  -12.5940  -13.9145 C.ar    1  UNL1        0.0038
     14 C         -23.9145  -11.8649  -13.2704 C.ar    1  UNL1       -0.0062
     15 C         -23.5268  -11.0235  -12.1790 C.ar    1  UNL1        0.0559
     16 C         -25.3368  -12.0036  -13.8027 C.3     1  UNL1        0.0238
     17 C         -25.4146  -11.5065  -15.2520 C.3     1  UNL1        0.0047
     18 C         -25.8776  -13.4420  -13.7079 C.3     1  UNL1        0.0047
     19 C         -25.6342   -9.6527  -11.5680 C.3     1  UNL1        0.1429
     20 C         -25.7506   -8.5265  -12.6086 C.3     1  UNL1        0.2027
     21 F         -26.7594   -8.8345  -13.5063 F       1  UNL1       -0.2334
     22 C         -26.0529   -7.1812  -11.9287 C.3     1  UNL1        0.1259
     23 N         -25.0611   -6.1667  -12.2873 N.pl3   1  UNL1       -0.3157
     24 H         -25.4091   -5.2113  -12.5303 H       1  UNL1        0.1483
     25 C         -21.7456   -7.5661  -13.1229 C.ar    1  UNL1        0.2261
     26 C         -20.9028   -6.8588  -12.2618 C.ar    1  UNL1        0.0578
     27 C         -21.4485   -5.9114  -11.3951 C.ar    1  UNL1        0.0077
     28 C         -22.8245   -5.6785  -11.3972 C.ar    1  UNL1        0.0343
     29 C         -23.6455   -6.4032  -12.2719 C.ar    1  UNL1        0.1317
     30 N         -23.0874   -7.3252  -13.1051 N.ar    1  UNL1       -0.1969
     31 C         -21.9262   -9.0497  -15.0914 C.3     1  UNL1        0.2542
     32 O         -21.1991   -8.5104  -13.9955 O.3     1  UNL1       -0.4561
@<TRIPOS>BOND
     1    31    32    1
     2    32    25    1
     3    25    26   ar
     4    26    27   ar
     5    27    28   ar
     6    28    29   ar
     7    29    23    1
     8    23    22    1
     9    22    20    1
    10    20    21    1
    11    20    19    1
    12    19     1    1
    13     1     2   ar
    14     2     3   ar
    15     3     4   ar
    16     4     5   ar
    17     5     6    1
    18     5     7   ar
    19     7     8   ar
    20     8     9   ar
    21     9    10   ar
    22    10    11   ar
    23    11    12    1
    24    11    13   ar
    25    13    14   ar
    26    14    16    1
    27    16    17    1
    28    16    18    1
    29    14    15   ar
    30    29    30   ar
    31    30    25   ar
    32    15     1   ar
    33     8     2   ar
    34    15     9   ar
    35    23    24    1
@<TRIPOS>MOLECULE
*****
 32 35 0 0 0
SMALL
GASTEIGER

@<TRIPOS>ATOM
      1 N         -23.8553   -7.8843  -12.0105 N.ar    1  UNL1       -0.3245
      2 C         -24.8692   -7.1675  -12.5701 C.ar    1  UNL1        0.0600
      3 C         -25.1525   -5.8016  -12.4175 C.ar    1  UNL1        0.0177
      4 C         -26.2767   -5.2736  -13.0767 C.ar    1  UNL1        0.0082
      5 C         -27.1016   -6.1035  -13.8644 C.ar    1  UNL1        0.0347
      6 BR        -28.6271   -5.3683  -14.7462 Br      1  UNL1       -0.0490
      7 C         -26.8081   -7.4707  -13.9989 C.ar    1  UNL1        0.0082
      8 C         -25.6819   -7.9640  -13.3395 C.ar    1  UNL1        0.0177
      9 C         -25.1650   -9.2308  -13.2640 C.ar    1  UNL1        0.0174
     10 C         -25.6545  -10.4108  -13.8102 C.ar    1  UNL1        0.0082
     11 C         -24.9785  -11.5960  -13.5220 C.ar    1  UNL1        0.0343
     12 BR        -25.6386  -13.2529  -14.2056 Br      1  UNL1       -0.0490
     13 C         -23.8186  -11.5776  -12.7300 C.ar    1  UNL1        0.0038
     14 C         -23.2764  -10.3666  -12.2199 C.ar    1  UNL1       -0.0062
     15 C         -24.0281   -9.1726  -12.4624 C.ar    1  UNL1        0.0559
     16 C         -21.9712  -10.4314  -11.4339 C.3     1  UNL1        0.0238
     17 C         -22.2553  -10.4167   -9.9263 C.3     1  UNL1        0.0047
     18 C         -21.1097  -11.6547  -11.7971 C.3     1  UNL1        0.0047
     19 C         -22.8710   -7.3218  -11.0735 C.3     1  UNL1        0.1429
     20 C         -21.7731   -6.5490  -11.8234 C.3     1  UNL1        0.2027
     21 F         -21.1400   -5.6848  -10.9454 F       1  UNL1       -0.2334
     22 C         -20.7444   -7.5137  -12.4354 C.3     1  UNL1        0.1259
     23 N         -20.7224   -7.4151  -13.8953 N.pl3   1  UNL1       -0.3157
     24 H         -20.0840   -6.7074  -14.3250 H       1  UNL1        0.1483
     25 C         -21.9426  -10.4441  -15.6231 C.ar    1  UNL1        0.2261
     26 C         -22.9754   -9.9349  -16.4144 C.ar    1  UNL1        0.0578
     27 C         -23.2618   -8.5701  -16.3711 C.ar    1  UNL1        0.0077
     28 C         -22.5187   -7.7300  -15.5406 C.ar    1  UNL1        0.0343
     29 C         -21.4883   -8.2688  -14.7582 C.ar    1  UNL1        0.1317
     30 N         -21.2270   -9.6043  -14.8222 N.ar    1  UNL1       -0.1969
     31 C         -22.4440  -12.7343  -16.4053 C.3     1  UNL1        0.2542
     32 O         -21.6595  -11.8117  -15.6611 O.3     1  UNL1       -0.4561
@<TRIPOS>BOND
     1    31    32    1
     2    32    25    1
     3    25    26   ar
     4    26    27   ar
     5    27    28   ar
     6    28    29   ar
     7    29    23    1
     8    23    22    1
     9    22    20    1
    10    20    21    1
    11    20    19    1
    12    19     1    1
    13     1     2   ar
    14     2     3   ar
    15     3     4   ar
    16     4     5   ar
    17     5     6    1
    18     5     7   ar
    19     7     8   ar
    20     8     9   ar
    21     9    10   ar
    22    10    11   ar
    23    11    12    1
    24    11    13   ar
    25    13    14   ar
    26    14    16    1
    27    16    17    1
    28    16    18    1
    29    14    15   ar
    30    29    30   ar
    31    30    25   ar
    32    15     1   ar
    33     8     2   ar
    34    15     9   ar
    35    23    24    1
@<TRIPOS>MOLECULE
*****
 32 35 0 0 0
SMALL
GASTEIGER

@<TRIPOS>ATOM
      1 N         -24.1933  -10.2095  -12.3911 N.ar    1  UNL1       -0.3245
      2 C         -24.4660  -11.1940  -13.2918 C.ar    1  UNL1        0.0600
      3 C         -25.6252  -11.3662  -14.0639 C.ar    1  UNL1        0.0177
      4 C         -25.7004  -12.4797  -14.9192 C.ar    1  UNL1        0.0082
      5 C         -24.6366  -13.4034  -14.9890 C.ar    1  UNL1        0.0347
      6 BR        -24.7611  -14.9125  -16.1521 Br      1  UNL1       -0.0490
      7 C         -23.4873  -13.2203  -14.2023 C.ar    1  UNL1        0.0082
      8 C         -23.4383  -12.1022  -13.3694 C.ar    1  UNL1        0.0177
      9 C         -22.4807  -11.6784  -12.4857 C.ar    1  UNL1        0.0174
     10 C         -21.2775  -12.2819  -12.1414 C.ar    1  UNL1        0.0082
     11 C         -20.5049  -11.6828  -11.1470 C.ar    1  UNL1        0.0343
     12 BR        -18.8670  -12.4990  -10.6000 Br      1  UNL1       -0.0490
     13 C         -20.9264  -10.4860  -10.5446 C.ar    1  UNL1        0.0038
     14 C         -22.1249   -9.8294  -10.9358 C.ar    1  UNL1       -0.0062
     15 C         -22.9406  -10.5009  -11.9018 C.ar    1  UNL1        0.0559
     16 C         -22.4664   -8.4944  -10.2825 C.3     1  UNL1        0.0238
     17 C         -22.3822   -8.6112   -8.7551 C.3     1  UNL1        0.0047
     18 C         -21.5760   -7.3384  -10.7738 C.3     1  UNL1        0.0047
     19 C         -25.1366   -9.1394  -12.0327 C.3     1  UNL1        0.1429
     20 C         -25.7037   -8.4586  -13.2896 C.3     1  UNL1        0.2027
     21 F         -27.0707   -8.2910  -13.1427 F       1  UNL1       -0.2334
     22 C         -25.0348   -7.0941  -13.5227 C.3     1  UNL1        0.1259
     23 N         -24.2505   -7.0880  -14.7582 N.pl3   1  UNL1       -0.3157
     24 H         -24.3585   -6.2685  -15.3984 H       1  UNL1        0.1483
     25 C         -22.7743  -10.0722  -16.3595 C.ar    1  UNL1        0.2261
     26 C         -21.4961  -10.1056  -15.7964 C.ar    1  UNL1        0.0578
     27 C         -21.1286   -9.1258  -14.8736 C.ar    1  UNL1        0.0077
     28 C         -22.0362   -8.1248  -14.5242 C.ar    1  UNL1        0.0343
     29 C         -23.3117   -8.1167  -15.1051 C.ar    1  UNL1        0.1317
     30 N         -23.6462   -9.0874  -16.0004 N.ar    1  UNL1       -0.1969
     31 C         -22.2926  -12.1388  -17.6265 C.3     1  UNL1        0.2542
     32 O         -23.1406  -11.0494  -17.2884 O.3     1  UNL1       -0.4561
@<TRIPOS>BOND
     1    31    32    1
     2    32    25    1
     3    25    26   ar
     4    26    27   ar
     5    27    28   ar
     6    28    29   ar
     7    29    23    1
     8    23    22    1
     9    22    20    1
    10    20    21    1
    11    20    19    1
    12    19     1    1
    13     1     2   ar
    14     2     3   ar
    15     3     4   ar
    16     4     5   ar
    17     5     6    1
    18     5     7   ar
    19     7     8   ar
    20     8     9   ar
    21     9    10   ar
    22    10    11   ar
    23    11    12    1
    24    11    13   ar
    25    13    14   ar
    26    14    16    1
    27    16    17    1
    28    16    18    1
    29    14    15   ar
    30    29    30   ar
    31    30    25   ar
    32    15     1   ar
    33     8     2   ar
    34    15     9   ar
    35    23    24    1
@<TRIPOS>MOLECULE
*****
 32 35 0 0 0
SMALL
GASTEIGER

@<TRIPOS>ATOM
      1 N         -22.3913   -8.9108  -11.3632 N.ar    1  UNL1       -0.3245
      2 C         -21.3850   -9.7765  -11.0583 C.ar    1  UNL1        0.0600
      3 C         -20.1813   -9.5059  -10.3895 C.ar    1  UNL1        0.0177
      4 C         -19.2678  -10.5586  -10.2034 C.ar    1  UNL1        0.0082
      5 C         -19.5558  -11.8519  -10.6872 C.ar    1  UNL1        0.0347
      6 BR        -18.2993  -13.2663  -10.4299 Br      1  UNL1       -0.0490
      7 C         -20.7619  -12.1028  -11.3623 C.ar    1  UNL1        0.0082
      8 C         -21.6517  -11.0406  -11.5248 C.ar    1  UNL1        0.0177
      9 C         -22.8699  -10.9733  -12.1484 C.ar    1  UNL1        0.0174
     10 C         -23.5563  -11.9640  -12.8398 C.ar    1  UNL1        0.0082
     11 C         -24.7584  -11.6193  -13.4569 C.ar    1  UNL1        0.0343
     12 BR        -25.7163  -12.9303  -14.4630 Br      1  UNL1       -0.0490
     13 C         -25.2656  -10.3142  -13.3451 C.ar    1  UNL1        0.0038
     14 C         -24.6008   -9.3122  -12.5870 C.ar    1  UNL1       -0.0062
     15 C         -23.3313   -9.6652  -12.0274 C.ar    1  UNL1        0.0559
     16 C         -25.2621   -7.9443  -12.4561 C.3     1  UNL1        0.0238
     17 C         -25.3955   -7.2825  -13.8337 C.3     1  UNL1        0.0047
     18 C         -26.6357   -8.0035  -11.7632 C.3     1  UNL1        0.0047
     19 C         -22.3555   -7.4711  -11.0644 C.3     1  UNL1        0.1429
     20 C         -21.8334   -6.6696  -12.2685 C.3     1  UNL1        0.2027
     21 F         -20.9416   -5.7066  -11.8261 F       1  UNL1       -0.2334
     22 C         -21.1397   -7.5936  -13.2826 C.3     1  UNL1        0.1259
     23 N         -21.8734   -7.6445  -14.5478 N.pl3   1  UNL1       -0.3157
     24 H         -22.2232   -6.7422  -14.9434 H       1  UNL1        0.1483
     25 C         -21.6867  -11.1860  -15.5829 C.ar    1  UNL1        0.2261
     26 C         -22.5115  -11.2063  -16.7105 C.ar    1  UNL1        0.0578
     27 C         -23.1302  -10.0273  -17.1275 C.ar    1  UNL1        0.0077
     28 C         -22.9218   -8.8442  -16.4171 C.ar    1  UNL1        0.0343
     29 C         -22.0890   -8.8540  -15.2899 C.ar    1  UNL1        0.1317
     30 N         -21.4942  -10.0181  -14.9065 N.ar    1  UNL1       -0.1969
     31 C         -21.6666  -13.6459  -15.3436 C.3     1  UNL1        0.2542
     32 O         -21.0722  -12.3677  -15.1611 O.3     1  UNL1       -0.4561
@<TRIPOS>BOND
     1    31    32    1
     2    32    25    1
     3    25    26   ar
     4    26    27   ar
     5    27    28   ar
     6    28    29   ar
     7    29    23    1
     8    23    22    1
     9    22    20    1
    10    20    21    1
    11    20    19    1
    12    19     1    1
    13     1     2   ar
    14     2     3   ar
    15     3     4   ar
    16     4     5   ar
    17     5     6    1
    18     5     7   ar
    19     7     8   ar
    20     8     9   ar
    21     9    10   ar
    22    10    11   ar
    23    11    12    1
    24    11    13   ar
    25    13    14   ar
    26    14    16    1
    27    16    17    1
    28    16    18    1
    29    14    15   ar
    30    29    30   ar
    31    30    25   ar
    32    15     1   ar
    33     8     2   ar
    34    15     9   ar
    35    23    24    1
@<TRIPOS>MOLECULE
*****
 32 35 0 0 0
SMALL
GASTEIGER

@<TRIPOS>ATOM
      1 N         -21.7348  -10.9371  -12.1423 N.ar    1  UNL1       -0.3245
      2 C         -20.6388  -11.3473  -11.4453 C.ar    1  UNL1        0.0600
      3 C         -20.1085  -12.6429  -11.3473 C.ar    1  UNL1        0.0177
      4 C         -18.9719  -12.8417  -10.5437 C.ar    1  UNL1        0.0082
      5 C         -18.3879  -11.7625   -9.8479 C.ar    1  UNL1        0.0347
      6 BR        -16.8485  -12.0548   -8.7569 Br      1  UNL1       -0.0490
      7 C         -18.9373  -10.4738   -9.9506 C.ar    1  UNL1        0.0082
      8 C         -20.0602  -10.3060  -10.7614 C.ar    1  UNL1        0.0177
      9 C         -20.8170   -9.1967  -11.0339 C.ar    1  UNL1        0.0174
     10 C         -20.6907   -7.9059  -10.5358 C.ar    1  UNL1        0.0082
     11 C         -21.6448   -6.9616  -10.9135 C.ar    1  UNL1        0.0343
     12 BR        -21.5471   -5.1858  -10.2169 Br      1  UNL1       -0.0490
     13 C         -22.6773   -7.3103  -11.7997 C.ar    1  UNL1        0.0038
     14 C         -22.7765   -8.6118  -12.3627 C.ar    1  UNL1       -0.0062
     15 C         -21.8339   -9.5858  -11.9018 C.ar    1  UNL1        0.0559
     16 C         -23.8845   -8.8809  -13.3753 C.3     1  UNL1        0.0238
     17 C         -25.0947   -9.5220  -12.6839 C.3     1  UNL1        0.0047
     18 C         -24.3209   -7.6179  -14.1401 C.3     1  UNL1        0.0047
     19 C         -22.6081  -11.8407  -12.9066 C.3     1  UNL1        0.1429
     20 C         -21.9614  -12.2322  -14.2459 C.3     1  UNL1        0.2027
     21 F         -21.4186  -13.5019  -14.1386 F       1  UNL1       -0.2334
     22 C         -22.9958  -12.2036  -15.3829 C.3     1  UNL1        0.1259
     23 N         -22.4658  -11.5320  -16.5702 N.pl3   1  UNL1       -0.3157
     24 H         -22.2322  -12.1239  -17.3997 H       1  UNL1        0.1483
     25 C         -23.0687   -8.0017  -17.4768 C.ar    1  UNL1        0.2261
     26 C         -22.0017   -7.3515  -16.8516 C.ar    1  UNL1        0.0578
     27 C         -21.0744   -8.0999  -16.1259 C.ar    1  UNL1        0.0077
     28 C         -21.2211   -9.4845  -16.0301 C.ar    1  UNL1        0.0343
     29 C         -22.3014  -10.1095  -16.6680 C.ar    1  UNL1        0.1317
     30 N         -23.1902   -9.3557  -17.3733 N.ar    1  UNL1       -0.1969
     31 C         -24.3842   -5.9372  -17.8174 C.3     1  UNL1        0.2542
     32 O         -24.0011   -7.2520  -18.1983 O.3     1  UNL1       -0.4561
@<TRIPOS>BOND
     1    31    32    1
     2    32    25    1
     3    25    26   ar
     4    26    27   ar
     5    27    28   ar
     6    28    29   ar
     7    29    23    1
     8    23    22    1
     9    22    20    1
    10    20    21    1
    11    20    19    1
    12    19     1    1
    13     1     2   ar
    14     2     3   ar
    15     3     4   ar
    16     4     5   ar
    17     5     6    1
    18     5     7   ar
    19     7     8   ar
    20     8     9   ar
    21     9    10   ar
    22    10    11   ar
    23    11    12    1
    24    11    13   ar
    25    13    14   ar
    26    14    16    1
    27    16    17    1
    28    16    18    1
    29    14    15   ar
    30    29    30   ar
    31    30    25   ar
    32    15     1   ar
    33     8     2   ar
    34    15     9   ar
    35    23    24    1
@<TRIPOS>MOLECULE
*****
 32 35 0 0 0
SMALL
GASTEIGER

@<TRIPOS>ATOM
      1 N         -21.6273  -10.1785  -12.7994 N.ar    1  UNL1       -0.3245
      2 C         -21.5029  -11.3334  -13.5106 C.ar    1  UNL1        0.0600
      3 C         -21.0083  -12.5718  -13.0734 C.ar    1  UNL1        0.0177
      4 C         -20.9480  -13.6316  -13.9956 C.ar    1  UNL1        0.0082
      5 C         -21.3678  -13.4462  -15.3295 C.ar    1  UNL1        0.0347
      6 BR        -21.2719  -14.8964  -16.5678 Br      1  UNL1       -0.0490
      7 C         -21.8520  -12.1971  -15.7521 C.ar    1  UNL1        0.0082
      8 C         -21.9073  -11.1671  -14.8127 C.ar    1  UNL1        0.0177
      9 C         -22.3012   -9.8601  -14.9311 C.ar    1  UNL1        0.0174
     10 C         -22.7325   -9.1737  -16.0595 C.ar    1  UNL1        0.0082
     11 C         -23.0061   -7.8121  -15.9335 C.ar    1  UNL1        0.0343
     12 BR        -23.5530   -6.8104  -17.4651 Br      1  UNL1       -0.0490
     13 C         -22.8785   -7.1743  -14.6886 C.ar    1  UNL1        0.0038
     14 C         -22.4985   -7.8834  -13.5166 C.ar    1  UNL1       -0.0062
     15 C         -22.1476   -9.2612  -13.6836 C.ar    1  UNL1        0.0559
     16 C         -22.4596   -7.1273  -12.1927 C.3     1  UNL1        0.0238
     17 C         -21.1931   -6.2657  -12.1077 C.3     1  UNL1        0.0047
     18 C         -23.7076   -6.2564  -11.9599 C.3     1  UNL1        0.0047
     19 C         -21.2000  -10.0248  -11.4005 C.3     1  UNL1        0.1429
     20 C         -22.2716  -10.5558  -10.4338 C.3     1  UNL1        0.2027
     21 F         -22.0008  -10.1000   -9.1542 F       1  UNL1       -0.2334
     22 C         -23.6740  -10.0951  -10.8636 C.3     1  UNL1        0.1259
     23 N         -24.5250  -11.2322  -11.2162 N.pl3   1  UNL1       -0.3157
     24 H         -24.9476  -11.7837  -10.4349 H       1  UNL1        0.1483
     25 C         -24.9862  -13.2492  -14.2768 C.ar    1  UNL1        0.2261
     26 C         -25.4779  -12.3037  -15.1804 C.ar    1  UNL1        0.0578
     27 C         -25.6524  -10.9838  -14.7630 C.ar    1  UNL1        0.0077
     28 C         -25.3373  -10.6220  -13.4524 C.ar    1  UNL1        0.0343
     29 C         -24.8456  -11.5919  -12.5681 C.ar    1  UNL1        0.1317
     30 N         -24.6811  -12.8725  -13.0026 N.ar    1  UNL1       -0.1969
     31 C         -24.9528  -14.9703  -16.0503 C.3     1  UNL1        0.2542
     32 O         -24.8174  -14.5723  -14.6924 O.3     1  UNL1       -0.4561
@<TRIPOS>BOND
     1    31    32    1
     2    32    25    1
     3    25    26   ar
     4    26    27   ar
     5    27    28   ar
     6    28    29   ar
     7    29    23    1
     8    23    22    1
     9    22    20    1
    10    20    21    1
    11    20    19    1
    12    19     1    1
    13     1     2   ar
    14     2     3   ar
    15     3     4   ar
    16     4     5   ar
    17     5     6    1
    18     5     7   ar
    19     7     8   ar
    20     8     9   ar
    21     9    10   ar
    22    10    11   ar
    23    11    12    1
    24    11    13   ar
    25    13    14   ar
    26    14    16    1
    27    16    17    1
    28    16    18    1
    29    14    15   ar
    30    29    30   ar
    31    30    25   ar
    32    15     1   ar
    33     8     2   ar
    34    15     9   ar
    35    23    24    1
@<TRIPOS>MOLECULE
*****
 32 35 0 0 0
SMALL
GASTEIGER

@<TRIPOS>ATOM
      1 N         -24.2966  -10.2138  -12.5954 N.ar    1  UNL1       -0.3245
      2 C         -23.9483  -10.6833  -13.8256 C.ar    1  UNL1        0.0600
      3 C         -24.7528  -10.7979  -14.9697 C.ar    1  UNL1        0.0177
      4 C         -24.1840  -11.3385  -16.1365 C.ar    1  UNL1        0.0082
      5 C         -22.8385  -11.7619  -16.1485 C.ar    1  UNL1        0.0347
      6 BR        -22.0867  -12.4991  -17.7413 Br      1  UNL1       -0.0490
      7 C         -22.0501  -11.6479  -14.9914 C.ar    1  UNL1        0.0082
      8 C         -22.6398  -11.1006  -13.8516 C.ar    1  UNL1        0.0177
      9 C         -22.1416  -10.8888  -12.5929 C.ar    1  UNL1        0.0174
     10 C         -20.8879  -11.2023  -12.0825 C.ar    1  UNL1        0.0082
     11 C         -20.6489  -10.9514  -10.7318 C.ar    1  UNL1        0.0343
     12 BR        -18.9597  -11.4109   -9.9677 Br      1  UNL1       -0.0490
     13 C         -21.6439  -10.3666   -9.9310 C.ar    1  UNL1        0.0038
     14 C         -22.9067   -9.9855  -10.4608 C.ar    1  UNL1       -0.0062
     15 C         -23.1588  -10.3225  -11.8291 C.ar    1  UNL1        0.0559
     16 C         -23.8990   -9.2868   -9.5372 C.3     1  UNL1        0.0238
     17 C         -24.8507  -10.3105   -8.9049 C.3     1  UNL1        0.0047
     18 C         -23.2147   -8.4528   -8.4388 C.3     1  UNL1        0.0047
     19 C         -25.6530   -9.7707  -12.2388 C.3     1  UNL1        0.1429
     20 C         -26.0033   -8.4464  -12.9376 C.3     1  UNL1        0.2027
     21 F         -27.3337   -8.4693  -13.3223 F       1  UNL1       -0.2334
     22 C         -25.7530   -7.2511  -12.0037 C.3     1  UNL1        0.1259
     23 N         -24.6948   -6.3822  -12.5203 N.pl3   1  UNL1       -0.3157
     24 H         -24.9583   -5.4107  -12.8027 H       1  UNL1        0.1483
     25 C         -21.5291   -7.7311  -13.8647 C.ar    1  UNL1        0.2261
     26 C         -20.6493   -7.5350  -12.7971 C.ar    1  UNL1        0.0578
     27 C         -21.1200   -6.9512  -11.6205 C.ar    1  UNL1        0.0077
     28 C         -22.4585   -6.5688  -11.5216 C.ar    1  UNL1        0.0343
     29 C         -23.3180   -6.7781  -12.6087 C.ar    1  UNL1        0.1317
     30 N         -22.8336   -7.3536  -13.7445 N.ar    1  UNL1       -0.1969
     31 C         -21.6774   -8.0909  -16.3054 C.3     1  UNL1        0.2542
     32 O         -21.0569   -8.3097  -15.0454 O.3     1  UNL1       -0.4561
@<TRIPOS>BOND
     1    31    32    1
     2    32    25    1
     3    25    26   ar
     4    26    27   ar
     5    27    28   ar
     6    28    29   ar
     7    29    23    1
     8    23    22    1
     9    22    20    1
    10    20    21    1
    11    20    19    1
    12    19     1    1
    13     1     2   ar
    14     2     3   ar
    15     3     4   ar
    16     4     5   ar
    17     5     6    1
    18     5     7   ar
    19     7     8   ar
    20     8     9   ar
    21     9    10   ar
    22    10    11   ar
    23    11    12    1
    24    11    13   ar
    25    13    14   ar
    26    14    16    1
    27    16    17    1
    28    16    18    1
    29    14    15   ar
    30    29    30   ar
    31    30    25   ar
    32    15     1   ar
    33     8     2   ar
    34    15     9   ar
    35    23    24    1
@<TRIPOS>MOLECULE
*****
 32 35 0 0 0
SMALL
GASTEIGER

@<TRIPOS>ATOM
      1 N         -22.6253   -9.0115  -11.1445 N.ar    1  UNL1       -0.3245
      2 C         -21.5755   -9.8434  -10.8976 C.ar    1  UNL1        0.0600
      3 C         -20.4116   -9.5756  -10.1606 C.ar    1  UNL1        0.0177
      4 C         -19.4390  -10.5856  -10.0553 C.ar    1  UNL1        0.0082
      5 C         -19.6299  -11.8334  -10.6847 C.ar    1  UNL1        0.0347
      6 BR        -18.2942  -13.1895  -10.5347 Br      1  UNL1       -0.0490
      7 C         -20.7972  -12.0812  -11.4259 C.ar    1  UNL1        0.0082
      8 C         -21.7475  -11.0628  -11.5060 C.ar    1  UNL1        0.0177
      9 C         -22.9486  -11.0011  -12.1625 C.ar    1  UNL1        0.0174
     10 C         -23.5500  -11.9499  -12.9803 C.ar    1  UNL1        0.0082
     11 C         -24.7528  -11.6128  -13.6000 C.ar    1  UNL1        0.0343
     12 BR        -25.5954  -12.8614  -14.7745 Br      1  UNL1       -0.0490
     13 C         -25.3450  -10.3604  -13.3678 C.ar    1  UNL1        0.0038
     14 C         -24.7678   -9.4089  -12.4833 C.ar    1  UNL1       -0.0062
     15 C         -23.4955   -9.7440  -11.9191 C.ar    1  UNL1        0.0559
     16 C         -25.5182   -8.1056  -12.2310 C.3     1  UNL1        0.0238
     17 C         -26.3124   -7.6973  -13.4784 C.3     1  UNL1        0.0047
     18 C         -26.4526   -8.1757  -11.0093 C.3     1  UNL1        0.0047
     19 C         -22.6898   -7.6134  -10.6923 C.3     1  UNL1        0.1429
     20 C         -22.5111   -6.6425  -11.8714 C.3     1  UNL1        0.2027
     21 F         -23.0598   -5.4144  -11.5409 F       1  UNL1       -0.2334
     22 C         -21.0233   -6.4703  -12.2188 C.3     1  UNL1        0.1259
     23 N         -20.5712   -7.4995  -13.1558 N.pl3   1  UNL1       -0.3157
     24 H         -19.6070   -7.8830  -13.0283 H       1  UNL1        0.1483
     25 C         -23.1706   -7.7611  -15.7679 C.ar    1  UNL1        0.2261
     26 C         -22.9930   -9.0679  -16.2293 C.ar    1  UNL1        0.0578
     27 C         -21.9999   -9.8658  -15.6601 C.ar    1  UNL1        0.0077
     28 C         -21.1958   -9.3534  -14.6411 C.ar    1  UNL1        0.0343
     29 C         -21.3971   -8.0389  -14.1984 C.ar    1  UNL1        0.1317
     30 N         -22.3762   -7.2826  -14.7686 N.ar    1  UNL1       -0.1969
     31 C         -24.0044   -6.3452  -17.6141 C.3     1  UNL1        0.2542
     32 O         -24.1606   -6.9596  -16.3419 O.3     1  UNL1       -0.4561
@<TRIPOS>BOND
     1    31    32    1
     2    32    25    1
     3    25    26   ar
     4    26    27   ar
     5    27    28   ar
     6    28    29   ar
     7    29    23    1
     8    23    22    1
     9    22    20    1
    10    20    21    1
    11    20    19    1
    12    19     1    1
    13     1     2   ar
    14     2     3   ar
    15     3     4   ar
    16     4     5   ar
    17     5     6    1
    18     5     7   ar
    19     7     8   ar
    20     8     9   ar
    21     9    10   ar
    22    10    11   ar
    23    11    12    1
    24    11    13   ar
    25    13    14   ar
    26    14    16    1
    27    16    17    1
    28    16    18    1
    29    14    15   ar
    30    29    30   ar
    31    30    25   ar
    32    15     1   ar
    33     8     2   ar
    34    15     9   ar
    35    23    24    1
@<TRIPOS>MOLECULE
*****
 32 35 0 0 0
SMALL
GASTEIGER

@<TRIPOS>ATOM
      1 N         -23.4802  -10.8725  -11.9741 N.ar    1  UNL1       -0.3245
      2 C         -22.3535  -10.6614  -11.2385 C.ar    1  UNL1        0.0600
      3 C         -22.1809   -9.7993  -10.1447 C.ar    1  UNL1        0.0177
      4 C         -20.9106   -9.7228   -9.5468 C.ar    1  UNL1        0.0082
      5 C         -19.8365  -10.4900  -10.0443 C.ar    1  UNL1        0.0347
      6 BR        -18.1177  -10.3669   -9.2221 Br      1  UNL1       -0.0490
      7 C         -20.0250  -11.3412  -11.1458 C.ar    1  UNL1        0.0082
      8 C         -21.2982  -11.4018  -11.7129 C.ar    1  UNL1        0.0177
      9 C         -21.7730  -12.1066  -12.7878 C.ar    1  UNL1        0.0174
     10 C         -21.0886  -12.9509  -13.6535 C.ar    1  UNL1        0.0082
     11 C         -21.7900  -13.4949  -14.7290 C.ar    1  UNL1        0.0343
     12 BR        -20.8842  -14.6209  -15.9779 Br      1  UNL1       -0.0490
     13 C         -23.1561  -13.2165  -14.8998 C.ar    1  UNL1        0.0038
     14 C         -23.8778  -12.4045  -13.9830 C.ar    1  UNL1       -0.0062
     15 C         -23.1222  -11.7941  -12.9313 C.ar    1  UNL1        0.0559
     16 C         -25.3752  -12.2177  -14.2034 C.3     1  UNL1        0.0238
     17 C         -25.6341  -11.5270  -15.5485 C.3     1  UNL1        0.0047
     18 C         -26.1642  -13.5375  -14.1266 C.3     1  UNL1        0.0047
     19 C         -24.7490  -10.1613  -11.7562 C.3     1  UNL1        0.1429
     20 C         -24.9446   -9.0481  -12.7990 C.3     1  UNL1        0.2027
     21 F         -26.2962   -8.8995  -13.0626 F       1  UNL1       -0.2334
     22 C         -24.3642   -7.7168  -12.2947 C.3     1  UNL1        0.1259
     23 N         -23.0946   -7.4046  -12.9522 N.pl3   1  UNL1       -0.3157
     24 H         -22.4032   -6.8251  -12.4238 H       1  UNL1        0.1483
     25 C         -23.0011   -7.8222  -16.6218 C.ar    1  UNL1        0.2261
     26 C         -22.0371   -8.8212  -16.7792 C.ar    1  UNL1        0.0578
     27 C         -21.4182   -9.3594  -15.6505 C.ar    1  UNL1        0.0077
     28 C         -21.7648   -8.8962  -14.3805 C.ar    1  UNL1        0.0343
     29 C         -22.7356   -7.8933  -14.2531 C.ar    1  UNL1        0.1317
     30 N         -23.3271   -7.3877  -15.3713 N.ar    1  UNL1       -0.1969
     31 C         -24.3301   -6.0495  -17.7172 C.3     1  UNL1        0.2542
     32 O         -23.6165   -7.2784  -17.7520 O.3     1  UNL1       -0.4561
@<TRIPOS>BOND
     1    31    32    1
     2    32    25    1
     3    25    26   ar
     4    26    27   ar
     5    27    28   ar
     6    28    29   ar
     7    29    23    1
     8    23    22    1
     9    22    20    1
    10    20    21    1
    11    20    19    1
    12    19     1    1
    13     1     2   ar
    14     2     3   ar
    15     3     4   ar
    16     4     5   ar
    17     5     6    1
    18     5     7   ar
    19     7     8   ar
    20     8     9   ar
    21     9    10   ar
    22    10    11   ar
    23    11    12    1
    24    11    13   ar
    25    13    14   ar
    26    14    16    1
    27    16    17    1
    28    16    18    1
    29    14    15   ar
    30    29    30   ar
    31    30    25   ar
    32    15     1   ar
    33     8     2   ar
    34    15     9   ar
    35    23    24    1
