@<TRIPOS>MOLECULE
*****
 40 44 0 0 0
SMALL
GASTEIGER

@<TRIPOS>ATOM
      1 C          -9.6716   -9.7713   32.5074 C.3     1  UNL1        0.1333
      2 N          -9.6569  -11.0392   31.7770 N.ar    1  UNL1       -0.2950
      3 C         -10.5293  -12.0815   31.8692 C.ar    1  UNL1        0.2019
      4 N         -10.2796  -13.0822   30.9869 N.ar    1  UNL1       -0.2134
      5 C          -9.1819  -12.6470   30.3431 C.ar    1  UNL1        0.1033
      6 C          -8.4792  -13.3079   29.3383 C.ar    1  UNL1        0.0284
      7 C          -7.3426  -12.6749   28.7855 C.ar    1  UNL1        0.0922
      8 C          -6.9305  -11.4117   29.2931 C.ar    1  UNL1        0.1792
      9 C          -7.6535  -10.7857   30.3306 C.ar    1  UNL1        0.1897
     10 C          -8.7969  -11.4253   30.8162 C.ar    1  UNL1        0.1173
     11 O          -7.1953   -9.5712   30.8509 O.3     1  UNL1       -0.4661
     12 C          -5.8811   -9.0921   30.5581 C.3     1  UNL1        0.2597
     13 C          -5.5224   -9.3971   29.0981 C.3     1  UNL1        0.2596
     14 I          -3.4645   -8.9748   28.7161 I       1  UNL1       -0.0223
     15 O          -5.7862  -10.7701   28.8047 O.3     1  UNL1       -0.4617
     16 C          -6.5943  -13.3511   27.7049 C.2     1  UNL1        0.2526
     17 O          -5.4805  -12.8798   27.3477 O.2     1  UNL1       -0.2697
     18 N          -7.1238  -14.5288   27.0695 N.am    1  UNL1       -0.2803
     19 H          -8.0506  -14.8942   27.3832 H       1  UNL1        0.1552
     20 C          -6.5069  -15.1822   25.9484 C.ar    1  UNL1        0.0506
     21 C          -5.3465  -15.9395   26.1533 C.ar    1  UNL1        0.0170
     22 C          -4.7099  -16.5611   25.0782 C.ar    1  UNL1        0.0309
     23 C          -5.2187  -16.4251   23.7844 C.ar    1  UNL1        0.1441
     24 F          -4.5710  -17.0272   22.7544 F       1  UNL1       -0.2042
     25 C          -6.3772  -15.6598   23.5534 C.ar    1  UNL1        0.1000
     26 C          -7.0038  -15.0232   24.6425 C.ar    1  UNL1        0.0208
     27 C          -6.8927  -15.4845   22.1446 C.3     1  UNL1        0.4207
     28 F          -8.0518  -14.7312   22.1723 F       1  UNL1       -0.1658
     29 F          -5.9461  -14.8292   21.3773 F       1  UNL1       -0.1658
     30 F          -7.1682  -16.7019   21.5458 F       1  UNL1       -0.1658
     31 N         -11.6230  -12.1454   32.7950 N.pl3   1  UNL1       -0.2814
     32 H         -12.0010  -11.2407   33.1552 H       1  UNL1        0.1551
     33 C         -12.3241  -13.3570   33.1253 C.ar    1  UNL1        0.0889
     34 C         -13.4594  -13.7608   32.3922 C.ar    1  UNL1        0.1543
     35 F         -13.9340  -13.0050   31.3701 F       1  UNL1       -0.2028
     36 C         -14.1339  -14.9373   32.7312 C.ar    1  UNL1        0.0310
     37 C         -13.6955  -15.7142   33.8045 C.ar    1  UNL1        0.0033
     38 C         -12.5834  -15.3148   34.5479 C.ar    1  UNL1        0.0128
     39 C         -11.8995  -14.1389   34.2184 C.ar    1  UNL1        0.0733
     40 CL        -10.4873  -13.6894   35.1656 Cl      1  UNL1       -0.0809
@<TRIPOS>BOND
     1     1     2    1
     2     2     3   ar
     3     3    31    1
     4    31    33    1
     5    33    34   ar
     6    34    35    1
     7    34    36   ar
     8    36    37   ar
     9    37    38   ar
    10    38    39   ar
    11    39    40    1
    12     3     4   ar
    13     4     5   ar
    14     5     6   ar
    15     6     7   ar
    16     7    16    1
    17    16    17    2
    18    16    18   am
    19    18    20    1
    20    20    21   ar
    21    21    22   ar
    22    22    23   ar
    23    23    24    1
    24    23    25   ar
    25    25    27    1
    26    27    28    1
    27    27    29    1
    28    27    30    1
    29    25    26   ar
    30     7     8   ar
    31     8     9   ar
    32     9    10   ar
    33     9    11    1
    34    11    12    1
    35    12    13    1
    36    13    14    1
    37    13    15    1
    38    10     2   ar
    39    39    33   ar
    40    10     5   ar
    41    26    20   ar
    42    15     8    1
    43    31    32    1
    44    18    19    1
@<TRIPOS>MOLECULE
*****
 40 44 0 0 0
SMALL
GASTEIGER

@<TRIPOS>ATOM
      1 C          -9.2358  -15.1022   27.8650 C.3     1  UNL1        0.1333
      2 N          -7.8831  -14.7699   27.4166 N.ar    1  UNL1       -0.2950
      3 C          -6.9438  -14.0092   28.0452 C.ar    1  UNL1        0.2019
      4 N          -5.7527  -13.9656   27.3960 N.ar    1  UNL1       -0.2134
      5 C          -5.9816  -14.7103   26.2996 C.ar    1  UNL1        0.1033
      6 C          -5.0893  -14.9786   25.2643 C.ar    1  UNL1        0.0284
      7 C          -5.5271  -15.7909   24.1935 C.ar    1  UNL1        0.0922
      8 C          -6.8650  -16.2738   24.1849 C.ar    1  UNL1        0.1792
      9 C          -7.7478  -15.9581   25.2394 C.ar    1  UNL1        0.1897
     10 C          -7.2598  -15.1905   26.3001 C.ar    1  UNL1        0.1173
     11 O          -9.0741  -16.3975   25.1794 O.3     1  UNL1       -0.4661
     12 C          -9.6268  -16.9112   23.9658 C.3     1  UNL1        0.2597
     13 C          -8.5836  -17.7621   23.2305 C.3     1  UNL1        0.2596
     14 I          -9.2692  -18.2867   21.2776 I       1  UNL1       -0.0223
     15 O          -7.3529  -17.0448   23.1231 O.3     1  UNL1       -0.4617
     16 C          -4.5893  -16.1033   23.0945 C.2     1  UNL1        0.2526
     17 O          -4.9837  -15.9793   21.9032 O.2     1  UNL1       -0.2697
     18 N          -3.2472  -16.5406   23.3752 N.am    1  UNL1       -0.2803
     19 H          -2.9497  -16.6382   24.3715 H       1  UNL1        0.1552
     20 C          -2.3119  -16.9580   22.3677 C.ar    1  UNL1        0.0506
     21 C          -2.0742  -16.1229   21.2686 C.ar    1  UNL1        0.0170
     22 C          -1.1927  -16.5158   20.2606 C.ar    1  UNL1        0.0309
     23 C          -0.5462  -17.7520   20.3331 C.ar    1  UNL1        0.1441
     24 F           0.2942  -18.1165   19.3312 F       1  UNL1       -0.2042
     25 C          -0.7783  -18.6123   21.4227 C.ar    1  UNL1        0.1000
     26 C          -1.6816  -18.2138   22.4273 C.ar    1  UNL1        0.0208
     27 C          -0.1068  -19.9644   21.4682 C.3     1  UNL1        0.4207
     28 F           0.5752  -20.1763   20.2843 F       1  UNL1       -0.1658
     29 F           0.7904  -20.0069   22.5205 F       1  UNL1       -0.1658
     30 F          -1.0253  -20.9858   21.6408 F       1  UNL1       -0.1658
     31 N          -7.1575  -13.3120   29.2803 N.pl3   1  UNL1       -0.2814
     32 H          -7.0404  -13.8549   30.1649 H       1  UNL1        0.1551
     33 C          -7.3610  -11.8913   29.3741 C.ar    1  UNL1        0.0889
     34 C          -6.2983  -10.9903   29.1543 C.ar    1  UNL1        0.1543
     35 F          -5.0501  -11.4407   28.8709 F       1  UNL1       -0.2028
     36 C          -6.5113   -9.6126   29.2569 C.ar    1  UNL1        0.0310
     37 C          -7.7741   -9.1197   29.5889 C.ar    1  UNL1        0.0033
     38 C          -8.8289  -10.0030   29.8257 C.ar    1  UNL1        0.0128
     39 C          -8.6283  -11.3847   29.7261 C.ar    1  UNL1        0.0733
     40 CL         -9.9928  -12.4587   30.0060 Cl      1  UNL1       -0.0809
@<TRIPOS>BOND
     1     1     2    1
     2     2     3   ar
     3     3    31    1
     4    31    33    1
     5    33    34   ar
     6    34    35    1
     7    34    36   ar
     8    36    37   ar
     9    37    38   ar
    10    38    39   ar
    11    39    40    1
    12     3     4   ar
    13     4     5   ar
    14     5     6   ar
    15     6     7   ar
    16     7    16    1
    17    16    17    2
    18    16    18   am
    19    18    20    1
    20    20    21   ar
    21    21    22   ar
    22    22    23   ar
    23    23    24    1
    24    23    25   ar
    25    25    27    1
    26    27    28    1
    27    27    29    1
    28    27    30    1
    29    25    26   ar
    30     7     8   ar
    31     8     9   ar
    32     9    10   ar
    33     9    11    1
    34    11    12    1
    35    12    13    1
    36    13    14    1
    37    13    15    1
    38    10     2   ar
    39    39    33   ar
    40    10     5   ar
    41    26    20   ar
    42    15     8    1
    43    31    32    1
    44    18    19    1
@<TRIPOS>MOLECULE
*****
 40 44 0 0 0
SMALL
GASTEIGER

@<TRIPOS>ATOM
      1 C          -9.4454  -10.2421   32.6616 C.3     1  UNL1        0.1333
      2 N          -9.6682  -11.4485   31.8640 N.ar    1  UNL1       -0.2950
      3 C         -10.6783  -12.3573   31.9644 C.ar    1  UNL1        0.2019
      4 N         -10.6395  -13.3240   31.0125 N.ar    1  UNL1       -0.2134
      5 C          -9.5343  -13.0113   30.3127 C.ar    1  UNL1        0.1033
      6 C          -9.0061  -13.7001   29.2234 C.ar    1  UNL1        0.0284
      7 C          -7.8270  -13.2037   28.6222 C.ar    1  UNL1        0.0922
      8 C          -7.1985  -12.0493   29.1657 C.ar    1  UNL1        0.1792
      9 C          -7.7497  -11.3941   30.2872 C.ar    1  UNL1        0.1897
     10 C          -8.9410  -11.8917   30.8216 C.ar    1  UNL1        0.1173
     11 O          -7.0821  -10.2952   30.8372 O.3     1  UNL1       -0.4661
     12 C          -5.7336   -9.9934   30.4731 C.3     1  UNL1        0.2597
     13 C          -5.5219  -10.2514   28.9759 C.3     1  UNL1        0.2596
     14 I          -3.4539  -10.1075   28.4640 I       1  UNL1       -0.0223
     15 O          -6.0062  -11.5496   28.6285 O.3     1  UNL1       -0.4617
     16 C          -7.2610  -13.9093   27.4531 C.2     1  UNL1        0.2526
     17 O          -6.0159  -13.8649   27.2585 O.2     1  UNL1       -0.2697
     18 N          -8.1133  -14.6372   26.5503 N.am    1  UNL1       -0.2803
     19 H          -9.1413  -14.6532   26.7342 H       1  UNL1        0.1552
     20 C          -7.6538  -15.2623   25.3410 C.ar    1  UNL1        0.0506
     21 C          -8.5637  -15.4867   24.3000 C.ar    1  UNL1        0.0170
     22 C          -8.1516  -16.1180   23.1256 C.ar    1  UNL1        0.0309
     23 C          -6.8285  -16.5421   22.9812 C.ar    1  UNL1        0.1441
     24 F          -6.4579  -17.1678   21.8349 F       1  UNL1       -0.2042
     25 C          -5.8995  -16.3372   24.0187 C.ar    1  UNL1        0.1000
     26 C          -6.3286  -15.7132   25.2064 C.ar    1  UNL1        0.0208
     27 C          -4.4829  -16.8389   23.8681 C.3     1  UNL1        0.4207
     28 F          -3.8988  -16.9411   25.1171 F       1  UNL1       -0.1658
     29 F          -4.4887  -18.0857   23.2684 F       1  UNL1       -0.1658
     30 F          -3.7190  -15.9871   23.0887 F       1  UNL1       -0.1658
     31 N         -11.7054  -12.3223   32.9648 N.pl3   1  UNL1       -0.2814
     32 H         -11.9226  -11.3971   33.3982 H       1  UNL1        0.1551
     33 C         -12.5521  -13.4403   33.2840 C.ar    1  UNL1        0.0889
     34 C         -13.7477  -13.6711   32.5721 C.ar    1  UNL1        0.1543
     35 F         -14.1424  -12.8315   31.5820 F       1  UNL1       -0.2028
     36 C         -14.5632  -14.7581   32.9001 C.ar    1  UNL1        0.0310
     37 C         -14.2058  -15.6154   33.9417 C.ar    1  UNL1        0.0033
     38 C         -13.0337  -15.3861   34.6646 C.ar    1  UNL1        0.0128
     39 C         -12.2087  -14.3013   34.3458 C.ar    1  UNL1        0.0733
     40 CL        -10.7278  -14.0674   35.2654 Cl      1  UNL1       -0.0809
@<TRIPOS>BOND
     1     1     2    1
     2     2     3   ar
     3     3    31    1
     4    31    33    1
     5    33    34   ar
     6    34    35    1
     7    34    36   ar
     8    36    37   ar
     9    37    38   ar
    10    38    39   ar
    11    39    40    1
    12     3     4   ar
    13     4     5   ar
    14     5     6   ar
    15     6     7   ar
    16     7    16    1
    17    16    17    2
    18    16    18   am
    19    18    20    1
    20    20    21   ar
    21    21    22   ar
    22    22    23   ar
    23    23    24    1
    24    23    25   ar
    25    25    27    1
    26    27    28    1
    27    27    29    1
    28    27    30    1
    29    25    26   ar
    30     7     8   ar
    31     8     9   ar
    32     9    10   ar
    33     9    11    1
    34    11    12    1
    35    12    13    1
    36    13    14    1
    37    13    15    1
    38    10     2   ar
    39    39    33   ar
    40    10     5   ar
    41    26    20   ar
    42    15     8    1
    43    31    32    1
    44    18    19    1
@<TRIPOS>MOLECULE
*****
 40 44 0 0 0
SMALL
GASTEIGER

@<TRIPOS>ATOM
      1 C          -5.7871  -15.5482   26.7166 C.3     1  UNL1        0.1333
      2 N          -7.1379  -15.2614   27.2008 N.ar    1  UNL1       -0.2950
      3 C          -8.2661  -16.0124   27.0622 C.ar    1  UNL1        0.2019
      4 N          -9.3458  -15.4995   27.7050 N.ar    1  UNL1       -0.2134
      5 C          -8.8647  -14.3623   28.2383 C.ar    1  UNL1        0.1033
      6 C          -9.5671  -13.4235   28.9902 C.ar    1  UNL1        0.0284
      7 C          -8.8732  -12.2867   29.4638 C.ar    1  UNL1        0.0922
      8 C          -7.5012  -12.1164   29.1293 C.ar    1  UNL1        0.1792
      9 C          -6.8307  -13.0768   28.3426 C.ar    1  UNL1        0.1897
     10 C          -7.5425  -14.2077   27.9342 C.ar    1  UNL1        0.1173
     11 O          -5.4979  -12.8582   27.9801 O.3     1  UNL1       -0.4661
     12 C          -4.8890  -11.5761   28.1464 C.3     1  UNL1        0.2597
     13 C          -5.3625  -10.9340   29.4566 C.3     1  UNL1        0.2596
     14 I          -4.7178   -8.9025   29.5848 I       1  UNL1       -0.0223
     15 O          -6.7876  -10.9844   29.5406 O.3     1  UNL1       -0.4617
     16 C          -9.5958  -11.2882   30.2797 C.2     1  UNL1        0.2526
     17 O          -9.7827  -11.5223   31.5046 O.2     1  UNL1       -0.2697
     18 N         -10.0784  -10.0673   29.6900 N.am    1  UNL1       -0.2803
     19 H          -9.9127   -9.9023   28.6721 H       1  UNL1        0.1552
     20 C         -10.8737   -9.0973   30.3905 C.ar    1  UNL1        0.0506
     21 C         -12.0107   -9.5227   31.0892 C.ar    1  UNL1        0.0170
     22 C         -12.8177   -8.5986   31.7544 C.ar    1  UNL1        0.0309
     23 C         -12.5046   -7.2377   31.7208 C.ar    1  UNL1        0.1441
     24 F         -13.3152   -6.3584   32.3632 F       1  UNL1       -0.2042
     25 C         -11.3731   -6.7862   31.0157 C.ar    1  UNL1        0.1000
     26 C         -10.5735   -7.7245   30.3344 C.ar    1  UNL1        0.0208
     27 C         -11.0694   -5.3081   30.9506 C.3     1  UNL1        0.4207
     28 F         -11.6267   -4.6780   32.0479 F       1  UNL1       -0.1658
     29 F          -9.7002   -5.1101   30.9628 F       1  UNL1       -0.1658
     30 F         -11.5800   -4.7314   29.8003 F       1  UNL1       -0.1658
     31 N          -8.3398  -17.2373   26.3197 N.pl3   1  UNL1       -0.2814
     32 H          -7.8236  -18.0617   26.7004 H       1  UNL1        0.1551
     33 C          -9.2022  -17.4370   25.1861 C.ar    1  UNL1        0.0889
     34 C          -9.9798  -18.6075   25.0637 C.ar    1  UNL1        0.1543
     35 F          -9.9177  -19.5866   26.0010 F       1  UNL1       -0.2028
     36 C         -10.8071  -18.7894   23.9517 C.ar    1  UNL1        0.0310
     37 C         -10.8605  -17.8196   22.9495 C.ar    1  UNL1        0.0033
     38 C         -10.0818  -16.6655   23.0518 C.ar    1  UNL1        0.0128
     39 C          -9.2495  -16.4716   24.1604 C.ar    1  UNL1        0.0733
     40 CL         -8.3074  -14.9897   24.2603 Cl      1  UNL1       -0.0809
@<TRIPOS>BOND
     1     1     2    1
     2     2     3   ar
     3     3    31    1
     4    31    33    1
     5    33    34   ar
     6    34    35    1
     7    34    36   ar
     8    36    37   ar
     9    37    38   ar
    10    38    39   ar
    11    39    40    1
    12     3     4   ar
    13     4     5   ar
    14     5     6   ar
    15     6     7   ar
    16     7    16    1
    17    16    17    2
    18    16    18   am
    19    18    20    1
    20    20    21   ar
    21    21    22   ar
    22    22    23   ar
    23    23    24    1
    24    23    25   ar
    25    25    27    1
    26    27    28    1
    27    27    29    1
    28    27    30    1
    29    25    26   ar
    30     7     8   ar
    31     8     9   ar
    32     9    10   ar
    33     9    11    1
    34    11    12    1
    35    12    13    1
    36    13    14    1
    37    13    15    1
    38    10     2   ar
    39    39    33   ar
    40    10     5   ar
    41    26    20   ar
    42    15     8    1
    43    31    32    1
    44    18    19    1
@<TRIPOS>MOLECULE
*****
 40 44 0 0 0
SMALL
GASTEIGER

@<TRIPOS>ATOM
      1 C          -9.1924  -10.1363   34.5472 C.3     1  UNL1        0.1333
      2 N          -8.7259  -10.1880   33.1613 N.ar    1  UNL1       -0.2950
      3 C          -7.8230   -9.3793   32.5393 C.ar    1  UNL1        0.2019
      4 N          -7.5463   -9.7498   31.2632 N.ar    1  UNL1       -0.2134
      5 C          -8.3414  -10.8195   31.0828 C.ar    1  UNL1        0.1033
      6 C          -8.4740  -11.5826   29.9251 C.ar    1  UNL1        0.0284
      7 C          -9.3698  -12.6760   29.9401 C.ar    1  UNL1        0.0922
      8 C         -10.1313  -12.9391   31.1123 C.ar    1  UNL1        0.1792
      9 C          -9.9885  -12.1267   32.2571 C.ar    1  UNL1        0.1897
     10 C          -9.0584  -11.0849   32.2142 C.ar    1  UNL1        0.1173
     11 O         -10.7896  -12.3714   33.3769 O.3     1  UNL1       -0.4661
     12 C         -11.9282  -13.2312   33.2958 C.3     1  UNL1        0.2597
     13 C         -11.6184  -14.4319   32.3928 C.3     1  UNL1        0.2596
     14 I         -13.3845  -15.5671   32.0039 I       1  UNL1       -0.0223
     15 O         -11.0613  -13.9846   31.1557 O.3     1  UNL1       -0.4617
     16 C          -9.5108  -13.5100   28.7278 C.2     1  UNL1        0.2526
     17 O         -10.5310  -13.3619   28.0016 O.2     1  UNL1       -0.2697
     18 N          -8.5020  -14.4749   28.3778 N.am    1  UNL1       -0.2803
     19 H          -7.6698  -14.5785   29.0003 H       1  UNL1        0.1552
     20 C          -8.6142  -15.3895   27.2755 C.ar    1  UNL1        0.0506
     21 C          -9.0488  -16.6991   27.5163 C.ar    1  UNL1        0.0170
     22 C          -9.1396  -17.6169   26.4690 C.ar    1  UNL1        0.0309
     23 C          -8.7872  -17.2408   25.1706 C.ar    1  UNL1        0.1441
     24 F          -8.8697  -18.1577   24.1730 F       1  UNL1       -0.2042
     25 C          -8.3373  -15.9333   24.9072 C.ar    1  UNL1        0.1000
     26 C          -8.2341  -15.0186   25.9733 C.ar    1  UNL1        0.0208
     27 C          -7.9181  -15.5513   23.5073 C.3     1  UNL1        0.4207
     28 F          -7.5775  -14.2115   23.4816 F       1  UNL1       -0.1658
     29 F          -6.8219  -16.3037   23.1247 F       1  UNL1       -0.1658
     30 F          -8.9337  -15.7693   22.5921 F       1  UNL1       -0.1658
     31 N          -7.1997   -8.2398   33.1476 N.pl3   1  UNL1       -0.2814
     32 H          -7.4669   -8.0143   34.1318 H       1  UNL1        0.1551
     33 C          -6.1242   -7.4980   32.5462 C.ar    1  UNL1        0.0889
     34 C          -4.8535   -7.4398   33.1558 C.ar    1  UNL1        0.1543
     35 F          -4.6185   -8.0634   34.3378 F       1  UNL1       -0.2028
     36 C          -3.8211   -6.7080   32.5620 C.ar    1  UNL1        0.0310
     37 C          -4.0439   -6.0205   31.3681 C.ar    1  UNL1        0.0033
     38 C          -5.3025   -6.0568   30.7652 C.ar    1  UNL1        0.0128
     39 C          -6.3444   -6.7861   31.3499 C.ar    1  UNL1        0.0733
     40 CL         -7.9054   -6.8260   30.5405 Cl      1  UNL1       -0.0809
@<TRIPOS>BOND
     1     1     2    1
     2     2     3   ar
     3     3    31    1
     4    31    33    1
     5    33    34   ar
     6    34    35    1
     7    34    36   ar
     8    36    37   ar
     9    37    38   ar
    10    38    39   ar
    11    39    40    1
    12     3     4   ar
    13     4     5   ar
    14     5     6   ar
    15     6     7   ar
    16     7    16    1
    17    16    17    2
    18    16    18   am
    19    18    20    1
    20    20    21   ar
    21    21    22   ar
    22    22    23   ar
    23    23    24    1
    24    23    25   ar
    25    25    27    1
    26    27    28    1
    27    27    29    1
    28    27    30    1
    29    25    26   ar
    30     7     8   ar
    31     8     9   ar
    32     9    10   ar
    33     9    11    1
    34    11    12    1
    35    12    13    1
    36    13    14    1
    37    13    15    1
    38    10     2   ar
    39    39    33   ar
    40    10     5   ar
    41    26    20   ar
    42    15     8    1
    43    31    32    1
    44    18    19    1
@<TRIPOS>MOLECULE
*****
 40 44 0 0 0
SMALL
GASTEIGER

@<TRIPOS>ATOM
      1 C          -9.3959  -10.0974   34.2780 C.3     1  UNL1        0.1333
      2 N          -8.9911  -10.1336   32.8723 N.ar    1  UNL1       -0.2950
      3 C          -8.2045   -9.2527   32.1931 C.ar    1  UNL1        0.2019
      4 N          -7.9510   -9.6225   30.9120 N.ar    1  UNL1       -0.2134
      5 C          -8.6411  -10.7703   30.7894 C.ar    1  UNL1        0.1033
      6 C          -8.7491  -11.5690   29.6533 C.ar    1  UNL1        0.0284
      7 C          -9.5280  -12.7461   29.7311 C.ar    1  UNL1        0.0922
      8 C         -10.2039  -13.0575   30.9432 C.ar    1  UNL1        0.1792
      9 C         -10.0913  -12.2091   32.0650 C.ar    1  UNL1        0.1897
     10 C          -9.2745  -11.0805   31.9586 C.ar    1  UNL1        0.1173
     11 O         -10.8109  -12.5074   33.2264 O.3     1  UNL1       -0.4661
     12 C         -11.8592  -13.4787   33.2158 C.3     1  UNL1        0.2597
     13 C         -11.4714  -14.6624   32.3206 C.3     1  UNL1        0.2596
     14 I         -13.1295  -15.9776   32.0377 I       1  UNL1       -0.0223
     15 O         -11.0203  -14.1897   31.0502 O.3     1  UNL1       -0.4617
     16 C          -9.6397  -13.6172   28.5421 C.2     1  UNL1        0.2526
     17 O         -10.6479  -13.5006   27.7938 O.2     1  UNL1       -0.2697
     18 N          -8.6162  -14.5827   28.2394 N.am    1  UNL1       -0.2803
     19 H          -7.7945  -14.6598   28.8794 H       1  UNL1        0.1552
     20 C          -8.7004  -15.5309   27.1633 C.ar    1  UNL1        0.0506
     21 C          -9.0678  -16.8529   27.4452 C.ar    1  UNL1        0.0170
     22 C          -9.1296  -17.8018   26.4238 C.ar    1  UNL1        0.0309
     23 C          -8.8148  -17.4443   25.1106 C.ar    1  UNL1        0.1441
     24 F          -8.8677  -18.3907   24.1388 F       1  UNL1       -0.2042
     25 C          -8.4323  -16.1244   24.8059 C.ar    1  UNL1        0.1000
     26 C          -8.3577  -15.1775   25.8459 C.ar    1  UNL1        0.0208
     27 C          -8.0527  -15.7606   23.3900 C.3     1  UNL1        0.4207
     28 F          -7.6724  -14.4320   23.3456 F       1  UNL1       -0.1658
     29 F          -6.9946  -16.5477   22.9716 F       1  UNL1       -0.1658
     30 F          -9.1070  -15.9506   22.5131 F       1  UNL1       -0.1658
     31 N          -7.6723   -8.0429   32.7500 N.pl3   1  UNL1       -0.2814
     32 H          -7.5379   -8.0090   33.7853 H       1  UNL1        0.1551
     33 C          -7.1686   -6.9508   31.9612 C.ar    1  UNL1        0.0889
     34 C          -8.0437   -5.9977   31.3995 C.ar    1  UNL1        0.1543
     35 F          -9.3861   -6.0988   31.5695 F       1  UNL1       -0.2028
     36 C          -7.5385   -4.9466   30.6290 C.ar    1  UNL1        0.0310
     37 C          -6.1659   -4.8396   30.4005 C.ar    1  UNL1        0.0033
     38 C          -5.2922   -5.7872   30.9369 C.ar    1  UNL1        0.0128
     39 C          -5.7858   -6.8443   31.7102 C.ar    1  UNL1        0.0733
     40 CL         -4.6455   -7.9988   32.3887 Cl      1  UNL1       -0.0809
@<TRIPOS>BOND
     1     1     2    1
     2     2     3   ar
     3     3    31    1
     4    31    33    1
     5    33    34   ar
     6    34    35    1
     7    34    36   ar
     8    36    37   ar
     9    37    38   ar
    10    38    39   ar
    11    39    40    1
    12     3     4   ar
    13     4     5   ar
    14     5     6   ar
    15     6     7   ar
    16     7    16    1
    17    16    17    2
    18    16    18   am
    19    18    20    1
    20    20    21   ar
    21    21    22   ar
    22    22    23   ar
    23    23    24    1
    24    23    25   ar
    25    25    27    1
    26    27    28    1
    27    27    29    1
    28    27    30    1
    29    25    26   ar
    30     7     8   ar
    31     8     9   ar
    32     9    10   ar
    33     9    11    1
    34    11    12    1
    35    12    13    1
    36    13    14    1
    37    13    15    1
    38    10     2   ar
    39    39    33   ar
    40    10     5   ar
    41    26    20   ar
    42    15     8    1
    43    31    32    1
    44    18    19    1
@<TRIPOS>MOLECULE
*****
 40 44 0 0 0
SMALL
GASTEIGER

@<TRIPOS>ATOM
      1 C         -10.4246   -9.8321   33.2471 C.3     1  UNL1        0.1333
      2 N          -9.7479  -10.0920   31.9759 N.ar    1  UNL1       -0.2950
      3 C          -8.9368   -9.2626   31.2615 C.ar    1  UNL1        0.2019
      4 N          -8.3982   -9.8424   30.1588 N.ar    1  UNL1       -0.2134
      5 C          -8.9292  -11.0779   30.1803 C.ar    1  UNL1        0.1033
      6 C          -8.7278  -12.0957   29.2510 C.ar    1  UNL1        0.0284
      7 C          -9.3818  -13.3319   29.4561 C.ar    1  UNL1        0.0922
      8 C         -10.2488  -13.4866   30.5731 C.ar    1  UNL1        0.1792
      9 C         -10.4480  -12.4227   31.4784 C.ar    1  UNL1        0.1897
     10 C          -9.7463  -11.2338   31.2631 C.ar    1  UNL1        0.1173
     11 O         -11.3489  -12.5810   32.5363 O.3     1  UNL1       -0.4661
     12 C         -12.2692  -13.6739   32.5643 C.3     1  UNL1        0.2597
     13 C         -11.5927  -14.9458   32.0373 C.3     1  UNL1        0.2596
     14 I         -13.0184  -16.5139   31.7769 I       1  UNL1       -0.0223
     15 O         -10.9498  -14.6787   30.7899 O.3     1  UNL1       -0.4617
     16 C          -9.1661  -14.4312   28.4918 C.2     1  UNL1        0.2526
     17 O          -9.2133  -15.6218   28.9043 O.2     1  UNL1       -0.2697
     18 N          -8.9078  -14.1515   27.1038 N.am    1  UNL1       -0.2803
     19 H          -8.8704  -13.1556   26.7915 H       1  UNL1        0.1552
     20 C          -8.5896  -15.1570   26.1282 C.ar    1  UNL1        0.0506
     21 C          -7.4487  -14.9983   25.3312 C.ar    1  UNL1        0.0170
     22 C          -7.1314  -15.9447   24.3559 C.ar    1  UNL1        0.0309
     23 C          -7.9554  -17.0551   24.1578 C.ar    1  UNL1        0.1441
     24 F          -7.6321  -17.9522   23.1916 F       1  UNL1       -0.2042
     25 C          -9.1130  -17.2292   24.9394 C.ar    1  UNL1        0.1000
     26 C          -9.4335  -16.2607   25.9106 C.ar    1  UNL1        0.0208
     27 C         -10.0190  -18.4109   24.6865 C.3     1  UNL1        0.4207
     28 F          -9.9099  -19.3038   25.7365 F       1  UNL1       -0.1658
     29 F         -11.3313  -17.9833   24.5914 F       1  UNL1       -0.1658
     30 F          -9.6904  -19.0648   23.5113 F       1  UNL1       -0.1658
     31 N          -8.6522   -7.9022   31.6157 N.pl3   1  UNL1       -0.2814
     32 H          -7.8778   -7.7350   32.2964 H       1  UNL1        0.1551
     33 C          -9.2538   -6.7641   30.9744 C.ar    1  UNL1        0.0889
     34 C         -10.6560   -6.6320   30.8975 C.ar    1  UNL1        0.1543
     35 F         -11.4748   -7.5868   31.4066 F       1  UNL1       -0.2028
     36 C         -11.2246   -5.5233   30.2639 C.ar    1  UNL1        0.0310
     37 C         -10.4088   -4.5454   29.6930 C.ar    1  UNL1        0.0033
     38 C          -9.0199   -4.6748   29.7478 C.ar    1  UNL1        0.0128
     39 C          -8.4384   -5.7803   30.3794 C.ar    1  UNL1        0.0733
     40 CL         -6.6843   -5.8877   30.4485 Cl      1  UNL1       -0.0809
@<TRIPOS>BOND
     1     1     2    1
     2     2     3   ar
     3     3    31    1
     4    31    33    1
     5    33    34   ar
     6    34    35    1
     7    34    36   ar
     8    36    37   ar
     9    37    38   ar
    10    38    39   ar
    11    39    40    1
    12     3     4   ar
    13     4     5   ar
    14     5     6   ar
    15     6     7   ar
    16     7    16    1
    17    16    17    2
    18    16    18   am
    19    18    20    1
    20    20    21   ar
    21    21    22   ar
    22    22    23   ar
    23    23    24    1
    24    23    25   ar
    25    25    27    1
    26    27    28    1
    27    27    29    1
    28    27    30    1
    29    25    26   ar
    30     7     8   ar
    31     8     9   ar
    32     9    10   ar
    33     9    11    1
    34    11    12    1
    35    12    13    1
    36    13    14    1
    37    13    15    1
    38    10     2   ar
    39    39    33   ar
    40    10     5   ar
    41    26    20   ar
    42    15     8    1
    43    31    32    1
    44    18    19    1
