@<TRIPOS>MOLECULE
*****
 42 46 0 0 0
SMALL
GASTEIGER

@<TRIPOS>ATOM
      1 C         -27.9033   51.2616   -6.5324 C.ar    1  UNL1        0.1649
      2 C         -27.7935   51.3304   -7.9543 C.ar    1  UNL1        0.1226
      3 C         -28.8927   50.9054   -8.7373 C.ar    1  UNL1        0.1430
      4 C         -30.0598   50.4577   -8.1790 C.ar    1  UNL1        0.0327
      5 C         -30.1720   50.4158   -6.7988 C.ar    1  UNL1        0.0785
      6 N         -31.2060   50.0173   -6.0489 N.ar    1  UNL1       -0.3254
      7 C         -30.7524   50.1741   -4.7830 C.ar    1  UNL1        0.1985
      8 N         -29.4851   50.6609   -4.7055 N.ar    1  UNL1       -0.2106
      9 C         -29.1330   50.8044   -5.9968 C.ar    1  UNL1        0.1335
     10 C         -31.0402   50.0911   -9.2316 C.3     1  UNL1        0.0709
     11 C         -30.2474   50.4019  -10.5455 C.3     1  UNL1        0.1375
     12 C         -30.0451   49.1347  -11.3870 C.3     1  UNL1        0.0439
     13 C         -30.9456   51.4886  -11.3738 C.3     1  UNL1        0.0439
     14 O         -28.9713   50.8876  -10.1147 O.3     1  UNL1       -0.4823
     15 H         -32.1374   49.6656   -6.3641 H       1  UNL1        0.1686
     16 C         -26.5623   51.8083   -8.6175 C.2     1  UNL1        0.2555
     17 O         -26.5968   52.8864   -9.2708 O.2     1  UNL1       -0.2696
     18 N         -25.3385   51.0601   -8.5183 N.am    1  UNL1       -0.2805
     19 H         -25.3301   50.1827   -7.9523 H       1  UNL1        0.1552
     20 C         -24.1282   51.4298   -9.2006 C.ar    1  UNL1        0.0465
     21 C         -22.9948   51.8167   -8.4680 C.ar    1  UNL1        0.0143
     22 C         -21.8036   52.1404   -9.1192 C.ar    1  UNL1        0.0051
     23 C         -21.7209   52.0897  -10.5190 C.ar    1  UNL1        0.0712
     24 C         -22.8395   51.6616  -11.2532 C.ar    1  UNL1        0.0008
     25 C         -24.0467   51.3438  -10.6077 C.ar    1  UNL1       -0.0084
     26 C         -25.2316   50.9018  -11.4236 C.3     1  UNL1        0.0323
     27 C         -20.4180   52.3862  -11.2187 C.3     1  UNL1        0.4186
     28 F         -20.6295   53.3530  -12.1838 F       1  UNL1       -0.1659
     29 F         -19.9157   51.2471  -11.8240 F       1  UNL1       -0.1659
     30 F         -19.4745   52.8477  -10.3171 F       1  UNL1       -0.1659
     31 C         -26.4028   50.9522   -4.5391 C.3     1  UNL1        0.2525
     32 O         -26.7994   51.6123   -5.7357 O.3     1  UNL1       -0.4696
     33 N         -31.5508   49.8769   -3.6316 N.pl3   1  UNL1       -0.2816
     34 H         -32.4650   50.3716   -3.5258 H       1  UNL1        0.1551
     35 C         -31.0341   49.1444   -2.5119 C.ar    1  UNL1        0.0889
     36 C         -31.0735   49.7255   -1.2340 C.ar    1  UNL1        0.1543
     37 F         -31.5840   50.9712   -1.0650 F       1  UNL1       -0.2028
     38 C         -30.5667   49.0348   -0.1294 C.ar    1  UNL1        0.0310
     39 C         -30.0303   47.7556   -0.2888 C.ar    1  UNL1        0.0033
     40 C         -30.0096   47.1580   -1.5511 C.ar    1  UNL1        0.0128
     41 C         -30.5148   47.8406   -2.6643 C.ar    1  UNL1        0.0733
     42 CL        -30.5529   47.0068   -4.2136 Cl      1  UNL1       -0.0809
@<TRIPOS>BOND
     1    31    32    1
     2    32     1    1
     3     1     2   ar
     4     2    16    1
     5    16    17    2
     6    16    18   am
     7    18    20    1
     8    20    21   ar
     9    21    22   ar
    10    22    23   ar
    11    23    27    1
    12    27    28    1
    13    27    29    1
    14    27    30    1
    15    23    24   ar
    16    24    25   ar
    17    25    26    1
    18     2     3   ar
    19     3     4   ar
    20     4     5   ar
    21     5     6   ar
    22     6     7   ar
    23     7    33    1
    24    33    35    1
    25    35    36   ar
    26    36    37    1
    27    36    38   ar
    28    38    39   ar
    29    39    40   ar
    30    40    41   ar
    31    41    42    1
    32     7     8   ar
    33     8     9   ar
    34     4    10    1
    35    10    11    1
    36    11    12    1
    37    11    13    1
    38    11    14    1
    39     9     1   ar
    40    25    20   ar
    41    14     3    1
    42     9     5   ar
    43    41    35   ar
    44    18    19    1
    45     6    15    1
    46    33    34    1
@<TRIPOS>MOLECULE
*****
 42 46 0 0 0
SMALL
GASTEIGER

@<TRIPOS>ATOM
      1 C         -27.7027   49.0410   -5.7939 C.ar    1  UNL1        0.1649
      2 C         -27.4262   48.6715   -7.1451 C.ar    1  UNL1        0.1226
      3 C         -28.3422   47.8259   -7.8143 C.ar    1  UNL1        0.1430
      4 C         -29.4904   47.3746   -7.2206 C.ar    1  UNL1        0.0327
      5 C         -29.7679   47.7554   -5.9179 C.ar    1  UNL1        0.0785
      6 N         -30.8170   47.4353   -5.1515 N.ar    1  UNL1       -0.3254
      7 C         -30.5550   48.0676   -3.9835 C.ar    1  UNL1        0.1985
      8 N         -29.3945   48.7763   -3.9861 N.ar    1  UNL1       -0.2106
      9 C         -28.9079   48.5622   -5.2227 C.ar    1  UNL1        0.1335
     10 C         -30.2646   46.5191   -8.1545 C.3     1  UNL1        0.0709
     11 C         -29.3679   46.5337   -9.4380 C.3     1  UNL1        0.1375
     12 C         -28.8745   45.1237   -9.7888 C.3     1  UNL1        0.0439
     13 C         -30.1106   47.1528  -10.6295 C.3     1  UNL1        0.0439
     14 O         -28.2432   47.3557   -9.1077 O.3     1  UNL1       -0.4823
     15 H         -31.6383   46.8376   -5.3943 H       1  UNL1        0.1686
     16 C         -26.2065   49.1291   -7.8429 C.2     1  UNL1        0.2555
     17 O         -25.2023   48.3675   -7.8854 O.2     1  UNL1       -0.2696
     18 N         -26.1622   50.4221   -8.4702 N.am    1  UNL1       -0.2805
     19 H         -27.0146   51.0244   -8.4412 H       1  UNL1        0.1552
     20 C         -24.9844   50.9563   -9.0983 C.ar    1  UNL1        0.0465
     21 C         -23.8264   51.1934   -8.3408 C.ar    1  UNL1        0.0143
     22 C         -22.6660   51.6756   -8.9482 C.ar    1  UNL1        0.0051
     23 C         -22.6395   51.9367  -10.3265 C.ar    1  UNL1        0.0712
     24 C         -23.7823   51.6599  -11.0951 C.ar    1  UNL1        0.0008
     25 C         -24.9590   51.1845  -10.4916 C.ar    1  UNL1       -0.0084
     26 C         -26.1714   50.9110  -11.3404 C.3     1  UNL1        0.0323
     27 C         -21.3691   52.4051  -10.9912 C.3     1  UNL1        0.4186
     28 F         -20.6948   51.3131  -11.5045 F       1  UNL1       -0.1659
     29 F         -20.5507   53.0544  -10.0831 F       1  UNL1       -0.1659
     30 F         -21.6538   53.2847  -12.0215 F       1  UNL1       -0.1659
     31 C         -26.8308   51.2361   -4.9326 C.3     1  UNL1        0.2525
     32 O         -26.7728   49.8227   -5.0865 O.3     1  UNL1       -0.4696
     33 N         -31.4387   48.0127   -2.8576 N.pl3   1  UNL1       -0.2816
     34 H         -32.4187   48.3520   -2.9844 H       1  UNL1        0.1551
     35 C         -30.9655   47.7657   -1.5263 C.ar    1  UNL1        0.0889
     36 C         -30.8263   48.8430   -0.6362 C.ar    1  UNL1        0.1543
     37 F         -31.1250   50.1043   -1.0374 F       1  UNL1       -0.2028
     38 C         -30.3576   48.6281    0.6631 C.ar    1  UNL1        0.0310
     39 C         -30.0378   47.3371    1.0880 C.ar    1  UNL1        0.0033
     40 C         -30.1970   46.2552    0.2190 C.ar    1  UNL1        0.0128
     41 C         -30.6660   46.4589   -1.0845 C.ar    1  UNL1        0.0733
     42 CL        -30.9393   45.0531   -2.1071 Cl      1  UNL1       -0.0809
@<TRIPOS>BOND
     1    31    32    1
     2    32     1    1
     3     1     2   ar
     4     2    16    1
     5    16    17    2
     6    16    18   am
     7    18    20    1
     8    20    21   ar
     9    21    22   ar
    10    22    23   ar
    11    23    27    1
    12    27    28    1
    13    27    29    1
    14    27    30    1
    15    23    24   ar
    16    24    25   ar
    17    25    26    1
    18     2     3   ar
    19     3     4   ar
    20     4     5   ar
    21     5     6   ar
    22     6     7   ar
    23     7    33    1
    24    33    35    1
    25    35    36   ar
    26    36    37    1
    27    36    38   ar
    28    38    39   ar
    29    39    40   ar
    30    40    41   ar
    31    41    42    1
    32     7     8   ar
    33     8     9   ar
    34     4    10    1
    35    10    11    1
    36    11    12    1
    37    11    13    1
    38    11    14    1
    39     9     1   ar
    40    25    20   ar
    41    14     3    1
    42     9     5   ar
    43    41    35   ar
    44    18    19    1
    45     6    15    1
    46    33    34    1
@<TRIPOS>MOLECULE
*****
 42 46 0 0 0
SMALL
GASTEIGER

@<TRIPOS>ATOM
      1 C         -27.6936   51.2527  -12.1175 C.ar    1  UNL1        0.1649
      2 C         -27.3600   51.2460  -10.7292 C.ar    1  UNL1        0.1226
      3 C         -28.2932   50.7052   -9.8136 C.ar    1  UNL1        0.1430
      4 C         -29.4868   50.1684  -10.2157 C.ar    1  UNL1        0.0327
      5 C         -29.7964   50.1540  -11.5660 C.ar    1  UNL1        0.0785
      6 N         -30.8928   49.6869  -12.1744 N.ar    1  UNL1       -0.3254
      7 C         -30.6602   49.9496  -13.4820 C.ar    1  UNL1        0.1985
      8 N         -29.4647   50.5517  -13.7213 N.ar    1  UNL1       -0.2106
      9 C         -28.9328   50.6758  -12.4910 C.ar    1  UNL1        0.1335
     10 C         -30.2579   49.6675   -9.0504 C.3     1  UNL1        0.0709
     11 C         -29.3044   50.0009   -7.8540 C.3     1  UNL1        0.1375
     12 C         -29.9605   50.9852   -6.8766 C.3     1  UNL1        0.0439
     13 C         -28.8671   48.7273   -7.1184 C.3     1  UNL1        0.0439
     14 O         -28.1559   50.6202   -8.4433 O.3     1  UNL1       -0.4823
     15 H         -31.7290   49.2329  -11.7439 H       1  UNL1        0.1686
     16 C         -26.0859   51.8064  -10.2324 C.2     1  UNL1        0.2555
     17 O         -26.1157   52.7269   -9.3710 O.2     1  UNL1       -0.2696
     18 N         -24.8273   51.3091  -10.7181 N.am    1  UNL1       -0.2805
     19 H         -24.8291   50.5306  -11.4139 H       1  UNL1        0.1552
     20 C         -23.5571   51.8613  -10.3327 C.ar    1  UNL1        0.0465
     21 C         -22.8519   52.6938  -11.2163 C.ar    1  UNL1        0.0143
     22 C         -21.6366   53.2658  -10.8371 C.ar    1  UNL1        0.0051
     23 C         -21.0964   53.0133   -9.5670 C.ar    1  UNL1        0.0712
     24 C         -21.8196   52.2160   -8.6645 C.ar    1  UNL1        0.0008
     25 C         -23.0389   51.6268   -9.0402 C.ar    1  UNL1       -0.0084
     26 C         -23.7830   50.7659   -8.0552 C.3     1  UNL1        0.0323
     27 C         -19.8109   53.6756   -9.1380 C.3     1  UNL1        0.4186
     28 F         -18.7410   52.9764   -9.6646 F       1  UNL1       -0.1659
     29 F         -19.7038   53.6916   -7.7580 F       1  UNL1       -0.1659
     30 F         -19.7618   54.9831   -9.5900 F       1  UNL1       -0.1659
     31 C         -26.7105   51.5126  -14.4168 C.3     1  UNL1        0.2525
     32 O         -26.8130   51.8478  -13.0376 O.3     1  UNL1       -0.4696
     33 N         -31.5837   49.5982  -14.5188 N.pl3   1  UNL1       -0.2816
     34 H         -32.6015   49.7589  -14.3464 H       1  UNL1        0.1551
     35 C         -31.1968   48.8063  -15.6504 C.ar    1  UNL1        0.0889
     36 C         -31.1802   49.3936  -16.9260 C.ar    1  UNL1        0.1543
     37 F         -31.5385   50.6925  -17.0853 F       1  UNL1       -0.2028
     38 C         -30.8162   48.6389  -18.0450 C.ar    1  UNL1        0.0310
     39 C         -30.4534   47.2987  -17.8984 C.ar    1  UNL1        0.0033
     40 C         -30.4417   46.7118  -16.6309 C.ar    1  UNL1        0.0128
     41 C         -30.8041   47.4585  -15.5032 C.ar    1  UNL1        0.0733
     42 CL        -30.6807   46.7003  -13.9199 Cl      1  UNL1       -0.0809
@<TRIPOS>BOND
     1    31    32    1
     2    32     1    1
     3     1     2   ar
     4     2    16    1
     5    16    17    2
     6    16    18   am
     7    18    20    1
     8    20    21   ar
     9    21    22   ar
    10    22    23   ar
    11    23    27    1
    12    27    28    1
    13    27    29    1
    14    27    30    1
    15    23    24   ar
    16    24    25   ar
    17    25    26    1
    18     2     3   ar
    19     3     4   ar
    20     4     5   ar
    21     5     6   ar
    22     6     7   ar
    23     7    33    1
    24    33    35    1
    25    35    36   ar
    26    36    37    1
    27    36    38   ar
    28    38    39   ar
    29    39    40   ar
    30    40    41   ar
    31    41    42    1
    32     7     8   ar
    33     8     9   ar
    34     4    10    1
    35    10    11    1
    36    11    12    1
    37    11    13    1
    38    11    14    1
    39     9     1   ar
    40    25    20   ar
    41    14     3    1
    42     9     5   ar
    43    41    35   ar
    44    18    19    1
    45     6    15    1
    46    33    34    1
@<TRIPOS>MOLECULE
*****
 42 46 0 0 0
SMALL
GASTEIGER

@<TRIPOS>ATOM
      1 C         -26.8097   50.4495   -7.1171 C.ar    1  UNL1        0.1649
      2 C         -27.9686   49.6335   -7.2900 C.ar    1  UNL1        0.1226
      3 C         -28.6421   49.6727   -8.5336 C.ar    1  UNL1        0.1430
      4 C         -28.2065   50.4430   -9.5783 C.ar    1  UNL1        0.0327
      5 C         -27.0674   51.2144   -9.4154 C.ar    1  UNL1        0.0785
      6 N         -26.4714   52.0328  -10.2903 N.ar    1  UNL1       -0.3254
      7 C         -25.4239   52.5287   -9.5904 C.ar    1  UNL1        0.1985
      8 N         -25.3314   52.0518   -8.3204 N.ar    1  UNL1       -0.2106
      9 C         -26.3865   51.2211   -8.2278 C.ar    1  UNL1        0.1335
     10 C         -29.0934   50.2809  -10.7575 C.3     1  UNL1        0.0709
     11 C         -30.1585   49.2600  -10.2332 C.3     1  UNL1        0.1375
     12 C         -31.5655   49.8722  -10.2359 C.3     1  UNL1        0.0439
     13 C         -30.1375   47.9628  -11.0526 C.3     1  UNL1        0.0439
     14 O         -29.7760   48.9692   -8.8845 O.3     1  UNL1       -0.4823
     15 H         -26.7497   52.2423  -11.2748 H       1  UNL1        0.1686
     16 C         -28.4865   48.7772   -6.2025 C.2     1  UNL1        0.2555
     17 O         -29.1385   47.7389   -6.4976 O.2     1  UNL1       -0.2696
     18 N         -28.2489   49.1166   -4.8257 N.am    1  UNL1       -0.2805
     19 H         -27.6863   49.9689   -4.6079 H       1  UNL1        0.1552
     20 C         -28.7882   48.3688   -3.7225 C.ar    1  UNL1        0.0465
     21 C         -30.1528   48.4623   -3.4063 C.ar    1  UNL1        0.0143
     22 C         -30.6937   47.7113   -2.3617 C.ar    1  UNL1        0.0051
     23 C         -29.8802   46.8535   -1.6060 C.ar    1  UNL1        0.0712
     24 C         -28.5234   46.7245   -1.9468 C.ar    1  UNL1        0.0008
     25 C         -27.9669   47.4843   -2.9897 C.ar    1  UNL1       -0.0084
     26 C         -26.5065   47.3339   -3.3212 C.3     1  UNL1        0.0323
     27 C         -30.4759   46.0010   -0.5135 C.3     1  UNL1        0.4186
     28 F         -31.5834   46.6413    0.0103 F       1  UNL1       -0.1659
     29 F         -29.5568   45.7886    0.4995 F       1  UNL1       -0.1659
     30 F         -30.8612   44.7686   -1.0122 F       1  UNL1       -0.1659
     31 C         -26.3364   51.4856   -4.8759 C.3     1  UNL1        0.2525
     32 O         -26.1653   50.4801   -5.8682 O.3     1  UNL1       -0.4696
     33 N         -24.4851   53.4531  -10.1521 N.pl3   1  UNL1       -0.2816
     34 H         -24.8519   54.3485  -10.5462 H       1  UNL1        0.1551
     35 C         -23.1258   53.0882  -10.4290 C.ar    1  UNL1        0.0889
     36 C         -22.8184   51.7468  -10.7089 C.ar    1  UNL1        0.1543
     37 F         -23.7962   50.8062  -10.7048 F       1  UNL1       -0.2028
     38 C         -21.4994   51.3657  -10.9719 C.ar    1  UNL1        0.0310
     39 C         -20.4809   52.3207  -10.9711 C.ar    1  UNL1        0.0033
     40 C         -20.7795   53.6618  -10.7193 C.ar    1  UNL1        0.0128
     41 C         -22.0972   54.0546  -10.4550 C.ar    1  UNL1        0.0733
     42 CL        -22.4346   55.7682  -10.2389 Cl      1  UNL1       -0.0809
@<TRIPOS>BOND
     1    31    32    1
     2    32     1    1
     3     1     2   ar
     4     2    16    1
     5    16    17    2
     6    16    18   am
     7    18    20    1
     8    20    21   ar
     9    21    22   ar
    10    22    23   ar
    11    23    27    1
    12    27    28    1
    13    27    29    1
    14    27    30    1
    15    23    24   ar
    16    24    25   ar
    17    25    26    1
    18     2     3   ar
    19     3     4   ar
    20     4     5   ar
    21     5     6   ar
    22     6     7   ar
    23     7    33    1
    24    33    35    1
    25    35    36   ar
    26    36    37    1
    27    36    38   ar
    28    38    39   ar
    29    39    40   ar
    30    40    41   ar
    31    41    42    1
    32     7     8   ar
    33     8     9   ar
    34     4    10    1
    35    10    11    1
    36    11    12    1
    37    11    13    1
    38    11    14    1
    39     9     1   ar
    40    25    20   ar
    41    14     3    1
    42     9     5   ar
    43    41    35   ar
    44    18    19    1
    45     6    15    1
    46    33    34    1
@<TRIPOS>MOLECULE
*****
 42 46 0 0 0
SMALL
GASTEIGER

@<TRIPOS>ATOM
      1 C         -25.0209   51.3723  -10.4656 C.ar    1  UNL1        0.1649
      2 C         -24.6201   51.2108   -9.1048 C.ar    1  UNL1        0.1226
      3 C         -25.6234   51.0466   -8.1208 C.ar    1  UNL1        0.1430
      4 C         -26.9561   51.0119   -8.4326 C.ar    1  UNL1        0.0327
      5 C         -27.3402   51.1438   -9.7571 C.ar    1  UNL1        0.0785
      6 N         -28.5710   51.1409  -10.2821 N.ar    1  UNL1       -0.3254
      7 C         -28.3467   51.3223  -11.6048 C.ar    1  UNL1        0.1985
      8 N         -27.0316   51.4298  -11.9334 N.ar    1  UNL1       -0.2106
      9 C         -26.4090   51.3173  -10.7453 C.ar    1  UNL1        0.1335
     10 C         -27.7775   50.8178   -7.2115 C.3     1  UNL1        0.0709
     11 C         -26.6888   50.7394   -6.0888 C.3     1  UNL1        0.1375
     12 C         -26.8520   51.8788   -5.0741 C.3     1  UNL1        0.0439
     13 C         -26.7193   49.3803   -5.3771 C.3     1  UNL1        0.0439
     14 O         -25.4347   50.8878   -6.7633 O.3     1  UNL1       -0.4823
     15 H         -29.4852   51.0300   -9.7895 H       1  UNL1        0.1686
     16 C         -23.1977   51.2349   -8.7044 C.2     1  UNL1        0.2555
     17 O         -22.8622   50.7215   -7.6026 O.2     1  UNL1       -0.2696
     18 N         -22.2058   51.8301   -9.5583 N.am    1  UNL1       -0.2805
     19 H         -22.5056   52.2277  -10.4760 H       1  UNL1        0.1552
     20 C         -20.8203   51.9532   -9.1944 C.ar    1  UNL1        0.0465
     21 C         -20.4625   52.2676   -7.8738 C.ar    1  UNL1        0.0143
     22 C         -19.1200   52.3516   -7.5017 C.ar    1  UNL1        0.0051
     23 C         -18.1047   52.1280   -8.4439 C.ar    1  UNL1        0.0712
     24 C         -18.4583   51.7707   -9.7557 C.ar    1  UNL1        0.0008
     25 C         -19.8069   51.6941  -10.1431 C.ar    1  UNL1       -0.0084
     26 C         -20.1532   51.3226  -11.5599 C.3     1  UNL1        0.0323
     27 C         -16.6551   52.1645   -8.0285 C.3     1  UNL1        0.4186
     28 F         -16.3648   53.4079   -7.4988 F       1  UNL1       -0.1659
     29 F         -15.8276   51.9323   -9.1136 F       1  UNL1       -0.1659
     30 F         -16.3971   51.1960   -7.0738 F       1  UNL1       -0.1659
     31 C         -23.5315   52.8826  -11.8153 C.3     1  UNL1        0.2525
     32 O         -24.0458   51.6068  -11.4507 O.3     1  UNL1       -0.4696
     33 N         -29.4035   51.3695  -12.5704 N.pl3   1  UNL1       -0.2816
     34 H         -29.8854   52.2830  -12.7281 H       1  UNL1        0.1551
     35 C         -29.9891   50.1815  -13.1208 C.ar    1  UNL1        0.0889
     36 C         -29.5061   49.6794  -14.3402 C.ar    1  UNL1        0.1543
     37 F         -28.5048   50.3197  -14.9945 F       1  UNL1       -0.2028
     38 C         -30.0680   48.5287  -14.9009 C.ar    1  UNL1        0.0310
     39 C         -31.1048   47.8635  -14.2437 C.ar    1  UNL1        0.0033
     40 C         -31.5754   48.3398  -13.0179 C.ar    1  UNL1        0.0128
     41 C         -31.0197   49.4912  -12.4469 C.ar    1  UNL1        0.0733
     42 CL        -31.5820   49.9945  -10.8571 Cl      1  UNL1       -0.0809
@<TRIPOS>BOND
     1    31    32    1
     2    32     1    1
     3     1     2   ar
     4     2    16    1
     5    16    17    2
     6    16    18   am
     7    18    20    1
     8    20    21   ar
     9    21    22   ar
    10    22    23   ar
    11    23    27    1
    12    27    28    1
    13    27    29    1
    14    27    30    1
    15    23    24   ar
    16    24    25   ar
    17    25    26    1
    18     2     3   ar
    19     3     4   ar
    20     4     5   ar
    21     5     6   ar
    22     6     7   ar
    23     7    33    1
    24    33    35    1
    25    35    36   ar
    26    36    37    1
    27    36    38   ar
    28    38    39   ar
    29    39    40   ar
    30    40    41   ar
    31    41    42    1
    32     7     8   ar
    33     8     9   ar
    34     4    10    1
    35    10    11    1
    36    11    12    1
    37    11    13    1
    38    11    14    1
    39     9     1   ar
    40    25    20   ar
    41    14     3    1
    42     9     5   ar
    43    41    35   ar
    44    18    19    1
    45     6    15    1
    46    33    34    1
@<TRIPOS>MOLECULE
*****
 42 46 0 0 0
SMALL
GASTEIGER

@<TRIPOS>ATOM
      1 C         -27.9708   49.8149   -6.7197 C.ar    1  UNL1        0.1649
      2 C         -28.0176   50.2764   -8.0701 C.ar    1  UNL1        0.1226
      3 C         -29.1548   49.9629   -8.8512 C.ar    1  UNL1        0.1430
      4 C         -30.2161   49.2582   -8.3497 C.ar    1  UNL1        0.0327
      5 C         -30.1783   48.8336   -7.0316 C.ar    1  UNL1        0.0785
      6 N         -31.0915   48.1387   -6.3434 N.ar    1  UNL1       -0.3254
      7 C         -30.5212   47.9957   -5.1239 C.ar    1  UNL1        0.1985
      8 N         -29.2968   48.5768   -5.0140 N.ar    1  UNL1       -0.2106
      9 C         -29.0957   49.1006   -6.2375 C.ar    1  UNL1        0.1335
     10 C         -31.2688   49.0862   -9.3820 C.3     1  UNL1        0.0709
     11 C         -30.6469   49.8235  -10.6155 C.3     1  UNL1        0.1375
     12 C         -30.4318   48.8599  -11.7901 C.3     1  UNL1        0.0439
     13 C         -31.5150   51.0119  -11.0500 C.3     1  UNL1        0.0439
     14 O         -29.3765   50.3092  -10.1683 O.3     1  UNL1       -0.4823
     15 H         -32.0191   47.7870   -6.6697 H       1  UNL1        0.1686
     16 C         -26.9063   51.0450   -8.6686 C.2     1  UNL1        0.2555
     17 O         -27.0288   52.2924   -8.8081 O.2     1  UNL1       -0.2696
     18 N         -25.6982   50.3849   -9.0836 N.am    1  UNL1       -0.2805
     19 H         -25.6121   49.3549   -8.9361 H       1  UNL1        0.1552
     20 C         -24.6129   51.0617   -9.7403 C.ar    1  UNL1        0.0465
     21 C         -24.7304   51.4440  -11.0860 C.ar    1  UNL1        0.0143
     22 C         -23.6977   52.1353  -11.7214 C.ar    1  UNL1        0.0051
     23 C         -22.5217   52.4550  -11.0262 C.ar    1  UNL1        0.0712
     24 C         -22.4179   52.1123   -9.6678 C.ar    1  UNL1        0.0008
     25 C         -23.4473   51.4068   -9.0217 C.ar    1  UNL1       -0.0084
     26 C         -23.2999   51.0418   -7.5691 C.3     1  UNL1        0.0323
     27 C         -21.4295   53.2500  -11.6972 C.3     1  UNL1        0.4186
     28 F         -20.9914   54.2385  -10.8360 F       1  UNL1       -0.1659
     29 F         -21.8950   53.8390  -12.8602 F       1  UNL1       -0.1659
     30 F         -20.3622   52.4318  -12.0251 F       1  UNL1       -0.1659
     31 C         -26.6902   51.0659   -4.9546 C.3     1  UNL1        0.2525
     32 O         -26.8214   50.0540   -5.9464 O.3     1  UNL1       -0.4696
     33 N         -31.1668   47.3147   -4.0419 N.pl3   1  UNL1       -0.2816
     34 H         -32.0125   46.7400   -4.2570 H       1  UNL1        0.1551
     35 C         -30.8628   47.6000   -2.6695 C.ar    1  UNL1        0.0889
     36 C         -30.3395   46.5817   -1.8561 C.ar    1  UNL1        0.1543
     37 F         -30.1363   45.3392   -2.3621 F       1  UNL1       -0.2028
     38 C         -30.0448   46.8334   -0.5131 C.ar    1  UNL1        0.0310
     39 C         -30.2567   48.1045    0.0243 C.ar    1  UNL1        0.0033
     40 C         -30.7526   49.1313   -0.7823 C.ar    1  UNL1        0.0128
     41 C         -31.0508   48.8904   -2.1290 C.ar    1  UNL1        0.0733
     42 CL        -31.5820   50.2403   -3.1252 Cl      1  UNL1       -0.0809
@<TRIPOS>BOND
     1    31    32    1
     2    32     1    1
     3     1     2   ar
     4     2    16    1
     5    16    17    2
     6    16    18   am
     7    18    20    1
     8    20    21   ar
     9    21    22   ar
    10    22    23   ar
    11    23    27    1
    12    27    28    1
    13    27    29    1
    14    27    30    1
    15    23    24   ar
    16    24    25   ar
    17    25    26    1
    18     2     3   ar
    19     3     4   ar
    20     4     5   ar
    21     5     6   ar
    22     6     7   ar
    23     7    33    1
    24    33    35    1
    25    35    36   ar
    26    36    37    1
    27    36    38   ar
    28    38    39   ar
    29    39    40   ar
    30    40    41   ar
    31    41    42    1
    32     7     8   ar
    33     8     9   ar
    34     4    10    1
    35    10    11    1
    36    11    12    1
    37    11    13    1
    38    11    14    1
    39     9     1   ar
    40    25    20   ar
    41    14     3    1
    42     9     5   ar
    43    41    35   ar
    44    18    19    1
    45     6    15    1
    46    33    34    1
