@<TRIPOS>MOLECULE
*****
 56 62 0 0 0
SMALL
GASTEIGER

@<TRIPOS>ATOM
      1 C         -30.7147   46.7543  -11.1714 C.3     1  UNL1        0.1239
      2 C         -31.5804   45.6417  -10.5971 C.3     1  UNL1        0.0374
      3 C         -30.5822   44.6644  -10.0101 C.3     1  UNL1        0.0739
      4 N         -29.3609   44.7459  -10.8292 N.3     1  UNL1       -0.2638
      5 C         -29.4466   45.9954  -11.6083 C.3     1  UNL1        0.0913
      6 C         -30.4485   47.7963  -10.0932 C.2     1  UNL1        0.2359
      7 O         -31.0216   47.7163   -8.9716 O.2     1  UNL1       -0.2739
      8 N         -29.5950   48.9171  -10.3763 N.am    1  UNL1       -0.2831
      9 H         -29.2936   49.0774  -11.3636 H       1  UNL1        0.1549
     10 C         -29.1948   49.8685   -9.3759 C.ar    1  UNL1        0.0567
     11 C         -30.1392   50.3036   -8.4106 C.ar    1  UNL1        0.0164
     12 C         -29.7610   51.1563   -7.3641 C.ar    1  UNL1        0.0198
     13 C         -28.4391   51.5783   -7.3175 C.ar    1  UNL1        0.0756
     14 N         -27.8767   52.3968   -6.4160 N.ar    1  UNL1       -0.2757
     15 N         -26.6083   52.5858   -6.7516 N.ar    1  UNL1       -0.1726
     16 C         -26.3539   51.8760   -7.8767 C.ar    1  UNL1        0.1038
     17 C         -27.5131   51.1975   -8.2535 C.ar    1  UNL1        0.0438
     18 C         -27.8400   50.2978   -9.2884 C.ar    1  UNL1        0.0918
     19 H         -28.3435   52.8382   -5.5929 H       1  UNL1        0.1889
     20 C         -25.0764   51.9820   -8.6020 C.ar    1  UNL1        0.0388
     21 C         -24.9198   52.8882   -9.6602 C.ar    1  UNL1        0.0079
     22 C         -23.6902   52.9949  -10.3117 C.ar    1  UNL1        0.0578
     23 C         -22.6169   52.2073   -9.8880 C.ar    1  UNL1        0.2247
     24 N         -22.7798   51.3539   -8.8381 N.ar    1  UNL1       -0.2101
     25 C         -23.9679   51.2315   -8.1887 C.ar    1  UNL1        0.1036
     26 O         -21.3855   52.3159  -10.5446 O.3     1  UNL1       -0.4640
     27 C         -20.1870   52.7678   -9.9132 C.3     1  UNL1        0.1678
     28 C         -18.9859   52.5445  -10.8368 C.3     1  UNL1        0.0473
     29 C         -20.3340   54.2505   -9.5780 C.3     1  UNL1        0.0473
     30 C         -26.8214   49.7685  -10.2154 C.2     1  UNL1        0.3393
     31 O         -26.7695   50.1832  -11.4041 O.2     1  UNL1       -0.2450
     32 O         -25.8959   48.8283   -9.7718 O.3     1  UNL1       -0.4771
     33 H         -25.1851   48.4644  -10.3949 H       1  UNL1        0.2954
     34 C         -30.5211   46.8093  -13.9302 C.3     1  UNL1        0.0696
     35 S         -31.5652   47.5271  -12.6155 S.3     1  UNL1       -0.1308
     36 C         -28.1319   44.6852  -10.0126 C.3     1  UNL1        0.1587
     37 C         -27.8578   46.0148   -9.3546 C.2     1  UNL1        0.2423
     38 O         -27.4624   46.9740  -10.0729 O.2     1  UNL1       -0.2733
     39 N         -28.0705   46.2234   -7.9421 N.am    1  UNL1       -0.2740
     40 C         -28.9265   45.3033   -7.1711 C.3     1  UNL1        0.1196
     41 C         -29.4732   45.9517   -5.9302 C.2     1  UNL1       -0.0089
     42 C         -28.7627   46.8664   -5.2548 C.2     1  UNL1       -0.0231
     43 C         -27.3976   47.2410   -5.7692 C.3     1  UNL1        0.0476
     44 C         -27.4130   47.3729   -7.2962 C.3     1  UNL1        0.0984
     45 C         -29.2717   47.4429   -3.9827 C.ar    1  UNL1       -0.0042
     46 C         -29.9575   48.6708   -3.9708 C.ar    1  UNL1       -0.0002
     47 C         -30.4280   49.2103   -2.7704 C.ar    1  UNL1        0.0031
     48 C         -30.2217   48.5350   -1.5563 C.ar    1  UNL1        0.0375
     49 C         -29.5341   47.3105   -1.5660 C.ar    1  UNL1        0.0031
     50 C         -29.0625   46.7713   -2.7661 C.ar    1  UNL1       -0.0002
     51 C         -30.7201   49.1056   -0.2863 C.ar    1  UNL1        0.1832
     52 N         -31.2945   50.3274   -0.1841 N.ar    1  UNL1       -0.2034
     53 C         -31.5839   50.4030    1.1293 C.ar    1  UNL1        0.1972
     54 N         -31.1937   49.2931    1.7753 N.ar    1  UNL1       -0.2281
     55 C         -31.4080   48.9833    3.1815 C.3     1  UNL1        0.1556
     56 N         -30.6625   48.4623    0.8986 N.ar    1  UNL1       -0.1484
@<TRIPOS>BOND
     1    34    35    1
     2     1    35    1
     3     1     6    1
     4     6     7    2
     5     6     8   am
     6     8    10    1
     7    10    11   ar
     8    11    12   ar
     9    12    13   ar
    10    13    14   ar
    11    14    15   ar
    12    15    16   ar
    13    16    20    1
    14    20    21   ar
    15    21    22   ar
    16    22    23   ar
    17    23    26    1
    18    26    27    1
    19    27    28    1
    20    27    29    1
    21    23    24   ar
    22    24    25   ar
    23    16    17   ar
    24    17    18   ar
    25    18    30    1
    26    30    31    2
    27    30    32    1
    28     1     2    1
    29     2     3    1
    30     3     4    1
    31     4    36    1
    32    36    37    1
    33    37    38    2
    34    37    39   am
    35    39    40    1
    36    40    41    1
    37    41    42    2
    38    42    45    1
    39    45    46   ar
    40    46    47   ar
    41    47    48   ar
    42    48    51    1
    43    51    52   ar
    44    52    53   ar
    45    53    54   ar
    46    54    55    1
    47    54    56   ar
    48    48    49   ar
    49    49    50   ar
    50    42    43    1
    51    43    44    1
    52     4     5    1
    53     5     1    1
    54    18    10   ar
    55    44    39    1
    56    17    13   ar
    57    50    45   ar
    58    25    20   ar
    59    56    51   ar
    60     8     9    1
    61    14    19    1
    62    32    33    1
@<TRIPOS>MOLECULE
*****
 56 62 0 0 0
SMALL
GASTEIGER

@<TRIPOS>ATOM
      1 C         -25.8469   50.8547   -8.3214 C.3     1  UNL1        0.1239
      2 C         -26.2666   52.2219   -8.8426 C.3     1  UNL1        0.0374
      3 C         -25.2403   52.5395   -9.9113 C.3     1  UNL1        0.0739
      4 N         -23.9781   51.8976   -9.5062 N.3     1  UNL1       -0.2638
      5 C         -24.3142   50.8976   -8.4753 C.3     1  UNL1        0.0913
      6 C         -26.5039   49.7687   -9.1631 C.2     1  UNL1        0.2359
      7 O         -25.8013   48.9986   -9.8744 O.2     1  UNL1       -0.2739
      8 N         -27.9365   49.6637   -9.2043 N.am    1  UNL1       -0.2831
      9 H         -28.5049   50.4286   -8.7762 H       1  UNL1        0.1549
     10 C         -28.6238   48.5909   -9.8695 C.ar    1  UNL1        0.0567
     11 C         -28.7171   47.3245   -9.2366 C.ar    1  UNL1        0.0164
     12 C         -29.4599   46.2835   -9.8110 C.ar    1  UNL1        0.0198
     13 C         -30.0808   46.5259  -11.0290 C.ar    1  UNL1        0.0756
     14 N         -30.8226   45.6716  -11.7493 N.ar    1  UNL1       -0.2757
     15 N         -31.1932   46.2758  -12.8694 N.ar    1  UNL1       -0.1726
     16 C         -30.6883   47.5326  -12.8639 C.ar    1  UNL1        0.1038
     17 C         -29.9828   47.7297  -11.6768 C.ar    1  UNL1        0.0438
     18 C         -29.2920   48.8182  -11.1062 C.ar    1  UNL1        0.0918
     19 H         -31.0641   44.6868  -11.4999 H       1  UNL1        0.1889
     20 C         -30.7886   48.4261  -14.0305 C.ar    1  UNL1        0.0388
     21 C         -30.2909   48.0379  -15.2823 C.ar    1  UNL1        0.0079
     22 C         -30.4263   48.8874  -16.3813 C.ar    1  UNL1        0.0578
     23 C         -31.0771   50.1139  -16.2263 C.ar    1  UNL1        0.2247
     24 N         -31.5809   50.4609  -15.0086 N.ar    1  UNL1       -0.2101
     25 C         -31.4601   49.6510  -13.9233 C.ar    1  UNL1        0.1036
     26 O         -31.2100   50.9639  -17.3304 O.3     1  UNL1       -0.4640
     27 C         -30.8941   50.5806  -18.6693 C.3     1  UNL1        0.1678
     28 C         -29.3861   50.6948  -18.9105 C.3     1  UNL1        0.0473
     29 C         -31.3637   49.1451  -18.8960 C.3     1  UNL1        0.0473
     30 C         -29.2991   50.1588  -11.7226 C.2     1  UNL1        0.3393
     31 O         -29.9856   51.0859  -11.2155 O.2     1  UNL1       -0.2450
     32 O         -28.5252   50.4116  -12.8515 O.3     1  UNL1       -0.4771
     33 H         -28.5130   51.3300  -13.2784 H       1  UNL1        0.2954
     34 C         -27.7088   51.8887   -6.5564 C.3     1  UNL1        0.0696
     35 S         -26.3390   50.6814   -6.5513 S.3     1  UNL1       -0.1308
     36 C         -23.2619   51.2960  -10.6492 C.3     1  UNL1        0.1587
     37 C         -21.8366   51.7865  -10.7085 C.2     1  UNL1        0.2423
     38 O         -21.0128   51.1624  -11.4326 O.2     1  UNL1       -0.2733
     39 N         -21.4060   52.9634   -9.9921 N.am    1  UNL1       -0.2740
     40 C         -22.3920   53.9489   -9.5121 C.3     1  UNL1        0.1196
     41 C         -21.7784   55.3065   -9.3136 C.2     1  UNL1       -0.0089
     42 C         -20.5063   55.4410   -8.9119 C.2     1  UNL1       -0.0231
     43 C         -19.6936   54.1968   -8.6669 C.3     1  UNL1        0.0476
     44 C         -19.9641   53.1517   -9.7549 C.3     1  UNL1        0.0984
     45 C         -19.9295   56.7830   -8.6362 C.ar    1  UNL1       -0.0042
     46 C         -20.0741   57.8337   -9.5598 C.ar    1  UNL1       -0.0002
     47 C         -19.5239   59.0914   -9.2972 C.ar    1  UNL1        0.0031
     48 C         -18.8162   59.3252   -8.1068 C.ar    1  UNL1        0.0375
     49 C         -18.6679   58.2761   -7.1850 C.ar    1  UNL1        0.0031
     50 C         -19.2171   57.0179   -7.4478 C.ar    1  UNL1       -0.0002
     51 C         -18.2346   60.6561   -7.8286 C.ar    1  UNL1        0.1832
     52 N         -18.9246   61.6767   -7.2670 N.ar    1  UNL1       -0.2034
     53 C         -17.9999   62.6543   -7.2077 C.ar    1  UNL1        0.1972
     54 N         -16.8276   62.2427   -7.7158 N.ar    1  UNL1       -0.2281
     55 C         -15.5818   62.9949   -7.7508 C.3     1  UNL1        0.1556
     56 N         -16.9539   60.9858   -8.0969 N.ar    1  UNL1       -0.1484
@<TRIPOS>BOND
     1    34    35    1
     2     1    35    1
     3     1     6    1
     4     6     7    2
     5     6     8   am
     6     8    10    1
     7    10    11   ar
     8    11    12   ar
     9    12    13   ar
    10    13    14   ar
    11    14    15   ar
    12    15    16   ar
    13    16    20    1
    14    20    21   ar
    15    21    22   ar
    16    22    23   ar
    17    23    26    1
    18    26    27    1
    19    27    28    1
    20    27    29    1
    21    23    24   ar
    22    24    25   ar
    23    16    17   ar
    24    17    18   ar
    25    18    30    1
    26    30    31    2
    27    30    32    1
    28     1     2    1
    29     2     3    1
    30     3     4    1
    31     4    36    1
    32    36    37    1
    33    37    38    2
    34    37    39   am
    35    39    40    1
    36    40    41    1
    37    41    42    2
    38    42    45    1
    39    45    46   ar
    40    46    47   ar
    41    47    48   ar
    42    48    51    1
    43    51    52   ar
    44    52    53   ar
    45    53    54   ar
    46    54    55    1
    47    54    56   ar
    48    48    49   ar
    49    49    50   ar
    50    42    43    1
    51    43    44    1
    52     4     5    1
    53     5     1    1
    54    18    10   ar
    55    44    39    1
    56    17    13   ar
    57    50    45   ar
    58    25    20   ar
    59    56    51   ar
    60     8     9    1
    61    14    19    1
    62    32    33    1
@<TRIPOS>MOLECULE
*****
 56 62 0 0 0
SMALL
GASTEIGER

@<TRIPOS>ATOM
      1 C         -30.5402   49.3052   -7.9086 C.3     1  UNL1        0.1239
      2 C         -31.4641   48.3744   -8.6813 C.3     1  UNL1        0.0374
      3 C         -30.6980   48.0667   -9.9520 C.3     1  UNL1        0.0739
      4 N         -29.8788   49.2505  -10.2631 N.3     1  UNL1       -0.2638
      5 C         -29.8194   50.0682   -9.0370 C.3     1  UNL1        0.0913
      6 C         -29.5961   48.4790   -7.0452 C.2     1  UNL1        0.2359
      7 O         -28.3465   48.6279   -7.1416 O.2     1  UNL1       -0.2739
      8 N         -30.1258   47.4734   -6.1660 N.am    1  UNL1       -0.2831
      9 H         -31.1369   47.2234   -6.2463 H       1  UNL1        0.1549
     10 C         -29.3133   46.7453   -5.2301 C.ar    1  UNL1        0.0567
     11 C         -28.3385   45.8351   -5.7141 C.ar    1  UNL1        0.0164
     12 C         -27.4644   45.1793   -4.8360 C.ar    1  UNL1        0.0198
     13 C         -27.5998   45.4323   -3.4776 C.ar    1  UNL1        0.0756
     14 N         -26.8805   44.9060   -2.4754 N.ar    1  UNL1       -0.2757
     15 N         -27.3540   45.3699   -1.3275 N.ar    1  UNL1       -0.1726
     16 C         -28.3840   46.2071   -1.5976 C.ar    1  UNL1        0.1038
     17 C         -28.5518   46.2837   -2.9803 C.ar    1  UNL1        0.0438
     18 C         -29.4124   47.0041   -3.8334 C.ar    1  UNL1        0.0918
     19 H         -26.0902   44.2287   -2.5593 H       1  UNL1        0.1889
     20 C         -29.2305   46.7808   -0.5377 C.ar    1  UNL1        0.0388
     21 C         -30.1115   45.9757    0.1980 C.ar    1  UNL1        0.0079
     22 C         -30.8800   46.5349    1.2199 C.ar    1  UNL1        0.0578
     23 C         -30.7487   47.8944    1.5138 C.ar    1  UNL1        0.2247
     24 N         -29.8651   48.6547    0.8079 N.ar    1  UNL1       -0.2101
     25 C         -29.1068   48.1330   -0.1926 C.ar    1  UNL1        0.1036
     26 O         -31.5220   48.4522    2.5385 O.3     1  UNL1       -0.4640
     27 C         -31.0465   48.6575    3.8693 C.3     1  UNL1        0.1678
     28 C         -31.4417   47.4763    4.7604 C.3     1  UNL1        0.0473
     29 C         -29.5277   48.8136    3.8326 C.3     1  UNL1        0.0473
     30 C         -30.3428   48.0289   -3.3220 C.2     1  UNL1        0.3393
     31 O         -31.5837   47.8101   -3.3124 O.2     1  UNL1       -0.2450
     32 O         -29.8503   49.2311   -2.8226 O.3     1  UNL1       -0.4771
     33 H         -30.4772   49.9388   -2.4592 H       1  UNL1        0.2954
     34 C         -30.1532   51.2425   -5.9725 C.3     1  UNL1        0.0696
     35 S         -31.5383   50.4472   -6.8574 S.3     1  UNL1       -0.1308
     36 C         -28.5336   48.8892  -10.7540 C.3     1  UNL1        0.1587
     37 C         -27.8159   50.1006  -11.2953 C.2     1  UNL1        0.2423
     38 O         -28.4297   50.8587  -12.0958 O.2     1  UNL1       -0.2733
     39 N         -26.4688   50.4298  -10.8940 N.am    1  UNL1       -0.2740
     40 C         -25.8923   49.8522   -9.6661 C.3     1  UNL1        0.1196
     41 C         -24.7721   50.6936   -9.1218 C.2     1  UNL1       -0.0089
     42 C         -23.9584   51.3780   -9.9385 C.2     1  UNL1       -0.0231
     43 C         -24.1921   51.2933  -11.4240 C.3     1  UNL1        0.0476
     44 C         -25.6909   51.3523  -11.7394 C.3     1  UNL1        0.0984
     45 C         -22.8013   52.1411   -9.4012 C.ar    1  UNL1       -0.0042
     46 C         -22.1697   51.7479   -8.2077 C.ar    1  UNL1       -0.0002
     47 C         -21.0862   52.4734   -7.7046 C.ar    1  UNL1        0.0031
     48 C         -20.6120   53.6082   -8.3828 C.ar    1  UNL1        0.0375
     49 C         -21.2437   54.0042   -9.5730 C.ar    1  UNL1        0.0031
     50 C         -22.3280   53.2795  -10.0757 C.ar    1  UNL1       -0.0002
     51 C         -19.4651   54.3755   -7.8509 C.ar    1  UNL1        0.1832
     52 N         -18.1824   53.9457   -7.9039 N.ar    1  UNL1       -0.2034
     53 C         -17.5130   54.9570   -7.3177 C.ar    1  UNL1        0.1972
     54 N         -18.3514   55.9299   -6.9274 N.ar    1  UNL1       -0.2281
     55 C         -17.9861   57.2062   -6.3300 C.3     1  UNL1        0.1556
     56 N         -19.5792   55.5870   -7.2676 N.ar    1  UNL1       -0.1484
@<TRIPOS>BOND
     1    34    35    1
     2     1    35    1
     3     1     6    1
     4     6     7    2
     5     6     8   am
     6     8    10    1
     7    10    11   ar
     8    11    12   ar
     9    12    13   ar
    10    13    14   ar
    11    14    15   ar
    12    15    16   ar
    13    16    20    1
    14    20    21   ar
    15    21    22   ar
    16    22    23   ar
    17    23    26    1
    18    26    27    1
    19    27    28    1
    20    27    29    1
    21    23    24   ar
    22    24    25   ar
    23    16    17   ar
    24    17    18   ar
    25    18    30    1
    26    30    31    2
    27    30    32    1
    28     1     2    1
    29     2     3    1
    30     3     4    1
    31     4    36    1
    32    36    37    1
    33    37    38    2
    34    37    39   am
    35    39    40    1
    36    40    41    1
    37    41    42    2
    38    42    45    1
    39    45    46   ar
    40    46    47   ar
    41    47    48   ar
    42    48    51    1
    43    51    52   ar
    44    52    53   ar
    45    53    54   ar
    46    54    55    1
    47    54    56   ar
    48    48    49   ar
    49    49    50   ar
    50    42    43    1
    51    43    44    1
    52     4     5    1
    53     5     1    1
    54    18    10   ar
    55    44    39    1
    56    17    13   ar
    57    50    45   ar
    58    25    20   ar
    59    56    51   ar
    60     8     9    1
    61    14    19    1
    62    32    33    1
@<TRIPOS>MOLECULE
*****
 56 62 0 0 0
SMALL
GASTEIGER

@<TRIPOS>ATOM
      1 C         -27.9340   46.8872   -5.0392 C.3     1  UNL1        0.1239
      2 C         -28.8566   46.6072   -3.8613 C.3     1  UNL1        0.0374
      3 C         -29.8291   47.7693   -3.8710 C.3     1  UNL1        0.0739
      4 N         -29.1049   48.9377   -4.4001 N.3     1  UNL1       -0.2638
      5 C         -27.8938   48.4275   -5.0698 C.3     1  UNL1        0.0913
      6 C         -28.5268   46.2776   -6.3026 C.2     1  UNL1        0.2359
      7 O         -29.0151   45.1140   -6.2825 O.2     1  UNL1       -0.2739
      8 N         -28.4673   47.0015   -7.5425 N.am    1  UNL1       -0.2831
      9 H         -27.8843   47.8672   -7.5868 H       1  UNL1        0.1549
     10 C         -29.1154   46.5510   -8.7438 C.ar    1  UNL1        0.0567
     11 C         -29.1935   45.1603   -9.0139 C.ar    1  UNL1        0.0164
     12 C         -29.8997   44.6795  -10.1253 C.ar    1  UNL1        0.0198
     13 C         -30.4993   45.6095  -10.9640 C.ar    1  UNL1        0.0756
     14 N         -31.2057   45.3656  -12.0779 N.ar    1  UNL1       -0.2757
     15 N         -31.5655   46.5246  -12.6112 N.ar    1  UNL1       -0.1726
     16 C         -31.0895   47.5214  -11.8275 C.ar    1  UNL1        0.1038
     17 C         -30.4147   46.9596  -10.7436 C.ar    1  UNL1        0.0438
     18 C         -29.7615   47.4801   -9.6079 C.ar    1  UNL1        0.0918
     19 H         -31.4300   44.4310  -12.4858 H       1  UNL1        0.1889
     20 C         -31.1847   48.9396  -12.2135 C.ar    1  UNL1        0.0388
     21 C         -31.0823   49.3311  -13.5558 C.ar    1  UNL1        0.0079
     22 C         -31.2084   50.6773  -13.9018 C.ar    1  UNL1        0.0578
     23 C         -31.4561   51.6234  -12.9042 C.ar    1  UNL1        0.2247
     24 N         -31.5825   51.2201  -11.6087 N.ar    1  UNL1       -0.2101
     25 C         -31.4623   49.9151  -11.2470 C.ar    1  UNL1        0.1036
     26 O         -31.5807   52.9728  -13.2547 O.3     1  UNL1       -0.4640
     27 C         -31.0628   54.0474  -12.4697 C.3     1  UNL1        0.1678
     28 C         -29.7840   53.6086  -11.7503 C.3     1  UNL1        0.0473
     29 C         -30.7788   55.2361  -13.3856 C.3     1  UNL1        0.0473
     30 C         -29.7857   48.9191   -9.2827 C.2     1  UNL1        0.3393
     31 O         -29.0716   49.7281   -9.9334 O.2     1  UNL1       -0.2450
     32 O         -30.6188   49.3922   -8.2731 O.3     1  UNL1       -0.4771
     33 H         -30.6527   50.3788   -8.0466 H       1  UNL1        0.2954
     34 C         -26.8057   44.6049   -3.9577 C.3     1  UNL1        0.0696
     35 S         -26.2625   46.1788   -4.7074 S.3     1  UNL1       -0.1308
     36 C         -29.9387   49.7515   -5.3075 C.3     1  UNL1        0.1587
     37 C         -29.2567   51.0555   -5.6393 C.2     1  UNL1        0.2423
     38 O         -29.5829   52.0892   -4.9933 O.2     1  UNL1       -0.2733
     39 N         -28.2231   51.1400   -6.6436 N.am    1  UNL1       -0.2740
     40 C         -27.5156   49.9268   -7.0922 C.3     1  UNL1        0.1196
     41 C         -26.1663   50.2457   -7.6725 C.2     1  UNL1       -0.0089
     42 C         -25.9523   51.3852   -8.3458 C.2     1  UNL1       -0.0231
     43 C         -27.0961   52.3519   -8.5067 C.3     1  UNL1        0.0476
     44 C         -27.8970   52.4628   -7.2046 C.3     1  UNL1        0.0984
     45 C         -24.6405   51.6579   -8.9896 C.ar    1  UNL1       -0.0042
     46 C         -23.4378   51.2917   -8.3592 C.ar    1  UNL1       -0.0002
     47 C         -22.2075   51.5567   -8.9671 C.ar    1  UNL1        0.0031
     48 C         -22.1530   52.1946  -10.2171 C.ar    1  UNL1        0.0375
     49 C         -23.3529   52.5641  -10.8464 C.ar    1  UNL1        0.0031
     50 C         -24.5834   52.3003  -10.2382 C.ar    1  UNL1       -0.0002
     51 C         -20.8512   52.4744  -10.8607 C.ar    1  UNL1        0.1832
     52 N         -20.6285   53.5272  -11.6822 N.ar    1  UNL1       -0.2034
     53 C         -19.3306   53.3719  -12.0076 C.ar    1  UNL1        0.1972
     54 N         -18.8122   52.2813  -11.4215 N.ar    1  UNL1       -0.2281
     55 C         -17.4268   51.8376  -11.4787 C.3     1  UNL1        0.1556
     56 N         -19.7498   51.7144  -10.6864 N.ar    1  UNL1       -0.1484
@<TRIPOS>BOND
     1    34    35    1
     2     1    35    1
     3     1     6    1
     4     6     7    2
     5     6     8   am
     6     8    10    1
     7    10    11   ar
     8    11    12   ar
     9    12    13   ar
    10    13    14   ar
    11    14    15   ar
    12    15    16   ar
    13    16    20    1
    14    20    21   ar
    15    21    22   ar
    16    22    23   ar
    17    23    26    1
    18    26    27    1
    19    27    28    1
    20    27    29    1
    21    23    24   ar
    22    24    25   ar
    23    16    17   ar
    24    17    18   ar
    25    18    30    1
    26    30    31    2
    27    30    32    1
    28     1     2    1
    29     2     3    1
    30     3     4    1
    31     4    36    1
    32    36    37    1
    33    37    38    2
    34    37    39   am
    35    39    40    1
    36    40    41    1
    37    41    42    2
    38    42    45    1
    39    45    46   ar
    40    46    47   ar
    41    47    48   ar
    42    48    51    1
    43    51    52   ar
    44    52    53   ar
    45    53    54   ar
    46    54    55    1
    47    54    56   ar
    48    48    49   ar
    49    49    50   ar
    50    42    43    1
    51    43    44    1
    52     4     5    1
    53     5     1    1
    54    18    10   ar
    55    44    39    1
    56    17    13   ar
    57    50    45   ar
    58    25    20   ar
    59    56    51   ar
    60     8     9    1
    61    14    19    1
    62    32    33    1
