@<TRIPOS>MOLECULE
*****
 35 39 0 0 0
SMALL
GASTEIGER

@<TRIPOS>ATOM
      1 C          49.9311   11.4589  -20.1336 C.2     1  UNL1        0.2490
      2 O          50.6918   11.4385  -21.1398 O.2     1  UNL1       -0.2699
      3 N          48.5418   11.1027  -20.2855 N.am    1  UNL1       -0.2760
      4 C          47.5023   11.8419  -19.5510 C.3     1  UNL1        0.0954
      5 C          46.2066   11.9523  -20.3758 C.3     1  UNL1        0.0399
      6 C          46.4961   12.1549  -21.8875 C.3     1  UNL1        0.0645
      7 C          47.3395   10.9578  -22.4400 C.3     1  UNL1        0.0399
      8 C          48.1260   10.1947  -21.3593 C.3     1  UNL1        0.0954
      9 C          47.2791   13.5042  -22.0890 C.3     1  UNL1        0.0481
     10 C          47.2118   13.9620  -23.5160 C.ar    1  UNL1        0.0259
     11 C          46.1699   13.6762  -24.3360 C.ar    1  UNL1        0.1519
     12 N          46.2928   14.3272  -25.5024 N.ar    1  UNL1       -0.1647
     13 N          47.4130   15.0449  -25.4424 N.ar    1  UNL1       -0.2494
     14 C          47.9938   14.8533  -24.2197 C.ar    1  UNL1        0.1047
     15 I          49.7464   15.7436  -23.4135 I       1  UNL1       -0.0219
     16 C          45.0873   12.8066  -23.9051 C.2     1  UNL1        0.2650
     17 O          44.0742   12.6136  -24.6275 O.2     1  UNL1       -0.2684
     18 N          45.2030   12.1910  -22.6131 N.am    1  UNL1       -0.3023
     19 H          44.4077   11.6011  -22.2773 H       1  UNL1        0.1497
     20 C          49.5882   11.8338  -15.1980 C.ar    1  UNL1        0.2248
     21 N          50.1367   12.2345  -14.0164 N.ar    1  UNL1       -0.2101
     22 C          51.3531   12.8355  -13.9493 C.ar    1  UNL1        0.1021
     23 C          52.0885   13.0628  -15.1122 C.ar    1  UNL1        0.0209
     24 C          51.5616   12.6665  -16.3475 C.ar    1  UNL1        0.0060
     25 C          52.2823   12.8772  -17.5311 C.ar    1  UNL1        0.0003
     26 C          51.7490   12.4801  -18.7593 C.ar    1  UNL1        0.0045
     27 C          50.4837   11.8757  -18.8259 C.ar    1  UNL1        0.0537
     28 C          49.7665   11.6456  -17.6401 C.ar    1  UNL1        0.0092
     29 C          50.2930   12.0433  -16.3989 C.ar    1  UNL1        0.0534
     30 C          47.6914   10.7303  -14.0441 C.3     1  UNL1        0.2542
     31 O          48.3300   11.2193  -15.2174 O.3     1  UNL1       -0.4561
     32 C          47.8692   15.9079  -26.5598 C.3     1  UNL1        0.0871
     33 C          49.3135   15.5467  -26.9597 C.3     1  UNL1        0.0244
     34 C          46.9700   15.6938  -27.8016 C.3     1  UNL1        0.0244
     35 C          47.7737   17.3931  -26.1598 C.3     1  UNL1        0.0244
@<TRIPOS>BOND
     1    30    31    1
     2    31    20    1
     3    20    21   ar
     4    21    22   ar
     5    22    23   ar
     6    23    24   ar
     7    24    25   ar
     8    25    26   ar
     9    26    27   ar
    10    27     1    1
    11     1     2    2
    12     1     3   am
    13     3     4    1
    14     4     5    1
    15     5     6    1
    16     6     7    1
    17     7     8    1
    18     6     9    1
    19     9    10    1
    20    10    11   ar
    21    11    12   ar
    22    12    13   ar
    23    13    32    1
    24    32    33    1
    25    32    34    1
    26    32    35    1
    27    13    14   ar
    28    14    15    1
    29    11    16    1
    30    16    17    2
    31    16    18   am
    32    27    28   ar
    33    28    29   ar
    34    29    20   ar
    35    29    24   ar
    36     8     3    1
    37    14    10   ar
    38    18     6    1
    39    18    19    1
@<TRIPOS>MOLECULE
*****
 35 39 0 0 0
SMALL
GASTEIGER

@<TRIPOS>ATOM
      1 C          48.5324   11.3771  -20.2491 C.2     1  UNL1        0.2490
      2 O          48.4012   10.1563  -20.5388 O.2     1  UNL1       -0.2699
      3 N          47.7899   12.3673  -20.9896 N.am    1  UNL1       -0.2760
      4 C          48.4168   13.6501  -21.3469 C.3     1  UNL1        0.0954
      5 C          47.9136   14.1573  -22.7111 C.3     1  UNL1        0.0399
      6 C          47.7016   12.9966  -23.7198 C.3     1  UNL1        0.0645
      7 C          46.6622   11.9729  -23.1532 C.3     1  UNL1        0.0399
      8 C          46.5149   12.0132  -21.6216 C.3     1  UNL1        0.0954
      9 C          49.0769   12.2794  -23.9812 C.3     1  UNL1        0.0481
     10 C          49.0291   11.4551  -25.2338 C.ar    1  UNL1        0.0259
     11 C          48.2339   11.7598  -26.2895 C.ar    1  UNL1        0.1519
     12 N          48.4943   10.9511  -27.3275 N.ar    1  UNL1       -0.1647
     13 N          49.4658   10.1211  -26.9523 N.ar    1  UNL1       -0.2494
     14 C          49.8293   10.4199  -25.6688 C.ar    1  UNL1        0.1047
     15 I          51.3605    9.5590  -24.4737 I       1  UNL1       -0.0219
     16 C          47.2878   12.8621  -26.2281 C.2     1  UNL1        0.2650
     17 O          46.6155   13.2062  -27.2356 O.2     1  UNL1       -0.2684
     18 N          47.1625   13.5621  -24.9806 N.am    1  UNL1       -0.3023
     19 H          46.5181   14.3846  -24.9417 H       1  UNL1        0.1497
     20 C          49.6163   11.9447  -15.4406 C.ar    1  UNL1        0.2248
     21 N          50.5128   12.3090  -14.4806 N.ar    1  UNL1       -0.2101
     22 C          51.7598   12.7531  -14.7852 C.ar    1  UNL1        0.1021
     23 C          52.1648   12.8495  -16.1162 C.ar    1  UNL1        0.0209
     24 C          51.2746   12.4851  -17.1339 C.ar    1  UNL1        0.0060
     25 C          51.6578   12.5663  -18.4797 C.ar    1  UNL1        0.0003
     26 C          50.7635   12.2021  -19.4887 C.ar    1  UNL1        0.0045
     27 C          49.4695   11.7608  -19.1701 C.ar    1  UNL1        0.0537
     28 C          49.0880   11.6601  -17.8220 C.ar    1  UNL1        0.0092
     29 C          49.9796   12.0261  -16.7986 C.ar    1  UNL1        0.0534
     30 C          48.0052   11.1148  -13.7487 C.3     1  UNL1        0.2542
     31 O          48.3411   11.4939  -15.0780 O.3     1  UNL1       -0.4561
     32 C          50.0238    9.0846  -27.8557 C.3     1  UNL1        0.0871
     33 C          49.9717    7.7006  -27.1789 C.3     1  UNL1        0.0244
     34 C          49.1882    9.0037  -29.1564 C.3     1  UNL1        0.0244
     35 C          51.4709    9.4415  -28.2472 C.3     1  UNL1        0.0244
@<TRIPOS>BOND
     1    30    31    1
     2    31    20    1
     3    20    21   ar
     4    21    22   ar
     5    22    23   ar
     6    23    24   ar
     7    24    25   ar
     8    25    26   ar
     9    26    27   ar
    10    27     1    1
    11     1     2    2
    12     1     3   am
    13     3     4    1
    14     4     5    1
    15     5     6    1
    16     6     7    1
    17     7     8    1
    18     6     9    1
    19     9    10    1
    20    10    11   ar
    21    11    12   ar
    22    12    13   ar
    23    13    32    1
    24    32    33    1
    25    32    34    1
    26    32    35    1
    27    13    14   ar
    28    14    15    1
    29    11    16    1
    30    16    17    2
    31    16    18   am
    32    27    28   ar
    33    28    29   ar
    34    29    20   ar
    35    29    24   ar
    36     8     3    1
    37    14    10   ar
    38    18     6    1
    39    18    19    1
@<TRIPOS>MOLECULE
*****
 35 39 0 0 0
SMALL
GASTEIGER

@<TRIPOS>ATOM
      1 C          49.8347   10.4154  -26.3195 C.2     1  UNL1        0.2490
      2 O          48.6653   10.7409  -26.6632 O.2     1  UNL1       -0.2699
      3 N          50.2260   10.5268  -24.9358 N.am    1  UNL1       -0.2760
      4 C          51.5745   10.9989  -24.5823 C.3     1  UNL1        0.0954
      5 C          51.5555   11.8206  -23.2801 C.3     1  UNL1        0.0399
      6 C          50.2824   12.7016  -23.1680 C.3     1  UNL1        0.0645
      7 C          49.0005   11.8048  -23.2113 C.3     1  UNL1        0.0399
      8 C          49.2185   10.4329  -23.8743 C.3     1  UNL1        0.0954
      9 C          50.2592   13.7325  -24.3559 C.3     1  UNL1        0.0481
     10 C          49.3149   14.8636  -24.0738 C.ar    1  UNL1        0.0259
     11 C          49.0343   15.2973  -22.8196 C.ar    1  UNL1        0.1519
     12 N          48.2829   16.4077  -22.8595 N.ar    1  UNL1       -0.1647
     13 N          48.0777   16.7044  -24.1415 N.ar    1  UNL1       -0.2494
     14 C          48.7182   15.7777  -24.9160 C.ar    1  UNL1        0.1047
     15 I          48.8826   15.6819  -27.0321 I       1  UNL1       -0.0219
     16 C          49.5597   14.6127  -21.6495 C.2     1  UNL1        0.2650
     17 O          49.3786   15.0654  -20.4885 O.2     1  UNL1       -0.2684
     18 N          50.3143   13.4103  -21.8654 N.am    1  UNL1       -0.3023
     19 H          50.7339   12.9377  -21.0325 H       1  UNL1        0.1497
     20 C          50.9213    7.6114  -30.2661 C.ar    1  UNL1        0.2248
     21 N          51.8289    7.2141  -31.2021 N.ar    1  UNL1       -0.2101
     22 C          53.0930    7.7097  -31.2415 C.ar    1  UNL1        0.1021
     23 C          53.5041    8.6586  -30.3059 C.ar    1  UNL1        0.0209
     24 C          52.6029    9.0943  -29.3269 C.ar    1  UNL1        0.0060
     25 C          52.9879   10.0517  -28.3782 C.ar    1  UNL1        0.0003
     26 C          52.0832   10.4800  -27.4042 C.ar    1  UNL1        0.0045
     27 C          50.7834    9.9519  -27.3561 C.ar    1  UNL1        0.0537
     28 C          50.3877    9.0062  -28.3165 C.ar    1  UNL1        0.0092
     29 C          51.2910    8.5666  -29.2999 C.ar    1  UNL1        0.0534
     30 C          48.9109    6.7844  -31.4583 C.3     1  UNL1        0.2542
     31 O          49.6294    7.0710  -30.2645 O.3     1  UNL1       -0.4561
     32 C          47.2896   17.8858  -24.5714 C.3     1  UNL1        0.0871
     33 C          48.2257   18.9883  -25.1047 C.3     1  UNL1        0.0244
     34 C          46.3230   17.4955  -25.7158 C.3     1  UNL1        0.0244
     35 C          46.4415   18.4163  -23.3991 C.3     1  UNL1        0.0244
@<TRIPOS>BOND
     1    30    31    1
     2    31    20    1
     3    20    21   ar
     4    21    22   ar
     5    22    23   ar
     6    23    24   ar
     7    24    25   ar
     8    25    26   ar
     9    26    27   ar
    10    27     1    1
    11     1     2    2
    12     1     3   am
    13     3     4    1
    14     4     5    1
    15     5     6    1
    16     6     7    1
    17     7     8    1
    18     6     9    1
    19     9    10    1
    20    10    11   ar
    21    11    12   ar
    22    12    13   ar
    23    13    32    1
    24    32    33    1
    25    32    34    1
    26    32    35    1
    27    13    14   ar
    28    14    15    1
    29    11    16    1
    30    16    17    2
    31    16    18   am
    32    27    28   ar
    33    28    29   ar
    34    29    20   ar
    35    29    24   ar
    36     8     3    1
    37    14    10   ar
    38    18     6    1
    39    18    19    1
@<TRIPOS>MOLECULE
*****
 35 39 0 0 0
SMALL
GASTEIGER

@<TRIPOS>ATOM
      1 C          49.1072   11.5868  -19.2716 C.2     1  UNL1        0.2490
      2 O          50.1424   11.6470  -19.9902 O.2     1  UNL1       -0.2699
      3 N          47.8682   11.1243  -19.8470 N.am    1  UNL1       -0.2760
      4 C          46.5950   11.7637  -19.4778 C.3     1  UNL1        0.0954
      5 C          45.6160   11.7870  -20.6662 C.3     1  UNL1        0.0399
      6 C          46.3441   12.0420  -22.0133 C.3     1  UNL1        0.0645
      7 C          47.4125   10.9271  -22.2682 C.3     1  UNL1        0.0399
      8 C          47.8831   10.2076  -20.9915 C.3     1  UNL1        0.0954
      9 C          47.0377   13.4530  -21.9686 C.3     1  UNL1        0.0481
     10 C          47.3808   13.9324  -23.3481 C.ar    1  UNL1        0.0259
     11 C          46.6730   13.5810  -24.4504 C.ar    1  UNL1        0.1519
     12 N          47.0992   14.2627  -25.5242 N.ar    1  UNL1       -0.1647
     13 N          48.0824   15.0659  -25.1221 N.ar    1  UNL1       -0.2494
     14 C          48.2674   14.8969  -23.7781 C.ar    1  UNL1        0.1047
     15 I          49.6029   15.9076  -22.4709 I       1  UNL1       -0.0219
     16 C          45.5850   12.6196  -24.3735 C.2     1  UNL1        0.2650
     17 O          44.8664   12.3610  -25.3747 O.2     1  UNL1       -0.2684
     18 N          45.3426   11.9895  -23.1062 N.am    1  UNL1       -0.3023
     19 H          44.5334   11.3316  -23.0317 H       1  UNL1        0.1497
     20 C          47.7506   14.6008  -15.5711 C.ar    1  UNL1        0.2248
     21 N          47.8583   14.9643  -14.2619 N.ar    1  UNL1       -0.2101
     22 C          48.6717   14.3097  -13.3929 C.ar    1  UNL1        0.1021
     23 C          49.4337   13.2252  -13.8263 C.ar    1  UNL1        0.0209
     24 C          49.3528   12.8186  -15.1637 C.ar    1  UNL1        0.0060
     25 C          50.1030   11.7279  -15.6245 C.ar    1  UNL1        0.0003
     26 C          50.0174   11.3296  -16.9603 C.ar    1  UNL1        0.0045
     27 C          49.1892   12.0201  -17.8592 C.ar    1  UNL1        0.0537
     28 C          48.4215   13.1019  -17.3971 C.ar    1  UNL1        0.0092
     29 C          48.5016   13.5125  -16.0551 C.ar    1  UNL1        0.0534
     30 C          45.9450   16.2537  -15.9645 C.3     1  UNL1        0.2542
     31 O          46.8993   15.3070  -16.4299 O.3     1  UNL1       -0.4561
     32 C          48.7916   15.9845  -26.0467 C.3     1  UNL1        0.0871
     33 C          48.0692   16.0371  -27.4074 C.3     1  UNL1        0.0244
     34 C          48.8066   17.4196  -25.4665 C.3     1  UNL1        0.0244
     35 C          50.2543   15.5344  -26.2275 C.3     1  UNL1        0.0244
@<TRIPOS>BOND
     1    30    31    1
     2    31    20    1
     3    20    21   ar
     4    21    22   ar
     5    22    23   ar
     6    23    24   ar
     7    24    25   ar
     8    25    26   ar
     9    26    27   ar
    10    27     1    1
    11     1     2    2
    12     1     3   am
    13     3     4    1
    14     4     5    1
    15     5     6    1
    16     6     7    1
    17     7     8    1
    18     6     9    1
    19     9    10    1
    20    10    11   ar
    21    11    12   ar
    22    12    13   ar
    23    13    32    1
    24    32    33    1
    25    32    34    1
    26    32    35    1
    27    13    14   ar
    28    14    15    1
    29    11    16    1
    30    16    17    2
    31    16    18   am
    32    27    28   ar
    33    28    29   ar
    34    29    20   ar
    35    29    24   ar
    36     8     3    1
    37    14    10   ar
    38    18     6    1
    39    18    19    1
@<TRIPOS>MOLECULE
*****
 35 39 0 0 0
SMALL
GASTEIGER

@<TRIPOS>ATOM
      1 C          51.8869   10.2166  -25.6980 C.2     1  UNL1        0.2490
      2 O          52.1207    9.5434  -24.6569 O.2     1  UNL1       -0.2699
      3 N          52.0092   11.6531  -25.6581 N.am    1  UNL1       -0.2760
      4 C          51.0440   12.4997  -26.3777 C.3     1  UNL1        0.0954
      5 C          50.7798   13.8141  -25.6202 C.3     1  UNL1        0.0399
      6 C          50.7550   13.6030  -24.0824 C.3     1  UNL1        0.0645
      7 C          52.1208   13.0128  -23.5971 C.3     1  UNL1        0.0399
      8 C          52.9169   12.2899  -24.6983 C.3     1  UNL1        0.0954
      9 C          49.5822   12.6222  -23.7127 C.3     1  UNL1        0.0481
     10 C          49.2383   12.7133  -22.2553 C.ar    1  UNL1        0.0259
     11 C          49.4063   13.8439  -21.5252 C.ar    1  UNL1        0.1519
     12 N          48.8843   13.6974  -20.2983 N.ar    1  UNL1       -0.1647
     13 N          48.3682   12.4717  -20.2284 N.ar    1  UNL1       -0.2494
     14 C          48.5561   11.8455  -21.4291 C.ar    1  UNL1        0.1047
     15 I          47.9185    9.9161  -22.0494 I       1  UNL1       -0.0219
     16 C          50.0377   15.0231  -22.0951 C.2     1  UNL1        0.2650
     17 O          50.1117   16.1030  -21.4518 O.2     1  UNL1       -0.2684
     18 N          50.5559   14.9203  -23.4303 N.am    1  UNL1       -0.3023
     19 H          50.9702   15.7770  -23.8635 H       1  UNL1        0.1497
     20 C          52.8515    8.4460  -30.2315 C.ar    1  UNL1        0.2248
     21 N          52.4194    7.7898  -31.3453 N.ar    1  UNL1       -0.2101
     22 C          51.1527    7.3125  -31.4591 C.ar    1  UNL1        0.1021
     23 C          50.2418    7.4843  -30.4171 C.ar    1  UNL1        0.0209
     24 C          50.6449    8.1529  -29.2547 C.ar    1  UNL1        0.0060
     25 C          49.7516    8.3340  -28.1899 C.ar    1  UNL1        0.0003
     26 C          50.1612    9.0031  -27.0344 C.ar    1  UNL1        0.0045
     27 C          51.4658    9.5106  -26.9283 C.ar    1  UNL1        0.0537
     28 C          52.3697    9.3147  -27.9855 C.ar    1  UNL1        0.0092
     29 C          51.9672    8.6445  -29.1539 C.ar    1  UNL1        0.0534
     30 C          55.2886    8.0653  -29.9818 C.3     1  UNL1        0.2542
     31 O          54.1668    8.9215  -30.1606 O.3     1  UNL1       -0.4561
     32 C          47.6915   11.9584  -19.0117 C.3     1  UNL1        0.0871
     33 C          48.2671   10.5834  -18.6191 C.3     1  UNL1        0.0244
     34 C          47.9252   12.9227  -17.8235 C.3     1  UNL1        0.0244
     35 C          46.1717   11.8616  -19.2476 C.3     1  UNL1        0.0244
@<TRIPOS>BOND
     1    30    31    1
     2    31    20    1
     3    20    21   ar
     4    21    22   ar
     5    22    23   ar
     6    23    24   ar
     7    24    25   ar
     8    25    26   ar
     9    26    27   ar
    10    27     1    1
    11     1     2    2
    12     1     3   am
    13     3     4    1
    14     4     5    1
    15     5     6    1
    16     6     7    1
    17     7     8    1
    18     6     9    1
    19     9    10    1
    20    10    11   ar
    21    11    12   ar
    22    12    13   ar
    23    13    32    1
    24    32    33    1
    25    32    34    1
    26    32    35    1
    27    13    14   ar
    28    14    15    1
    29    11    16    1
    30    16    17    2
    31    16    18   am
    32    27    28   ar
    33    28    29   ar
    34    29    20   ar
    35    29    24   ar
    36     8     3    1
    37    14    10   ar
    38    18     6    1
    39    18    19    1
@<TRIPOS>MOLECULE
*****
 35 39 0 0 0
SMALL
GASTEIGER

@<TRIPOS>ATOM
      1 C          50.3936    8.9955  -27.0190 C.2     1  UNL1        0.2490
      2 O          49.2494    8.9005  -26.4961 O.2     1  UNL1       -0.2699
      3 N          51.4566    9.6432  -26.2905 N.am    1  UNL1       -0.2760
      4 C          52.4136   10.5135  -26.9928 C.3     1  UNL1        0.0954
      5 C          52.8622   11.6855  -26.1004 C.3     1  UNL1        0.0399
      6 C          51.7016   12.2225  -25.2204 C.3     1  UNL1        0.0645
      7 C          51.1471   11.0811  -24.3043 C.3     1  UNL1        0.0399
      8 C          51.4411    9.6626  -24.8243 C.3     1  UNL1        0.0954
      9 C          50.5575   12.7714  -26.1498 C.3     1  UNL1        0.0481
     10 C          49.6275   13.6713  -25.3910 C.ar    1  UNL1        0.0259
     11 C          50.0205   14.4102  -24.3236 C.ar    1  UNL1        0.1519
     12 N          49.0369   15.2322  -23.9287 N.ar    1  UNL1       -0.1647
     13 N          48.0018   15.0356  -24.7431 N.ar    1  UNL1       -0.2494
     14 C          48.3430   14.0889  -25.6685 C.ar    1  UNL1        0.1047
     15 I          47.2141   13.3495  -27.3094 I       1  UNL1       -0.0219
     16 C          51.3630   14.2925  -23.7778 C.2     1  UNL1        0.2650
     17 O          51.7607   15.0422  -22.8477 O.2     1  UNL1       -0.2684
     18 N          52.2304   13.3035  -24.3533 N.am    1  UNL1       -0.3023
     19 H          53.2117   13.2441  -23.9972 H       1  UNL1        0.1497
     20 C          53.3815    7.3210  -30.6088 C.ar    1  UNL1        0.2248
     21 N          53.5282    6.8305  -31.8720 N.ar    1  UNL1       -0.2101
     22 C          52.4692    6.6298  -32.6987 C.ar    1  UNL1        0.1021
     23 C          51.1764    6.9259  -32.2674 C.ar    1  UNL1        0.0209
     24 C          50.9812    7.4319  -30.9765 C.ar    1  UNL1        0.0060
     25 C          49.6921    7.7322  -30.5154 C.ar    1  UNL1        0.0003
     26 C          49.5061    8.2376  -29.2268 C.ar    1  UNL1        0.0045
     27 C          50.6050    8.4605  -28.3823 C.ar    1  UNL1        0.0537
     28 C          51.8968    8.1432  -28.8338 C.ar    1  UNL1        0.0092
     29 C          52.0955    7.6359  -30.1297 C.ar    1  UNL1        0.0534
     30 C          55.7308    6.8213  -29.9939 C.3     1  UNL1        0.2542
     31 O          54.5038    7.5124  -29.7934 O.3     1  UNL1       -0.4561
     32 C          46.7287   15.7864  -24.6120 C.3     1  UNL1        0.0871
     33 C          45.5487   14.8113  -24.4297 C.3     1  UNL1        0.0244
     34 C          46.7761   16.7051  -23.3670 C.3     1  UNL1        0.0244
     35 C          46.5067   16.6795  -25.8481 C.3     1  UNL1        0.0244
@<TRIPOS>BOND
     1    30    31    1
     2    31    20    1
     3    20    21   ar
     4    21    22   ar
     5    22    23   ar
     6    23    24   ar
     7    24    25   ar
     8    25    26   ar
     9    26    27   ar
    10    27     1    1
    11     1     2    2
    12     1     3   am
    13     3     4    1
    14     4     5    1
    15     5     6    1
    16     6     7    1
    17     7     8    1
    18     6     9    1
    19     9    10    1
    20    10    11   ar
    21    11    12   ar
    22    12    13   ar
    23    13    32    1
    24    32    33    1
    25    32    34    1
    26    32    35    1
    27    13    14   ar
    28    14    15    1
    29    11    16    1
    30    16    17    2
    31    16    18   am
    32    27    28   ar
    33    28    29   ar
    34    29    20   ar
    35    29    24   ar
    36     8     3    1
    37    14    10   ar
    38    18     6    1
    39    18    19    1
@<TRIPOS>MOLECULE
*****
 35 39 0 0 0
SMALL
GASTEIGER

@<TRIPOS>ATOM
      1 C          50.2726    9.7010  -26.7780 C.2     1  UNL1        0.2490
      2 O          49.0385    9.9532  -26.8474 O.2     1  UNL1       -0.2699
      3 N          50.9591    9.8510  -25.5185 N.am    1  UNL1       -0.2760
      4 C          52.3219   10.4055  -25.4783 C.3     1  UNL1        0.0954
      5 C          52.5486   11.2394  -24.2037 C.3     1  UNL1        0.0399
      6 C          51.2833   12.0453  -23.8045 C.3     1  UNL1        0.0645
      7 C          50.0809   11.0742  -23.5586 C.3     1  UNL1        0.0399
      8 C          50.2251    9.7101  -24.2568 C.3     1  UNL1        0.0954
      9 C          50.9306   13.0595  -24.9539 C.3     1  UNL1        0.0481
     10 C          50.0085   14.1362  -24.4629 C.ar    1  UNL1        0.0259
     11 C          49.9932   14.5668  -23.1768 C.ar    1  UNL1        0.1519
     12 N          49.1871   15.6306  -23.0432 N.ar    1  UNL1       -0.1647
     13 N          48.6801   15.9001  -24.2448 N.ar    1  UNL1       -0.2494
     14 C          49.1833   15.0040  -25.1463 C.ar    1  UNL1        0.1047
     15 I          48.8706   14.8940  -27.2449 I       1  UNL1       -0.0219
     16 C          50.8094   13.9277  -22.1575 C.2     1  UNL1        0.2650
     17 O          50.8687   14.3822  -20.9846 O.2     1  UNL1       -0.2684
     18 N          51.5663   12.7694  -22.5412 N.am    1  UNL1       -0.3023
     19 H          52.1908   12.3318  -21.8259 H       1  UNL1        0.1497
     20 C          50.4260    7.2585  -31.0941 C.ar    1  UNL1        0.2248
     21 N          51.1244    6.8979  -32.2077 N.ar    1  UNL1       -0.2101
     22 C          52.4031    7.3023  -32.4234 C.ar    1  UNL1        0.1021
     23 C          53.0486    8.1149  -31.4918 C.ar    1  UNL1        0.0209
     24 C          52.3671    8.5087  -30.3338 C.ar    1  UNL1        0.0060
     25 C          52.9899    9.3302  -29.3841 C.ar    1  UNL1        0.0003
     26 C          52.3037    9.7174  -28.2310 C.ar    1  UNL1        0.0045
     27 C          50.9885    9.2823  -28.0034 C.ar    1  UNL1        0.0537
     28 C          50.3542    8.4745  -28.9617 C.ar    1  UNL1        0.0092
     29 C          51.0366    8.0772  -30.1247 C.ar    1  UNL1        0.0534
     30 C          48.3098    6.3196  -31.9813 C.3     1  UNL1        0.2542
     31 O          49.1097    6.8157  -30.9147 O.3     1  UNL1       -0.4561
     32 C          47.7459   17.0282  -24.4826 C.3     1  UNL1        0.0871
     33 C          46.5609   16.5671  -25.3540 C.3     1  UNL1        0.0244
     34 C          47.1711   17.5381  -23.1388 C.3     1  UNL1        0.0244
     35 C          48.4866   18.2015  -25.1533 C.3     1  UNL1        0.0244
@<TRIPOS>BOND
     1    30    31    1
     2    31    20    1
     3    20    21   ar
     4    21    22   ar
     5    22    23   ar
     6    23    24   ar
     7    24    25   ar
     8    25    26   ar
     9    26    27   ar
    10    27     1    1
    11     1     2    2
    12     1     3   am
    13     3     4    1
    14     4     5    1
    15     5     6    1
    16     6     7    1
    17     7     8    1
    18     6     9    1
    19     9    10    1
    20    10    11   ar
    21    11    12   ar
    22    12    13   ar
    23    13    32    1
    24    32    33    1
    25    32    34    1
    26    32    35    1
    27    13    14   ar
    28    14    15    1
    29    11    16    1
    30    16    17    2
    31    16    18   am
    32    27    28   ar
    33    28    29   ar
    34    29    20   ar
    35    29    24   ar
    36     8     3    1
    37    14    10   ar
    38    18     6    1
    39    18    19    1
@<TRIPOS>MOLECULE
*****
 35 39 0 0 0
SMALL
GASTEIGER

@<TRIPOS>ATOM
      1 C          47.4808   11.2642  -20.7625 C.2     1  UNL1        0.2490
      2 O          47.2757   10.0666  -21.1019 O.2     1  UNL1       -0.2699
      3 N          46.9676   12.3336  -21.5830 N.am    1  UNL1       -0.2760
      4 C          47.7683   13.5488  -21.8033 C.3     1  UNL1        0.0954
      5 C          47.5405   14.1199  -23.2151 C.3     1  UNL1        0.0399
      6 C          47.3757   12.9982  -24.2755 C.3     1  UNL1        0.0645
      7 C          46.1626   12.0810  -23.9060 C.3     1  UNL1        0.0399
      8 C          45.7797   12.1196  -22.4158 C.3     1  UNL1        0.0954
      9 C          48.6963   12.1460  -24.3380 C.3     1  UNL1        0.0481
     10 C          48.7650   11.3448  -25.6045 C.ar    1  UNL1        0.0259
     11 C          48.1813   11.7412  -26.7628 C.ar    1  UNL1        0.1519
     12 N          48.5205   10.9212  -27.7688 N.ar    1  UNL1       -0.1647
     13 N          49.3324    9.9915  -27.2690 N.ar    1  UNL1       -0.2494
     14 C          49.5163   10.2374  -25.9368 C.ar    1  UNL1        0.1047
     15 I          50.7453    9.2104  -24.5408 I       1  UNL1       -0.0219
     16 C          47.3525   12.9343  -26.8203 C.2     1  UNL1        0.2650
     17 O          46.8858   13.3567  -27.9108 O.2     1  UNL1       -0.2684
     18 N          47.1021   13.6299  -25.5893 N.am    1  UNL1       -0.3023
     19 H          46.5452   14.5139  -25.6294 H       1  UNL1        0.1497
     20 C          51.7486   12.4468  -18.5251 C.ar    1  UNL1        0.2248
     21 N          52.4346   12.6910  -17.3729 N.ar    1  UNL1       -0.2101
     22 C          51.8421   12.6369  -16.1517 C.ar    1  UNL1        0.1021
     23 C          50.4874   12.3240  -16.0424 C.ar    1  UNL1        0.0209
     24 C          49.7455   12.0662  -17.2015 C.ar    1  UNL1        0.0060
     25 C          48.3811   11.7554  -17.1209 C.ar    1  UNL1        0.0003
     26 C          47.6486   11.4983  -18.2818 C.ar    1  UNL1        0.0045
     27 C          48.2691   11.5376  -19.5404 C.ar    1  UNL1        0.0537
     28 C          49.6318   11.8672  -19.6271 C.ar    1  UNL1        0.0092
     29 C          50.3790   12.1256  -18.4647 C.ar    1  UNL1        0.0534
     30 C          52.8133   13.7401  -20.3529 C.3     1  UNL1        0.2542
     31 O          52.4030   12.5132  -19.7614 O.3     1  UNL1       -0.4561
     32 C          49.9197    8.9129  -28.1017 C.3     1  UNL1        0.0871
     33 C          49.7771    7.5517  -27.3926 C.3     1  UNL1        0.0244
     34 C          49.1753    8.8181  -29.4557 C.3     1  UNL1        0.0244
     35 C          51.4012    9.2157  -28.3991 C.3     1  UNL1        0.0244
@<TRIPOS>BOND
     1    30    31    1
     2    31    20    1
     3    20    21   ar
     4    21    22   ar
     5    22    23   ar
     6    23    24   ar
     7    24    25   ar
     8    25    26   ar
     9    26    27   ar
    10    27     1    1
    11     1     2    2
    12     1     3   am
    13     3     4    1
    14     4     5    1
    15     5     6    1
    16     6     7    1
    17     7     8    1
    18     6     9    1
    19     9    10    1
    20    10    11   ar
    21    11    12   ar
    22    12    13   ar
    23    13    32    1
    24    32    33    1
    25    32    34    1
    26    32    35    1
    27    13    14   ar
    28    14    15    1
    29    11    16    1
    30    16    17    2
    31    16    18   am
    32    27    28   ar
    33    28    29   ar
    34    29    20   ar
    35    29    24   ar
    36     8     3    1
    37    14    10   ar
    38    18     6    1
    39    18    19    1
@<TRIPOS>MOLECULE
*****
 35 39 0 0 0
SMALL
GASTEIGER

@<TRIPOS>ATOM
      1 C          49.8964   13.1575  -24.0131 C.2     1  UNL1        0.2490
      2 O          50.3877   14.0922  -23.3227 O.2     1  UNL1       -0.2699
      3 N          48.5099   12.7995  -23.8410 N.am    1  UNL1       -0.2760
      4 C          48.0995   11.3864  -23.8735 C.3     1  UNL1        0.0954
      5 C          46.9268   11.1227  -22.9109 C.3     1  UNL1        0.0399
      6 C          47.0526   11.9487  -21.6026 C.3     1  UNL1        0.0645
      7 C          47.0937   13.4781  -21.9324 C.3     1  UNL1        0.0399
      8 C          47.5435   13.7966  -23.3695 C.3     1  UNL1        0.0954
      9 C          48.3650   11.5250  -20.8462 C.3     1  UNL1        0.0481
     10 C          48.3261   11.9559  -19.4098 C.ar    1  UNL1        0.0259
     11 C          47.1730   12.0839  -18.7072 C.ar    1  UNL1        0.1519
     12 N          47.4311   12.3353  -17.4151 N.ar    1  UNL1       -0.1647
     13 N          48.7547   12.3649  -17.2714 N.ar    1  UNL1       -0.2494
     14 C          49.3351   12.1163  -18.4839 C.ar    1  UNL1        0.1047
     15 I          51.3947   11.9338  -18.9724 I       1  UNL1       -0.0219
     16 C          45.8779   11.9093  -19.3445 C.2     1  UNL1        0.2650
     17 O          44.8101   11.9352  -18.6777 O.2     1  UNL1       -0.2684
     18 N          45.8596   11.6829  -20.7623 N.am    1  UNL1       -0.3023
     19 H          44.9354   11.5109  -21.2201 H       1  UNL1        0.1497
     20 C          50.5341    9.9081  -27.7081 C.ar    1  UNL1        0.2248
     21 N          51.3761    9.2658  -28.5661 N.ar    1  UNL1       -0.2101
     22 C          52.7162    9.4880  -28.5680 C.ar    1  UNL1        0.1021
     23 C          53.2777   10.3989  -27.6736 C.ar    1  UNL1        0.0209
     24 C          52.4481   11.0806  -26.7749 C.ar    1  UNL1        0.0060
     25 C          52.9852   12.0060  -25.8695 C.ar    1  UNL1        0.0003
     26 C          52.1510   12.6808  -24.9755 C.ar    1  UNL1        0.0045
     27 C          50.7689   12.4348  -24.9648 C.ar    1  UNL1        0.0537
     28 C          50.2242   11.5221  -25.8833 C.ar    1  UNL1        0.0092
     29 C          51.0551   10.8359  -26.7860 C.ar    1  UNL1        0.0534
     30 C          48.5087    9.0831  -28.8761 C.3     1  UNL1        0.2542
     31 O          49.1590    9.6451  -27.7426 O.3     1  UNL1       -0.4561
     32 C          49.4106   12.6093  -15.9630 C.3     1  UNL1        0.0871
     33 C          48.7634   13.8173  -15.2573 C.3     1  UNL1        0.0244
     34 C          49.2380   11.3780  -15.0407 C.3     1  UNL1        0.0244
     35 C          50.9212   12.8426  -16.1591 C.3     1  UNL1        0.0244
@<TRIPOS>BOND
     1    30    31    1
     2    31    20    1
     3    20    21   ar
     4    21    22   ar
     5    22    23   ar
     6    23    24   ar
     7    24    25   ar
     8    25    26   ar
     9    26    27   ar
    10    27     1    1
    11     1     2    2
    12     1     3   am
    13     3     4    1
    14     4     5    1
    15     5     6    1
    16     6     7    1
    17     7     8    1
    18     6     9    1
    19     9    10    1
    20    10    11   ar
    21    11    12   ar
    22    12    13   ar
    23    13    32    1
    24    32    33    1
    25    32    34    1
    26    32    35    1
    27    13    14   ar
    28    14    15    1
    29    11    16    1
    30    16    17    2
    31    16    18   am
    32    27    28   ar
    33    28    29   ar
    34    29    20   ar
    35    29    24   ar
    36     8     3    1
    37    14    10   ar
    38    18     6    1
    39    18    19    1
