@<TRIPOS>MOLECULE
*****
 40 44 0 0 0
SMALL
GASTEIGER

@<TRIPOS>ATOM
      1 C         -29.7790   46.9090   -8.2610 C.3     1  UNL1        0.1333
      2 N         -28.4663   47.3810   -7.8186 N.ar    1  UNL1       -0.2950
      3 C         -27.6401   46.8353   -6.8825 C.ar    1  UNL1        0.2019
      4 N         -26.4450   47.4694   -6.7731 N.ar    1  UNL1       -0.2134
      5 C         -26.5564   48.4736   -7.6608 C.ar    1  UNL1        0.1033
      6 C         -25.6029   49.4453   -7.9542 C.ar    1  UNL1        0.0284
      7 C         -25.9142   50.4203   -8.9293 C.ar    1  UNL1        0.0922
      8 C         -27.1970   50.4076   -9.5441 C.ar    1  UNL1        0.1782
      9 C         -28.1261   49.3897   -9.2412 C.ar    1  UNL1        0.1897
     10 C         -27.7700   48.4346   -8.2851 C.ar    1  UNL1        0.1173
     11 O         -29.3679   49.3816   -9.8833 O.3     1  UNL1       -0.4669
     12 C         -29.6134   50.2090  -11.0217 C.3     1  UNL1        0.2527
     13 C         -28.9496   51.5775  -10.8316 C.3     1  UNL1        0.2526
     14 O         -27.5852   51.4144  -10.4374 O.3     1  UNL1       -0.4682
     15 C         -24.9138   51.4587   -9.2545 C.2     1  UNL1        0.2526
     16 O         -25.2774   52.6656   -9.2901 O.2     1  UNL1       -0.2697
     17 N         -23.5455   51.1030   -9.5233 N.am    1  UNL1       -0.2803
     18 H         -23.2825   50.0925   -9.5312 H       1  UNL1        0.1552
     19 C         -22.5202   52.0509   -9.8644 C.ar    1  UNL1        0.0506
     20 C         -22.5101   52.7022  -11.1087 C.ar    1  UNL1        0.0170
     21 C         -21.5188   53.6396  -11.4040 C.ar    1  UNL1        0.0309
     22 C         -20.5358   53.9476  -10.4604 C.ar    1  UNL1        0.1441
     23 F         -19.5864   54.8667  -10.7714 F       1  UNL1       -0.2042
     24 C         -20.5403   53.3216   -9.2004 C.ar    1  UNL1        0.1000
     25 C         -21.5472   52.3813   -8.9089 C.ar    1  UNL1        0.0208
     26 C         -19.4821   53.6785   -8.1838 C.3     1  UNL1        0.4207
     27 F         -19.3018   55.0477   -8.0885 F       1  UNL1       -0.1658
     28 F         -18.2799   53.1007   -8.5492 F       1  UNL1       -0.1658
     29 F         -19.8541   53.1990   -6.9408 F       1  UNL1       -0.1658
     30 N         -27.9670   45.6949   -6.0762 N.pl3   1  UNL1       -0.2814
     31 H         -28.2459   44.8195   -6.5731 H       1  UNL1        0.1551
     32 C         -27.7695   45.6371   -4.6528 C.ar    1  UNL1        0.0893
     33 C         -26.5049   45.3267   -4.1137 C.ar    1  UNL1        0.1543
     34 F         -25.4509   45.0528   -4.9232 F       1  UNL1       -0.2028
     35 C         -26.3255   45.2663   -2.7308 C.ar    1  UNL1        0.0314
     36 C         -27.3988   45.5018   -1.8724 C.ar    1  UNL1        0.0090
     37 C         -28.6643   45.7950   -2.3884 C.ar    1  UNL1        0.0420
     38 I         -30.2420   46.1355   -1.0139 I       1  UNL1       -0.0416
     39 C         -28.8569   45.8588   -3.7817 C.ar    1  UNL1        0.0786
     40 CL        -30.4438   46.2581   -4.4392 Cl      1  UNL1       -0.0804
@<TRIPOS>BOND
     1     1     2    1
     2     2     3   ar
     3     3    30    1
     4    30    32    1
     5    32    33   ar
     6    33    34    1
     7    33    35   ar
     8    35    36   ar
     9    36    37   ar
    10    37    38    1
    11    37    39   ar
    12    39    40    1
    13     3     4   ar
    14     4     5   ar
    15     5     6   ar
    16     6     7   ar
    17     7    15    1
    18    15    16    2
    19    15    17   am
    20    17    19    1
    21    19    20   ar
    22    20    21   ar
    23    21    22   ar
    24    22    23    1
    25    22    24   ar
    26    24    26    1
    27    26    27    1
    28    26    28    1
    29    26    29    1
    30    24    25   ar
    31     7     8   ar
    32     8     9   ar
    33     9    10   ar
    34     9    11    1
    35    11    12    1
    36    12    13    1
    37    13    14    1
    38    10     2   ar
    39    39    32   ar
    40    10     5   ar
    41    25    19   ar
    42    14     8    1
    43    30    31    1
    44    17    18    1
@<TRIPOS>MOLECULE
*****
 40 44 0 0 0
SMALL
GASTEIGER

@<TRIPOS>ATOM
      1 C         -31.3853   50.0638   -7.0213 C.3     1  UNL1        0.1333
      2 N         -30.0484   50.4873   -6.6030 N.ar    1  UNL1       -0.2950
      3 C         -29.5231   50.5185   -5.3461 C.ar    1  UNL1        0.2019
      4 N         -28.2147   50.8778   -5.3100 N.ar    1  UNL1       -0.2134
      5 C         -27.9325   51.1115   -6.6041 C.ar    1  UNL1        0.1033
      6 C         -26.7120   51.5176   -7.1378 C.ar    1  UNL1        0.0284
      7 C         -26.6189   51.7070   -8.5356 C.ar    1  UNL1        0.0922
      8 C         -27.7753   51.5229   -9.3434 C.ar    1  UNL1        0.1782
      9 C         -28.9871   51.0833   -8.7693 C.ar    1  UNL1        0.1897
     10 C         -29.0298   50.8900   -7.3858 C.ar    1  UNL1        0.1173
     11 O         -30.1002   50.8790   -9.5900 O.3     1  UNL1       -0.4669
     12 C         -29.9696   50.8431  -11.0122 C.3     1  UNL1        0.2527
     13 C         -28.9618   51.9010  -11.4758 C.3     1  UNL1        0.2526
     14 O         -27.7549   51.8001  -10.7163 O.3     1  UNL1       -0.4682
     15 C         -25.3309   52.1367   -9.1200 C.2     1  UNL1        0.2526
     16 O         -25.3056   53.1640   -9.8509 O.2     1  UNL1       -0.2697
     17 N         -24.1227   51.4000   -8.8587 N.am    1  UNL1       -0.2803
     18 H         -24.1809   50.5281   -8.2869 H       1  UNL1        0.1552
     19 C         -22.8377   51.7428   -9.4040 C.ar    1  UNL1        0.0506
     20 C         -22.5734   51.6334  -10.7791 C.ar    1  UNL1        0.0170
     21 C         -21.3258   51.9997  -11.2869 C.ar    1  UNL1        0.0309
     22 C         -20.3337   52.4902  -10.4344 C.ar    1  UNL1        0.1441
     23 F         -19.1310   52.8441  -10.9551 F       1  UNL1       -0.2042
     24 C         -20.5854   52.6270   -9.0569 C.ar    1  UNL1        0.1000
     25 C         -21.8485   52.2603   -8.5540 C.ar    1  UNL1        0.0208
     26 C         -19.5094   53.1763   -8.1506 C.3     1  UNL1        0.4207
     27 F         -18.3514   52.4201   -8.2105 F       1  UNL1       -0.1658
     28 F         -19.9656   53.1799   -6.8450 F       1  UNL1       -0.1658
     29 F         -19.2052   54.4723   -8.5261 F       1  UNL1       -0.1658
     30 N         -30.2527   50.2010   -4.1527 N.pl3   1  UNL1       -0.2814
     31 H         -31.1206   50.7493   -3.9600 H       1  UNL1        0.1551
     32 C         -29.9578   49.0737   -3.3095 C.ar    1  UNL1        0.0893
     33 C         -29.1844   47.9982   -3.7903 C.ar    1  UNL1        0.1543
     34 F         -28.7196   47.9897   -5.0651 F       1  UNL1       -0.2028
     35 C         -28.9097   46.9058   -2.9660 C.ar    1  UNL1        0.0314
     36 C         -29.4078   46.8653   -1.6644 C.ar    1  UNL1        0.0090
     37 C         -30.1906   47.9148   -1.1751 C.ar    1  UNL1        0.0420
     38 I         -30.9116   47.7719    0.8134 I       1  UNL1       -0.0416
     39 C         -30.4738   49.0220   -1.9975 C.ar    1  UNL1        0.0786
     40 CL        -31.4352   50.3638   -1.3766 Cl      1  UNL1       -0.0804
@<TRIPOS>BOND
     1     1     2    1
     2     2     3   ar
     3     3    30    1
     4    30    32    1
     5    32    33   ar
     6    33    34    1
     7    33    35   ar
     8    35    36   ar
     9    36    37   ar
    10    37    38    1
    11    37    39   ar
    12    39    40    1
    13     3     4   ar
    14     4     5   ar
    15     5     6   ar
    16     6     7   ar
    17     7    15    1
    18    15    16    2
    19    15    17   am
    20    17    19    1
    21    19    20   ar
    22    20    21   ar
    23    21    22   ar
    24    22    23    1
    25    22    24   ar
    26    24    26    1
    27    26    27    1
    28    26    28    1
    29    26    29    1
    30    24    25   ar
    31     7     8   ar
    32     8     9   ar
    33     9    10   ar
    34     9    11    1
    35    11    12    1
    36    12    13    1
    37    13    14    1
    38    10     2   ar
    39    39    32   ar
    40    10     5   ar
    41    25    19   ar
    42    14     8    1
    43    30    31    1
    44    17    18    1
@<TRIPOS>MOLECULE
*****
 40 44 0 0 0
SMALL
GASTEIGER

@<TRIPOS>ATOM
      1 C         -30.9517   50.1083   -8.4353 C.3     1  UNL1        0.1333
      2 N         -29.7590   49.9622   -9.2705 N.ar    1  UNL1       -0.2950
      3 C         -29.6763   49.5479  -10.5660 C.ar    1  UNL1        0.2019
      4 N         -28.4222   49.6132  -11.0810 N.ar    1  UNL1       -0.2134
      5 C         -27.6940   50.0566  -10.0408 C.ar    1  UNL1        0.1033
      6 C         -26.3234   50.3022  -10.0187 C.ar    1  UNL1        0.0284
      7 C         -25.7436   50.7722   -8.8182 C.ar    1  UNL1        0.0922
      8 C         -26.5613   50.9361   -7.6657 C.ar    1  UNL1        0.1782
      9 C         -27.9515   50.7041   -7.7353 C.ar    1  UNL1        0.1897
     10 C         -28.4861   50.2585   -8.9473 C.ar    1  UNL1        0.1173
     11 O         -28.7377   50.9036   -6.5967 O.3     1  UNL1       -0.4669
     12 C         -28.2192   51.5872   -5.4545 C.3     1  UNL1        0.2527
     13 C         -26.7595   51.1842   -5.2168 C.3     1  UNL1        0.2526
     14 O         -26.0114   51.2991   -6.4296 O.3     1  UNL1       -0.4682
     15 C         -24.2904   51.0394   -8.7765 C.2     1  UNL1        0.2526
     16 O         -23.6577   50.8049   -7.7112 O.2     1  UNL1       -0.2697
     17 N         -23.6043   51.5554   -9.9315 N.am    1  UNL1       -0.2803
     18 H         -24.1609   51.7827  -10.7853 H       1  UNL1        0.1552
     19 C         -22.1995   51.8580   -9.9640 C.ar    1  UNL1        0.0506
     20 C         -21.4577   51.7638  -11.1529 C.ar    1  UNL1        0.0170
     21 C         -20.1006   52.0907  -11.1632 C.ar    1  UNL1        0.0309
     22 C         -19.4714   52.5265   -9.9946 C.ar    1  UNL1        0.1441
     23 F         -18.1518   52.8429  -10.0335 F       1  UNL1       -0.2042
     24 C         -20.2014   52.6476   -8.7980 C.ar    1  UNL1        0.1000
     25 C         -21.5711   52.3210   -8.7979 C.ar    1  UNL1        0.0208
     26 C         -19.5117   53.1379   -7.5471 C.3     1  UNL1        0.4207
     27 F         -18.8265   54.3203   -7.7676 F       1  UNL1       -0.1658
     28 F         -18.6114   52.1817   -7.1136 F       1  UNL1       -0.1658
     29 F         -20.4514   53.3556   -6.5557 F       1  UNL1       -0.1658
     30 N         -30.7897   49.0871  -11.3441 N.pl3   1  UNL1       -0.2814
     31 H         -31.7262   49.4987  -11.1333 H       1  UNL1        0.1551
     32 C         -30.6642   48.2328  -12.4944 C.ar    1  UNL1        0.0893
     33 C         -30.2447   46.8948  -12.3548 C.ar    1  UNL1        0.1543
     34 F         -29.9276   46.3878  -11.1368 F       1  UNL1       -0.2028
     35 C         -30.1196   46.0761  -13.4784 C.ar    1  UNL1        0.0314
     36 C         -30.3981   46.5793  -14.7485 C.ar    1  UNL1        0.0090
     37 C         -30.7996   47.9085  -14.9088 C.ar    1  UNL1        0.0420
     38 I         -31.1989   48.5945  -16.8746 I       1  UNL1       -0.0416
     39 C         -30.9294   48.7434  -13.7826 C.ar    1  UNL1        0.0786
     40 CL        -31.4649   50.4128  -13.9744 Cl      1  UNL1       -0.0804
@<TRIPOS>BOND
     1     1     2    1
     2     2     3   ar
     3     3    30    1
     4    30    32    1
     5    32    33   ar
     6    33    34    1
     7    33    35   ar
     8    35    36   ar
     9    36    37   ar
    10    37    38    1
    11    37    39   ar
    12    39    40    1
    13     3     4   ar
    14     4     5   ar
    15     5     6   ar
    16     6     7   ar
    17     7    15    1
    18    15    16    2
    19    15    17   am
    20    17    19    1
    21    19    20   ar
    22    20    21   ar
    23    21    22   ar
    24    22    23    1
    25    22    24   ar
    26    24    26    1
    27    26    27    1
    28    26    28    1
    29    26    29    1
    30    24    25   ar
    31     7     8   ar
    32     8     9   ar
    33     9    10   ar
    34     9    11    1
    35    11    12    1
    36    12    13    1
    37    13    14    1
    38    10     2   ar
    39    39    32   ar
    40    10     5   ar
    41    25    19   ar
    42    14     8    1
    43    30    31    1
    44    17    18    1
@<TRIPOS>MOLECULE
*****
 40 44 0 0 0
SMALL
GASTEIGER

@<TRIPOS>ATOM
      1 C         -30.7790   49.1735   -6.8434 C.3     1  UNL1        0.1333
      2 N         -29.4055   49.5462   -6.5025 N.ar    1  UNL1       -0.2950
      3 C         -28.7233   49.3060   -5.3477 C.ar    1  UNL1        0.2019
      4 N         -27.4264   49.7045   -5.3869 N.ar    1  UNL1       -0.2134
      5 C         -27.3165   50.2465   -6.6129 C.ar    1  UNL1        0.1033
      6 C         -26.1807   50.8196   -7.1794 C.ar    1  UNL1        0.0284
      7 C         -26.2710   51.3345   -8.4928 C.ar    1  UNL1        0.0922
      8 C         -27.5191   51.2932   -9.1743 C.ar    1  UNL1        0.1782
      9 C         -28.6405   50.6785   -8.5779 C.ar    1  UNL1        0.1897
     10 C         -28.5020   50.1654   -7.2853 C.ar    1  UNL1        0.1173
     11 O         -29.8470   50.6226   -9.2819 O.3     1  UNL1       -0.4669
     12 C         -29.9001   50.9259  -10.6769 C.3     1  UNL1        0.2527
     13 C         -28.9755   52.1064  -10.9951 C.3     1  UNL1        0.2526
     14 O         -27.6796   51.8843  -10.4341 O.3     1  UNL1       -0.4682
     15 C         -25.0753   51.9454   -9.1107 C.2     1  UNL1        0.2526
     16 O         -25.2169   52.9743   -9.8259 O.2     1  UNL1       -0.2697
     17 N         -23.7686   51.3808   -8.8993 N.am    1  UNL1       -0.2803
     18 H         -23.6863   50.5029   -8.3397 H       1  UNL1        0.1552
     19 C         -22.5624   51.9048   -9.4795 C.ar    1  UNL1        0.0506
     20 C         -22.3841   51.9608  -10.8715 C.ar    1  UNL1        0.0170
     21 C         -21.2147   52.5006  -11.4097 C.ar    1  UNL1        0.0309
     22 C         -20.2173   53.0014  -10.5695 C.ar    1  UNL1        0.1441
     23 F         -19.0922   53.5256  -11.1192 F       1  UNL1       -0.2042
     24 C         -20.3854   52.9735   -9.1729 C.ar    1  UNL1        0.1000
     25 C         -21.5705   52.4323   -8.6387 C.ar    1  UNL1        0.0208
     26 C         -19.3066   53.5356   -8.2780 C.3     1  UNL1        0.4207
     27 F         -18.0876   52.9146   -8.4899 F       1  UNL1       -0.1658
     28 F         -19.6674   53.3568   -6.9549 F       1  UNL1       -0.1658
     29 F         -19.1572   54.8881   -8.5265 F       1  UNL1       -0.1658
     30 N         -29.2886   48.6863   -4.1841 N.pl3   1  UNL1       -0.2814
     31 H         -29.9461   49.2573   -3.6074 H       1  UNL1        0.1551
     32 C         -29.1394   47.2914   -3.8670 C.ar    1  UNL1        0.0893
     33 C         -30.2067   46.3916   -4.0594 C.ar    1  UNL1        0.1543
     34 F         -31.4058   46.8227   -4.5258 F       1  UNL1       -0.2028
     35 C         -30.0538   45.0409   -3.7420 C.ar    1  UNL1        0.0314
     36 C         -28.8474   44.5740   -3.2217 C.ar    1  UNL1        0.0090
     37 C         -27.7828   45.4542   -3.0085 C.ar    1  UNL1        0.0420
     38 I         -25.9853   44.6628   -2.2103 I       1  UNL1       -0.0416
     39 C         -27.9256   46.8187   -3.3252 C.ar    1  UNL1        0.0786
     40 CL        -26.5765   47.9293   -3.0873 Cl      1  UNL1       -0.0804
@<TRIPOS>BOND
     1     1     2    1
     2     2     3   ar
     3     3    30    1
     4    30    32    1
     5    32    33   ar
     6    33    34    1
     7    33    35   ar
     8    35    36   ar
     9    36    37   ar
    10    37    38    1
    11    37    39   ar
    12    39    40    1
    13     3     4   ar
    14     4     5   ar
    15     5     6   ar
    16     6     7   ar
    17     7    15    1
    18    15    16    2
    19    15    17   am
    20    17    19    1
    21    19    20   ar
    22    20    21   ar
    23    21    22   ar
    24    22    23    1
    25    22    24   ar
    26    24    26    1
    27    26    27    1
    28    26    28    1
    29    26    29    1
    30    24    25   ar
    31     7     8   ar
    32     8     9   ar
    33     9    10   ar
    34     9    11    1
    35    11    12    1
    36    12    13    1
    37    13    14    1
    38    10     2   ar
    39    39    32   ar
    40    10     5   ar
    41    25    19   ar
    42    14     8    1
    43    30    31    1
    44    17    18    1
@<TRIPOS>MOLECULE
*****
 40 44 0 0 0
SMALL
GASTEIGER

@<TRIPOS>ATOM
      1 C         -25.5500   51.6105  -12.5324 C.3     1  UNL1        0.1333
      2 N         -25.1760   51.4897  -11.1228 N.ar    1  UNL1       -0.2950
      3 C         -23.9326   51.5415  -10.5677 C.ar    1  UNL1        0.2019
      4 N         -23.9376   51.4878   -9.2115 N.ar    1  UNL1       -0.2134
      5 C         -25.2450   51.3626   -8.9215 C.ar    1  UNL1        0.1033
      6 C         -25.8190   51.2603   -7.6568 C.ar    1  UNL1        0.0284
      7 C         -27.2243   51.1383   -7.5639 C.ar    1  UNL1        0.0922
      8 C         -27.9998   51.0788   -8.7550 C.ar    1  UNL1        0.1782
      9 C         -27.3844   51.2144  -10.0176 C.ar    1  UNL1        0.1897
     10 C         -25.9944   51.3521  -10.0627 C.ar    1  UNL1        0.1173
     11 O         -28.1732   51.1847  -11.1715 O.3     1  UNL1       -0.4669
     12 C         -29.5956   51.2913  -11.0938 C.3     1  UNL1        0.2527
     13 C         -30.1180   50.5041   -9.8867 C.3     1  UNL1        0.2526
     14 O         -29.3818   50.8541   -8.7124 O.3     1  UNL1       -0.4682
     15 C         -27.8511   51.0298   -6.2297 C.2     1  UNL1        0.2526
     16 O         -27.3564   51.6798   -5.2690 O.2     1  UNL1       -0.2697
     17 N         -29.0093   50.2001   -6.0267 N.am    1  UNL1       -0.2803
     18 H         -29.3704   49.6383   -6.8295 H       1  UNL1        0.1552
     19 C         -29.6634   50.0283   -4.7584 C.ar    1  UNL1        0.0506
     20 C         -30.8243   50.7475   -4.4301 C.ar    1  UNL1        0.0170
     21 C         -31.4561   50.5411   -3.2026 C.ar    1  UNL1        0.0309
     22 C         -30.9471   49.6086   -2.2954 C.ar    1  UNL1        0.1441
     23 F         -31.5840   49.4237   -1.1109 F       1  UNL1       -0.2042
     24 C         -29.7973   48.8630   -2.6137 C.ar    1  UNL1        0.1000
     25 C         -29.1694   49.0736   -3.8564 C.ar    1  UNL1        0.0208
     26 C         -29.2696   47.8452   -1.6307 C.3     1  UNL1        0.4207
     27 F         -30.1762   46.8218   -1.4137 F       1  UNL1       -0.1658
     28 F         -29.0084   48.4653   -0.4224 F       1  UNL1       -0.1658
     29 F         -28.0979   47.2950   -2.1184 F       1  UNL1       -0.1658
     30 N         -22.7132   51.6497  -11.3152 N.pl3   1  UNL1       -0.2814
     31 H         -22.7443   51.3870  -12.3257 H       1  UNL1        0.1551
     32 C         -21.5115   52.2530  -10.8047 C.ar    1  UNL1        0.0893
     33 C         -20.3246   51.5029  -10.6845 C.ar    1  UNL1        0.1543
     34 F         -20.2930   50.1898  -11.0251 F       1  UNL1       -0.2028
     35 C         -19.1656   52.0962  -10.1814 C.ar    1  UNL1        0.0314
     36 C         -19.1766   53.4325   -9.7837 C.ar    1  UNL1        0.0090
     37 C         -20.3485   54.1882   -9.8799 C.ar    1  UNL1        0.0420
     38 I         -20.2796   56.2111   -9.2495 I       1  UNL1       -0.0416
     39 C         -21.5234   53.6002  -10.3862 C.ar    1  UNL1        0.0786
     40 CL        -22.9975   54.5562  -10.5389 Cl      1  UNL1       -0.0804
@<TRIPOS>BOND
     1     1     2    1
     2     2     3   ar
     3     3    30    1
     4    30    32    1
     5    32    33   ar
     6    33    34    1
     7    33    35   ar
     8    35    36   ar
     9    36    37   ar
    10    37    38    1
    11    37    39   ar
    12    39    40    1
    13     3     4   ar
    14     4     5   ar
    15     5     6   ar
    16     6     7   ar
    17     7    15    1
    18    15    16    2
    19    15    17   am
    20    17    19    1
    21    19    20   ar
    22    20    21   ar
    23    21    22   ar
    24    22    23    1
    25    22    24   ar
    26    24    26    1
    27    26    27    1
    28    26    28    1
    29    26    29    1
    30    24    25   ar
    31     7     8   ar
    32     8     9   ar
    33     9    10   ar
    34     9    11    1
    35    11    12    1
    36    12    13    1
    37    13    14    1
    38    10     2   ar
    39    39    32   ar
    40    10     5   ar
    41    25    19   ar
    42    14     8    1
    43    30    31    1
    44    17    18    1
@<TRIPOS>MOLECULE
*****
 40 44 0 0 0
SMALL
GASTEIGER

@<TRIPOS>ATOM
      1 C         -25.7539   51.3942  -12.1982 C.3     1  UNL1        0.1333
      2 N         -25.1597   51.1873  -10.8769 N.ar    1  UNL1       -0.2950
      3 C         -23.9091   51.5173  -10.4483 C.ar    1  UNL1        0.2019
      4 N         -23.7015   51.2719   -9.1296 N.ar    1  UNL1       -0.2134
      5 C         -24.8700   50.7336   -8.7376 C.ar    1  UNL1        0.1033
      6 C         -25.2044   50.2904   -7.4604 C.ar    1  UNL1        0.0284
      7 C         -26.4958   49.7548   -7.2510 C.ar    1  UNL1        0.0922
      8 C         -27.3918   49.6435   -8.3504 C.ar    1  UNL1        0.1782
      9 C         -27.0267   50.1299   -9.6237 C.ar    1  UNL1        0.1897
     10 C         -25.7471   50.6691   -9.7820 C.ar    1  UNL1        0.1173
     11 O         -27.9379   50.0377  -10.6800 O.3     1  UNL1       -0.4669
     12 C         -29.3094   49.7158  -10.4431 C.3     1  UNL1        0.2527
     13 C         -29.4186   48.6475   -9.3492 C.3     1  UNL1        0.2526
     14 O         -28.6407   49.0246   -8.2107 O.3     1  UNL1       -0.4682
     15 C         -26.8687   49.2806   -5.9016 C.2     1  UNL1        0.2526
     16 O         -26.5555   49.9813   -4.9010 O.2     1  UNL1       -0.2697
     17 N         -27.5807   48.0421   -5.7282 N.am    1  UNL1       -0.2803
     18 H         -27.7874   47.4604   -6.5705 H       1  UNL1        0.1552
     19 C         -27.9617   47.5054   -4.4503 C.ar    1  UNL1        0.0506
     20 C         -27.3631   46.3433   -3.9366 C.ar    1  UNL1        0.0170
     21 C         -27.7312   45.8590   -2.6802 C.ar    1  UNL1        0.0309
     22 C         -28.6883   46.5324   -1.9175 C.ar    1  UNL1        0.1441
     23 F         -29.0242   46.0426   -0.6967 F       1  UNL1       -0.2042
     24 C         -29.2848   47.7096   -2.4051 C.ar    1  UNL1        0.1000
     25 C         -28.9036   48.1942   -3.6710 C.ar    1  UNL1        0.0208
     26 C         -30.3044   48.4369   -1.5611 C.3     1  UNL1        0.4207
     27 F         -30.7889   49.5658   -2.1993 F       1  UNL1       -0.1658
     28 F         -29.7224   48.8220   -0.3671 F       1  UNL1       -0.1658
     29 F         -31.3689   47.5952   -1.2937 F       1  UNL1       -0.1658
     30 N         -22.8864   52.0792  -11.2825 N.pl3   1  UNL1       -0.2814
     31 H         -23.1167   52.2282  -12.2903 H       1  UNL1        0.1551
     32 C         -21.6424   52.6007  -10.7835 C.ar    1  UNL1        0.0893
     33 C         -20.4943   51.7860  -10.7200 C.ar    1  UNL1        0.1543
     34 F         -20.5405   50.4860  -11.1059 F       1  UNL1       -0.2028
     35 C         -19.2935   52.3000  -10.2276 C.ar    1  UNL1        0.0314
     36 C         -19.2240   53.6202   -9.7845 C.ar    1  UNL1        0.0090
     37 C         -20.3562   54.4388   -9.8242 C.ar    1  UNL1        0.0420
     38 I         -20.1650   56.4318   -9.1272 I       1  UNL1       -0.0416
     39 C         -21.5726   53.9311  -10.3191 C.ar    1  UNL1        0.0786
     40 CL        -22.9974   54.9673  -10.4005 Cl      1  UNL1       -0.0804
@<TRIPOS>BOND
     1     1     2    1
     2     2     3   ar
     3     3    30    1
     4    30    32    1
     5    32    33   ar
     6    33    34    1
     7    33    35   ar
     8    35    36   ar
     9    36    37   ar
    10    37    38    1
    11    37    39   ar
    12    39    40    1
    13     3     4   ar
    14     4     5   ar
    15     5     6   ar
    16     6     7   ar
    17     7    15    1
    18    15    16    2
    19    15    17   am
    20    17    19    1
    21    19    20   ar
    22    20    21   ar
    23    21    22   ar
    24    22    23    1
    25    22    24   ar
    26    24    26    1
    27    26    27    1
    28    26    28    1
    29    26    29    1
    30    24    25   ar
    31     7     8   ar
    32     8     9   ar
    33     9    10   ar
    34     9    11    1
    35    11    12    1
    36    12    13    1
    37    13    14    1
    38    10     2   ar
    39    39    32   ar
    40    10     5   ar
    41    25    19   ar
    42    14     8    1
    43    30    31    1
    44    17    18    1
@<TRIPOS>MOLECULE
*****
 40 44 0 0 0
SMALL
GASTEIGER

@<TRIPOS>ATOM
      1 C         -24.0294   52.9881  -11.4685 C.3     1  UNL1        0.1333
      2 N         -23.7371   52.2530  -10.2373 N.ar    1  UNL1       -0.2950
      3 C         -22.5843   52.2398   -9.5108 C.ar    1  UNL1        0.2019
      4 N         -22.6713   51.5222   -8.3621 N.ar    1  UNL1       -0.2134
      5 C         -23.9276   51.0436   -8.4023 C.ar    1  UNL1        0.1033
      6 C         -24.5476   50.2304   -7.4569 C.ar    1  UNL1        0.0284
      7 C         -25.8857   49.8349   -7.6838 C.ar    1  UNL1        0.0922
      8 C         -26.5390   50.2381   -8.8815 C.ar    1  UNL1        0.1782
      9 C         -25.8871   51.0859   -9.8021 C.ar    1  UNL1        0.1897
     10 C         -24.5709   51.4683   -9.5292 C.ar    1  UNL1        0.1173
     11 O         -26.5629   51.4937  -10.9559 O.3     1  UNL1       -0.4669
     12 C         -27.9714   51.2975  -11.0923 C.3     1  UNL1        0.2527
     13 C         -28.3732   49.9387  -10.5074 C.3     1  UNL1        0.2526
     14 O         -27.8264   49.7842   -9.1957 O.3     1  UNL1       -0.4682
     15 C         -26.5602   48.9728   -6.6905 C.2     1  UNL1        0.2526
     16 O         -27.1569   47.9357   -7.0887 O.2     1  UNL1       -0.2697
     17 N         -26.5358   49.3058   -5.2907 N.am    1  UNL1       -0.2803
     18 H         -26.0730   50.1938   -4.9946 H       1  UNL1        0.1552
     19 C         -27.1823   48.5299   -4.2679 C.ar    1  UNL1        0.0506
     20 C         -28.3210   49.0061   -3.5977 C.ar    1  UNL1        0.0170
     21 C         -28.9466   48.2205   -2.6282 C.ar    1  UNL1        0.0309
     22 C         -28.4536   46.9490   -2.3250 C.ar    1  UNL1        0.1441
     23 F         -29.0840   46.2037   -1.3816 F       1  UNL1       -0.2042
     24 C         -27.3265   46.4451   -2.9996 C.ar    1  UNL1        0.1000
     25 C         -26.7050   47.2421   -3.9801 C.ar    1  UNL1        0.0208
     26 C         -26.8163   45.0615   -2.6743 C.3     1  UNL1        0.4207
     27 F         -26.5095   44.9293   -1.3309 F       1  UNL1       -0.1658
     28 F         -25.6755   44.8065   -3.4134 F       1  UNL1       -0.1658
     29 F         -27.7817   44.1247   -2.9964 F       1  UNL1       -0.1658
     30 N         -21.3771   52.9149   -9.8905 N.pl3   1  UNL1       -0.2814
     31 H         -21.4716   53.7788  -10.4699 H       1  UNL1        0.1551
     32 C         -20.0751   52.5738   -9.3833 C.ar    1  UNL1        0.0893
     33 C         -19.8126   52.5999   -7.9990 C.ar    1  UNL1        0.1543
     34 F         -20.7733   52.9688   -7.1147 F       1  UNL1       -0.2028
     35 C         -18.5436   52.2738   -7.5176 C.ar    1  UNL1        0.0314
     36 C         -17.5232   51.9306   -8.4036 C.ar    1  UNL1        0.0090
     37 C         -17.7598   51.9151   -9.7810 C.ar    1  UNL1        0.0420
     38 I         -16.1524   51.3864  -11.0583 I       1  UNL1       -0.0416
     39 C         -19.0360   52.2420  -10.2779 C.ar    1  UNL1        0.0786
     40 CL        -19.3499   52.1949  -12.0127 Cl      1  UNL1       -0.0804
@<TRIPOS>BOND
     1     1     2    1
     2     2     3   ar
     3     3    30    1
     4    30    32    1
     5    32    33   ar
     6    33    34    1
     7    33    35   ar
     8    35    36   ar
     9    36    37   ar
    10    37    38    1
    11    37    39   ar
    12    39    40    1
    13     3     4   ar
    14     4     5   ar
    15     5     6   ar
    16     6     7   ar
    17     7    15    1
    18    15    16    2
    19    15    17   am
    20    17    19    1
    21    19    20   ar
    22    20    21   ar
    23    21    22   ar
    24    22    23    1
    25    22    24   ar
    26    24    26    1
    27    26    27    1
    28    26    28    1
    29    26    29    1
    30    24    25   ar
    31     7     8   ar
    32     8     9   ar
    33     9    10   ar
    34     9    11    1
    35    11    12    1
    36    12    13    1
    37    13    14    1
    38    10     2   ar
    39    39    32   ar
    40    10     5   ar
    41    25    19   ar
    42    14     8    1
    43    30    31    1
    44    17    18    1
@<TRIPOS>MOLECULE
*****
 40 44 0 0 0
SMALL
GASTEIGER

@<TRIPOS>ATOM
      1 C         -24.0012   53.0237  -11.3549 C.3     1  UNL1        0.1333
      2 N         -23.7031   52.2744  -10.1337 N.ar    1  UNL1       -0.2950
      3 C         -22.5480   52.2551   -9.4113 C.ar    1  UNL1        0.2019
      4 N         -22.6295   51.5233   -8.2710 N.ar    1  UNL1       -0.2134
      5 C         -23.8848   51.0423   -8.3129 C.ar    1  UNL1        0.1033
      6 C         -24.4997   50.2161   -7.3755 C.ar    1  UNL1        0.0284
      7 C         -25.8376   49.8203   -7.6028 C.ar    1  UNL1        0.0922
      8 C         -26.4958   50.2365   -8.7934 C.ar    1  UNL1        0.1782
      9 C         -25.8489   51.0970   -9.7057 C.ar    1  UNL1        0.1897
     10 C         -24.5327   51.4792   -9.4325 C.ar    1  UNL1        0.1173
     11 O         -26.5295   51.5172  -10.8523 O.3     1  UNL1       -0.4669
     12 C         -27.9379   51.3192  -10.9865 C.3     1  UNL1        0.2527
     13 C         -28.3347   49.9525  -10.4169 C.3     1  UNL1        0.2526
     14 O         -27.7831   49.7833   -9.1089 O.3     1  UNL1       -0.4682
     15 C         -26.5068   48.9445   -6.6179 C.2     1  UNL1        0.2526
     16 O         -26.9985   47.8513   -7.0093 O.2     1  UNL1       -0.2697
     17 N         -26.5949   49.3276   -5.2336 N.am    1  UNL1       -0.2803
     18 H         -26.2189   50.2585   -4.9461 H       1  UNL1        0.1552
     19 C         -27.2445   48.5409   -4.2211 C.ar    1  UNL1        0.0506
     20 C         -26.6309   47.4027   -3.6727 C.ar    1  UNL1        0.0170
     21 C         -27.2714   46.6724   -2.6702 C.ar    1  UNL1        0.0309
     22 C         -28.5220   47.0741   -2.1946 C.ar    1  UNL1        0.1441
     23 F         -29.1205   46.3488   -1.2155 F       1  UNL1       -0.2042
     24 C         -29.1442   48.2232   -2.7160 C.ar    1  UNL1        0.1000
     25 C         -28.4886   48.9570   -3.7231 C.ar    1  UNL1        0.0208
     26 C         -30.4878   48.6556   -2.1787 C.3     1  UNL1        0.4207
     27 F         -31.4456   47.6683   -2.3341 F       1  UNL1       -0.1658
     28 F         -30.9095   49.7877   -2.8520 F       1  UNL1       -0.1658
     29 F         -30.3752   48.9473   -0.8313 F       1  UNL1       -0.1658
     30 N         -21.3435   52.9376   -9.7866 N.pl3   1  UNL1       -0.2814
     31 H         -21.4424   53.8126  -10.3483 H       1  UNL1        0.1551
     32 C         -20.0378   52.5870   -9.2957 C.ar    1  UNL1        0.0893
     33 C         -19.7570   52.6139   -7.9150 C.ar    1  UNL1        0.1543
     34 F         -20.7030   52.9927   -7.0191 F       1  UNL1       -0.2028
     35 C         -18.4845   52.2784   -7.4496 C.ar    1  UNL1        0.0314
     36 C         -17.4786   51.9250   -8.3481 C.ar    1  UNL1        0.0090
     37 C         -17.7334   51.9085   -9.7223 C.ar    1  UNL1        0.0420
     38 I         -16.1473   51.3638  -11.0193 I       1  UNL1       -0.0416
     39 C         -19.0133   52.2447  -10.2031 C.ar    1  UNL1        0.0786
     40 CL        -19.3503   52.1965  -11.9336 Cl      1  UNL1       -0.0804
@<TRIPOS>BOND
     1     1     2    1
     2     2     3   ar
     3     3    30    1
     4    30    32    1
     5    32    33   ar
     6    33    34    1
     7    33    35   ar
     8    35    36   ar
     9    36    37   ar
    10    37    38    1
    11    37    39   ar
    12    39    40    1
    13     3     4   ar
    14     4     5   ar
    15     5     6   ar
    16     6     7   ar
    17     7    15    1
    18    15    16    2
    19    15    17   am
    20    17    19    1
    21    19    20   ar
    22    20    21   ar
    23    21    22   ar
    24    22    23    1
    25    22    24   ar
    26    24    26    1
    27    26    27    1
    28    26    28    1
    29    26    29    1
    30    24    25   ar
    31     7     8   ar
    32     8     9   ar
    33     9    10   ar
    34     9    11    1
    35    11    12    1
    36    12    13    1
    37    13    14    1
    38    10     2   ar
    39    39    32   ar
    40    10     5   ar
    41    25    19   ar
    42    14     8    1
    43    30    31    1
    44    17    18    1
@<TRIPOS>MOLECULE
*****
 40 44 0 0 0
SMALL
GASTEIGER

@<TRIPOS>ATOM
      1 C         -31.4469   50.3636   -9.3754 C.3     1  UNL1        0.1333
      2 N         -30.1686   50.6505   -8.7234 N.ar    1  UNL1       -0.2950
      3 C         -29.8944   50.7263   -7.3908 C.ar    1  UNL1        0.2019
      4 N         -28.5797   50.9196   -7.1141 N.ar    1  UNL1       -0.2134
      5 C         -28.0251   51.0007   -8.3368 C.ar    1  UNL1        0.1033
      6 C         -26.6802   51.2010   -8.6376 C.ar    1  UNL1        0.0284
      7 C         -26.2957   51.2529   -9.9970 C.ar    1  UNL1        0.0922
      8 C         -27.2904   51.1452  -11.0083 C.ar    1  UNL1        0.1782
      9 C         -28.6393   50.9144  -10.6640 C.ar    1  UNL1        0.1897
     10 C         -28.9727   50.8510   -9.3083 C.ar    1  UNL1        0.1173
     11 O         -29.5923   50.7802  -11.6780 O.3     1  UNL1       -0.4669
     12 C         -29.1985   50.6026  -13.0397 C.3     1  UNL1        0.2527
     13 C         -27.9818   51.4800  -13.3551 C.3     1  UNL1        0.2526
     14 O         -26.9689   51.2953  -12.3634 O.3     1  UNL1       -0.4682
     15 C         -24.8723   51.4636  -10.3353 C.2     1  UNL1        0.2526
     16 O         -24.5310   51.4862  -11.5490 O.2     1  UNL1       -0.2697
     17 N         -23.8893   51.6440   -9.2998 N.am    1  UNL1       -0.2803
     18 H         -24.1929   51.5757   -8.3030 H       1  UNL1        0.1552
     19 C         -22.4863   51.8350   -9.5471 C.ar    1  UNL1        0.0506
     20 C         -21.9305   51.6151  -10.8181 C.ar    1  UNL1        0.0170
     21 C         -20.5698   51.8353  -11.0384 C.ar    1  UNL1        0.0309
     22 C         -19.7515   52.2883  -10.0008 C.ar    1  UNL1        0.1441
     23 F         -18.4327   52.4992  -10.2435 F       1  UNL1       -0.2042
     24 C         -20.2928   52.5344   -8.7257 C.ar    1  UNL1        0.1000
     25 C         -21.6674   52.3150   -8.5136 C.ar    1  UNL1        0.0208
     26 C         -19.3994   53.0417   -7.6187 C.3     1  UNL1        0.4207
     27 F         -20.1018   53.2435   -6.4430 F       1  UNL1       -0.1658
     28 F         -18.8288   54.2418   -8.0020 F       1  UNL1       -0.1658
     29 F         -18.3956   52.1216   -7.3758 F       1  UNL1       -0.1658
     30 N         -30.8761   50.6099   -6.3515 N.pl3   1  UNL1       -0.2814
     31 H         -31.8146   51.0333   -6.5277 H       1  UNL1        0.1551
     32 C         -30.7014   49.8074   -5.1708 C.ar    1  UNL1        0.0893
     33 C         -30.7868   50.3857   -3.8885 C.ar    1  UNL1        0.1543
     34 F         -31.0125   51.7152   -3.7377 F       1  UNL1       -0.2028
     35 C         -30.6089   49.5993   -2.7491 C.ar    1  UNL1        0.0314
     36 C         -30.3344   48.2378   -2.8713 C.ar    1  UNL1        0.0090
     37 C         -30.2296   47.6494   -4.1349 C.ar    1  UNL1        0.0420
     38 I         -29.8056   45.5744   -4.2314 I       1  UNL1       -0.0416
     39 C         -30.4074   48.4329   -5.2911 C.ar    1  UNL1        0.0786
     40 CL        -30.3068   47.6910   -6.8879 Cl      1  UNL1       -0.0804
@<TRIPOS>BOND
     1     1     2    1
     2     2     3   ar
     3     3    30    1
     4    30    32    1
     5    32    33   ar
     6    33    34    1
     7    33    35   ar
     8    35    36   ar
     9    36    37   ar
    10    37    38    1
    11    37    39   ar
    12    39    40    1
    13     3     4   ar
    14     4     5   ar
    15     5     6   ar
    16     6     7   ar
    17     7    15    1
    18    15    16    2
    19    15    17   am
    20    17    19    1
    21    19    20   ar
    22    20    21   ar
    23    21    22   ar
    24    22    23    1
    25    22    24   ar
    26    24    26    1
    27    26    27    1
    28    26    28    1
    29    26    29    1
    30    24    25   ar
    31     7     8   ar
    32     8     9   ar
    33     9    10   ar
    34     9    11    1
    35    11    12    1
    36    12    13    1
    37    13    14    1
    38    10     2   ar
    39    39    32   ar
    40    10     5   ar
    41    25    19   ar
    42    14     8    1
    43    30    31    1
    44    17    18    1
