@<TRIPOS>MOLECULE
*****
 46 51 0 0 0
SMALL
GASTEIGER

@<TRIPOS>ATOM
      1 C          -8.1323  -15.1847   27.1698 C.ar    1  UNL1        0.0702
      2 C          -8.7370  -16.4317   27.3694 C.ar    1  UNL1        0.0191
      3 C          -9.0635  -17.2385   26.2785 C.ar    1  UNL1        0.0356
      4 C          -8.7778  -16.7933   24.9782 C.ar    1  UNL1        0.1318
      5 N          -8.1532  -15.5947   24.8093 N.ar    1  UNL1       -0.2279
      6 C          -7.8284  -14.7912   25.8564 C.ar    1  UNL1        0.1149
      7 N          -9.0794  -17.6071   23.8288 N.pl3   1  UNL1       -0.2932
      8 C          -9.0079  -19.0740   23.8863 C.3     1  UNL1        0.0923
      9 C          -8.1979  -19.6288   22.7020 C.3     1  UNL1        0.0252
     10 C          -8.3307  -18.7779   21.4102 C.3     1  UNL1        0.0472
     11 C          -9.6172  -17.9288   21.4215 C.3     1  UNL1        0.0252
     12 C          -9.5998  -16.9612   22.6145 C.3     1  UNL1        0.0923
     13 C          -8.2659  -19.6726   20.1573 C.3     1  UNL1        0.2054
     14 O          -6.9422  -19.7175   19.6216 O.3     1  UNL1       -0.4750
     15 C          -5.8501  -18.9454   20.0573 C.ar    1  UNL1        0.1440
     16 C          -5.9731  -17.5731   20.3415 C.ar    1  UNL1        0.0374
     17 C          -4.8665  -16.8382   20.7584 C.ar    1  UNL1        0.0034
     18 C          -3.6286  -17.4587   20.9115 C.ar    1  UNL1        0.0071
     19 C          -3.4755  -18.8328   20.6558 C.ar    1  UNL1        0.0838
     20 C          -4.6005  -19.5769   20.2137 C.ar    1  UNL1        0.0618
     21 S          -4.4726  -21.3164   19.7622 S.3     1  UNL1       -0.1383
     22 H          -4.8001  -21.7341   21.0657 H       1  UNL1        0.1072
     23 C          -2.1381  -19.4438   20.8615 C.2     1  UNL1        0.3386
     24 O          -2.0022  -20.4036   21.6682 O.2     1  UNL1       -0.2451
     25 O          -1.0295  -19.0025   20.1456 O.3     1  UNL1       -0.4771
     26 H          -0.1202  -19.4292   20.2778 H       1  UNL1        0.2954
     27 C          -8.6397  -13.3734   28.8683 C.2     1  UNL1        0.2839
     28 O          -9.8892  -13.4673   28.7317 O.2     1  UNL1       -0.2665
     29 N          -7.7791  -14.3739   28.3038 N.am    1  UNL1       -0.2766
     30 H          -6.8947  -14.5982   28.8121 H       1  UNL1        0.1553
     31 C          -5.8783  -11.7547   28.4037 C.3     1  UNL1        0.0345
     32 C          -6.8974  -11.5749   29.4881 C.ar    1  UNL1        0.0202
     33 C          -8.0968  -12.2717   29.6825 C.ar    1  UNL1        0.1946
     34 O          -8.7321  -11.7918   30.7372 O.2     1  UNL1       -0.4492
     35 C          -7.9968  -10.8355   31.2499 C.ar    1  UNL1        0.1452
     36 C          -8.2762  -10.0634   32.3721 C.ar    1  UNL1        0.0375
     37 C          -7.3382   -9.0875   32.7518 C.ar    1  UNL1        0.0031
     38 C          -6.1414   -8.8984   32.0083 C.ar    1  UNL1        0.0002
     39 C          -5.8973   -9.7049   30.8709 C.ar    1  UNL1        0.0028
     40 C          -6.8501  -10.6628   30.5236 C.ar    1  UNL1        0.0337
     41 C          -5.1572   -7.8653   32.4194 C.ar    1  UNL1        0.0000
     42 C          -4.6262   -6.9662   31.4749 C.ar    1  UNL1        0.0000
     43 C          -3.7004   -5.9938   31.8653 C.ar    1  UNL1        0.0000
     44 C          -3.2940   -5.9078   33.1986 C.ar    1  UNL1        0.0000
     45 C          -3.8131   -6.7939   34.1451 C.ar    1  UNL1        0.0000
     46 C          -4.7399   -7.7678   33.7606 C.ar    1  UNL1        0.0000
@<TRIPOS>BOND
     1    31    32    1
     2    32    33   ar
     3    33    27    1
     4    27    28    2
     5    27    29   am
     6    29     1    1
     7     1     2   ar
     8     2     3   ar
     9     3     4   ar
    10     4     7    1
    11     7     8    1
    12     8     9    1
    13     9    10    1
    14    10    13    1
    15    13    14    1
    16    14    15    1
    17    15    16   ar
    18    16    17   ar
    19    17    18   ar
    20    18    19   ar
    21    19    23    1
    22    23    24    2
    23    23    25    1
    24    19    20   ar
    25    20    21    1
    26    10    11    1
    27    11    12    1
    28     4     5   ar
    29     5     6   ar
    30    33    34   ar
    31    34    35   ar
    32    35    36   ar
    33    36    37   ar
    34    37    38   ar
    35    38    41    1
    36    41    42   ar
    37    42    43   ar
    38    43    44   ar
    39    44    45   ar
    40    45    46   ar
    41    38    39   ar
    42    39    40   ar
    43    40    32   ar
    44     6     1   ar
    45    40    35   ar
    46    12     7    1
    47    46    41   ar
    48    20    15   ar
    49    29    30    1
    50    25    26    1
    51    21    22    1
@<TRIPOS>MOLECULE
*****
 46 51 0 0 0
SMALL
GASTEIGER

@<TRIPOS>ATOM
      1 C          -8.3403  -15.1669   27.2980 C.ar    1  UNL1        0.0702
      2 C          -8.6887  -16.5058   27.5138 C.ar    1  UNL1        0.0191
      3 C          -9.0309  -17.3264   26.4382 C.ar    1  UNL1        0.0356
      4 C          -9.0198  -16.8017   25.1362 C.ar    1  UNL1        0.1318
      5 N          -8.6393  -15.5078   24.9453 N.ar    1  UNL1       -0.2279
      6 C          -8.3046  -14.6895   25.9777 C.ar    1  UNL1        0.1149
      7 N          -9.3452  -17.6231   23.9988 N.pl3   1  UNL1       -0.2932
      8 C          -9.1624  -19.0813   24.0271 C.3     1  UNL1        0.0923
      9 C          -8.4038  -19.5615   22.7780 C.3     1  UNL1        0.0252
     10 C          -8.6940  -18.7089   21.5133 C.3     1  UNL1        0.0472
     11 C         -10.0349  -17.9580   21.6323 C.3     1  UNL1        0.0252
     12 C         -10.0001  -17.0047   22.8365 C.3     1  UNL1        0.0923
     13 C          -8.6568  -19.5828   20.2446 C.3     1  UNL1        0.2054
     14 O          -7.4793  -19.3293   19.4762 O.3     1  UNL1       -0.4750
     15 C          -6.1595  -19.6099   19.8737 C.ar    1  UNL1        0.1440
     16 C          -5.5740  -20.8739   19.6767 C.ar    1  UNL1        0.0374
     17 C          -4.2688  -21.1184   20.0952 C.ar    1  UNL1        0.0034
     18 C          -3.5248  -20.1085   20.7013 C.ar    1  UNL1        0.0071
     19 C          -4.0725  -18.8280   20.8949 C.ar    1  UNL1        0.0838
     20 C          -5.4092  -18.5854   20.4838 C.ar    1  UNL1        0.0618
     21 S          -6.2263  -17.0085   20.7873 S.3     1  UNL1       -0.1383
     22 H          -5.8267  -16.4999   19.5373 H       1  UNL1        0.1072
     23 C          -3.2228  -17.7849   21.5227 C.2     1  UNL1        0.3386
     24 O          -2.7357  -16.8608   20.8161 O.2     1  UNL1       -0.2451
     25 O          -2.9844  -17.7825   22.8937 O.3     1  UNL1       -0.4771
     26 H          -2.4149  -17.0627   23.3223 H       1  UNL1        0.2954
     27 C          -8.8042  -13.3086   28.9577 C.2     1  UNL1        0.2839
     28 O         -10.0558  -13.3798   28.8272 O.2     1  UNL1       -0.2665
     29 N          -7.9663  -14.3388   28.4126 N.am    1  UNL1       -0.2766
     30 H          -7.0848  -14.5701   28.9229 H       1  UNL1        0.1553
     31 C          -5.9582  -11.8356   28.5194 C.3     1  UNL1        0.0345
     32 C          -7.0001  -11.5668   29.5629 C.ar    1  UNL1        0.0202
     33 C          -8.2357  -12.2007   29.7457 C.ar    1  UNL1        0.1946
     34 O          -8.8797  -11.6508   30.7602 O.2     1  UNL1       -0.4492
     35 C          -8.1168  -10.7088   31.2588 C.ar    1  UNL1        0.1452
     36 C          -8.3939   -9.8807   32.3408 C.ar    1  UNL1        0.0375
     37 C          -7.4237   -8.9334   32.7123 C.ar    1  UNL1        0.0031
     38 C          -6.1977   -8.8283   32.0007 C.ar    1  UNL1        0.0002
     39 C          -5.9568   -9.6899   30.9036 C.ar    1  UNL1        0.0028
     40 C          -6.9420  -10.6171   30.5633 C.ar    1  UNL1        0.0337
     41 C          -5.1796   -7.8249   32.4028 C.ar    1  UNL1        0.0000
     42 C          -4.6578   -6.9174   31.4611 C.ar    1  UNL1        0.0000
     43 C          -3.7001   -5.9730   31.8431 C.ar    1  UNL1        0.0000
     44 C          -3.2523   -5.9235   33.1650 C.ar    1  UNL1        0.0000
     45 C          -3.7619   -6.8183   34.1084 C.ar    1  UNL1        0.0000
     46 C          -4.7205   -7.7643   33.7325 C.ar    1  UNL1        0.0000
@<TRIPOS>BOND
     1    31    32    1
     2    32    33   ar
     3    33    27    1
     4    27    28    2
     5    27    29   am
     6    29     1    1
     7     1     2   ar
     8     2     3   ar
     9     3     4   ar
    10     4     7    1
    11     7     8    1
    12     8     9    1
    13     9    10    1
    14    10    13    1
    15    13    14    1
    16    14    15    1
    17    15    16   ar
    18    16    17   ar
    19    17    18   ar
    20    18    19   ar
    21    19    23    1
    22    23    24    2
    23    23    25    1
    24    19    20   ar
    25    20    21    1
    26    10    11    1
    27    11    12    1
    28     4     5   ar
    29     5     6   ar
    30    33    34   ar
    31    34    35   ar
    32    35    36   ar
    33    36    37   ar
    34    37    38   ar
    35    38    41    1
    36    41    42   ar
    37    42    43   ar
    38    43    44   ar
    39    44    45   ar
    40    45    46   ar
    41    38    39   ar
    42    39    40   ar
    43    40    32   ar
    44     6     1   ar
    45    40    35   ar
    46    12     7    1
    47    46    41   ar
    48    20    15   ar
    49    29    30    1
    50    25    26    1
    51    21    22    1
@<TRIPOS>MOLECULE
*****
 46 51 0 0 0
SMALL
GASTEIGER

@<TRIPOS>ATOM
      1 C          -7.7721  -14.4496   27.4521 C.ar    1  UNL1        0.0702
      2 C          -9.1332  -14.6052   27.7412 C.ar    1  UNL1        0.0191
      3 C          -9.7224  -13.8715   28.7717 C.ar    1  UNL1        0.0356
      4 C          -8.9420  -12.9719   29.5149 C.ar    1  UNL1        0.1318
      5 N          -7.6294  -12.8071   29.1906 N.ar    1  UNL1       -0.2279
      6 C          -7.0337  -13.5126   28.1932 C.ar    1  UNL1        0.1149
      7 N          -9.5191  -12.1808   30.5711 N.pl3   1  UNL1       -0.2932
      8 C         -10.8840  -12.4276   31.0574 C.3     1  UNL1        0.0923
      9 C         -11.6867  -11.1169   31.1220 C.3     1  UNL1        0.0252
     10 C         -10.8163   -9.8753   31.4558 C.3     1  UNL1        0.0472
     11 C          -9.5101  -10.2752   32.1700 C.3     1  UNL1        0.0252
     12 C          -8.6764  -11.1969   31.2671 C.3     1  UNL1        0.0923
     13 C         -11.6159   -8.8553   32.2893 C.3     1  UNL1        0.2054
     14 O         -10.8547   -7.6694   32.5248 O.3     1  UNL1       -0.4750
     15 C         -10.4778   -6.7254   31.5524 C.ar    1  UNL1        0.1440
     16 C         -11.4267   -6.0286   30.7822 C.ar    1  UNL1        0.0374
     17 C         -11.0153   -5.1106   29.8196 C.ar    1  UNL1        0.0034
     18 C          -9.6591   -4.8631   29.6195 C.ar    1  UNL1        0.0071
     19 C          -8.6852   -5.5269   30.3862 C.ar    1  UNL1        0.0838
     20 C          -9.1054   -6.4756   31.3547 C.ar    1  UNL1        0.0618
     21 S          -7.9257   -7.4486   32.3076 S.3     1  UNL1       -0.1383
     22 H          -7.9053   -6.5024   33.3494 H       1  UNL1        0.1072
     23 C          -7.2565   -5.2027   30.1457 C.2     1  UNL1        0.3386
     24 O          -6.4973   -6.0594   29.6165 O.2     1  UNL1       -0.2451
     25 O          -6.7430   -3.9474   30.4573 O.3     1  UNL1       -0.4771
     26 H          -5.7709   -3.7236   30.2807 H       1  UNL1        0.2954
     27 C          -6.0756  -16.0928   26.5331 C.2     1  UNL1        0.2839
     28 O          -5.8681  -16.6431   27.6479 O.2     1  UNL1       -0.2665
     29 N          -7.1829  -15.1939   26.3719 N.am    1  UNL1       -0.2766
     30 H          -7.6534  -15.1634   25.4398 H       1  UNL1        0.1553
     31 C          -3.3488  -17.8313   26.5959 C.3     1  UNL1        0.0345
     32 C          -4.0299  -17.2010   25.4187 C.ar    1  UNL1        0.0202
     33 C          -5.2154  -16.4554   25.3929 C.ar    1  UNL1        0.1946
     34 O          -5.4996  -16.1020   24.1517 O.2     1  UNL1       -0.4492
     35 C          -4.5489  -16.5602   23.3744 C.ar    1  UNL1        0.1452
     36 C          -4.4393  -16.4132   21.9961 C.ar    1  UNL1        0.0375
     37 C          -3.3254  -16.9864   21.3579 C.ar    1  UNL1        0.0031
     38 C          -2.3430  -17.6941   22.1025 C.ar    1  UNL1        0.0002
     39 C          -2.4943  -17.8218   23.5042 C.ar    1  UNL1        0.0028
     40 C          -3.6120  -17.2407   24.1034 C.ar    1  UNL1        0.0337
     41 C          -1.1698  -18.2943   21.4180 C.ar    1  UNL1        0.0000
     42 C          -0.6880  -19.5606   21.8009 C.ar    1  UNL1        0.0000
     43 C           0.4161  -20.1236   21.1536 C.ar    1  UNL1        0.0000
     44 C           1.0513  -19.4314   20.1202 C.ar    1  UNL1        0.0000
     45 C           0.5832  -18.1744   19.7313 C.ar    1  UNL1        0.0000
     46 C          -0.5212  -17.6069   20.3743 C.ar    1  UNL1        0.0000
@<TRIPOS>BOND
     1    31    32    1
     2    32    33   ar
     3    33    27    1
     4    27    28    2
     5    27    29   am
     6    29     1    1
     7     1     2   ar
     8     2     3   ar
     9     3     4   ar
    10     4     7    1
    11     7     8    1
    12     8     9    1
    13     9    10    1
    14    10    13    1
    15    13    14    1
    16    14    15    1
    17    15    16   ar
    18    16    17   ar
    19    17    18   ar
    20    18    19   ar
    21    19    23    1
    22    23    24    2
    23    23    25    1
    24    19    20   ar
    25    20    21    1
    26    10    11    1
    27    11    12    1
    28     4     5   ar
    29     5     6   ar
    30    33    34   ar
    31    34    35   ar
    32    35    36   ar
    33    36    37   ar
    34    37    38   ar
    35    38    41    1
    36    41    42   ar
    37    42    43   ar
    38    43    44   ar
    39    44    45   ar
    40    45    46   ar
    41    38    39   ar
    42    39    40   ar
    43    40    32   ar
    44     6     1   ar
    45    40    35   ar
    46    12     7    1
    47    46    41   ar
    48    20    15   ar
    49    29    30    1
    50    25    26    1
    51    21    22    1
@<TRIPOS>MOLECULE
*****
 46 51 0 0 0
SMALL
GASTEIGER

@<TRIPOS>ATOM
      1 C          -6.1247  -14.1685   26.5867 C.ar    1  UNL1        0.0702
      2 C          -7.3437  -14.8008   26.8605 C.ar    1  UNL1        0.0191
      3 C          -8.1485  -14.3541   27.9094 C.ar    1  UNL1        0.0356
      4 C          -7.7299  -13.2628   28.6868 C.ar    1  UNL1        0.1318
      5 N          -6.5598  -12.6378   28.3778 N.ar    1  UNL1       -0.2279
      6 C          -5.7587  -13.0568   27.3629 C.ar    1  UNL1        0.1149
      7 N          -8.5433  -12.7590   29.7634 N.pl3   1  UNL1       -0.2932
      8 C          -9.9781  -13.0658   29.8502 C.3     1  UNL1        0.0923
      9 C         -10.7973  -11.7859   30.0891 C.3     1  UNL1        0.0252
     10 C         -10.0460  -10.7197   30.9312 C.3     1  UNL1        0.0472
     11 C          -8.9271  -11.3547   31.7804 C.3     1  UNL1        0.0252
     12 C          -7.8959  -12.0367   30.8686 C.3     1  UNL1        0.0923
     13 C         -11.0302   -9.9259   31.8121 C.3     1  UNL1        0.2054
     14 O         -10.4615   -8.6851   32.2343 O.3     1  UNL1       -0.4750
     15 C         -10.2756   -7.5472   31.4286 C.ar    1  UNL1        0.1440
     16 C         -11.3527   -6.8890   30.8076 C.ar    1  UNL1        0.0374
     17 C         -11.1285   -5.7727   30.0063 C.ar    1  UNL1        0.0034
     18 C          -9.8353   -5.2882   29.8229 C.ar    1  UNL1        0.0071
     19 C          -8.7385   -5.9099   30.4455 C.ar    1  UNL1        0.0838
     20 C          -8.9667   -7.0585   31.2476 C.ar    1  UNL1        0.0618
     21 S          -7.6117   -7.9799   31.9968 S.3     1  UNL1       -0.1383
     22 H          -7.6844   -7.2264   33.1834 H       1  UNL1        0.1072
     23 C          -7.3870   -5.3329   30.2339 C.2     1  UNL1        0.3386
     24 O          -6.4699   -6.0433   29.7393 O.2     1  UNL1       -0.2451
     25 O          -7.1203   -4.0006   30.5343 O.3     1  UNL1       -0.4771
     26 H          -6.2009   -3.6051   30.3773 H       1  UNL1        0.2954
     27 C          -5.7099  -15.6703   24.5878 C.2     1  UNL1        0.2839
     28 O          -6.9323  -15.9151   24.4021 O.2     1  UNL1       -0.2665
     29 N          -5.3165  -14.6235   25.4877 N.am    1  UNL1       -0.2766
     30 H          -4.4455  -14.0918   25.2648 H       1  UNL1        0.1553
     31 C          -3.2926  -17.5005   25.7141 C.3     1  UNL1        0.0345
     32 C          -3.6579  -17.2052   24.2907 C.ar    1  UNL1        0.0202
     33 C          -4.7105  -16.4188   23.8053 C.ar    1  UNL1        0.1946
     34 O          -4.7137  -16.4344   22.4839 O.2     1  UNL1       -0.4492
     35 C          -3.7051  -17.1715   22.0871 C.ar    1  UNL1        0.1452
     36 C          -3.3266  -17.4529   20.7790 C.ar    1  UNL1        0.0375
     37 C          -2.1995  -18.2693   20.5794 C.ar    1  UNL1        0.0031
     38 C          -1.4715  -18.7895   21.6839 C.ar    1  UNL1        0.0002
     39 C          -1.8924  -18.4798   22.9994 C.ar    1  UNL1        0.0028
     40 C          -3.0150  -17.6673   23.1596 C.ar    1  UNL1        0.0337
     41 C          -0.2817  -19.6497   21.4610 C.ar    1  UNL1        0.0000
     42 C           0.9521  -19.0827   21.0888 C.ar    1  UNL1        0.0000
     43 C           2.0709  -19.8953   20.8808 C.ar    1  UNL1        0.0000
     44 C           1.9719  -21.2791   21.0405 C.ar    1  UNL1        0.0000
     45 C           0.7535  -21.8538   21.4092 C.ar    1  UNL1        0.0000
     46 C          -0.3683  -21.0461   21.6195 C.ar    1  UNL1        0.0000
@<TRIPOS>BOND
     1    31    32    1
     2    32    33   ar
     3    33    27    1
     4    27    28    2
     5    27    29   am
     6    29     1    1
     7     1     2   ar
     8     2     3   ar
     9     3     4   ar
    10     4     7    1
    11     7     8    1
    12     8     9    1
    13     9    10    1
    14    10    13    1
    15    13    14    1
    16    14    15    1
    17    15    16   ar
    18    16    17   ar
    19    17    18   ar
    20    18    19   ar
    21    19    23    1
    22    23    24    2
    23    23    25    1
    24    19    20   ar
    25    20    21    1
    26    10    11    1
    27    11    12    1
    28     4     5   ar
    29     5     6   ar
    30    33    34   ar
    31    34    35   ar
    32    35    36   ar
    33    36    37   ar
    34    37    38   ar
    35    38    41    1
    36    41    42   ar
    37    42    43   ar
    38    43    44   ar
    39    44    45   ar
    40    45    46   ar
    41    38    39   ar
    42    39    40   ar
    43    40    32   ar
    44     6     1   ar
    45    40    35   ar
    46    12     7    1
    47    46    41   ar
    48    20    15   ar
    49    29    30    1
    50    25    26    1
    51    21    22    1
@<TRIPOS>MOLECULE
*****
 46 51 0 0 0
SMALL
GASTEIGER

@<TRIPOS>ATOM
      1 C          -6.4915  -15.0852   26.3327 C.ar    1  UNL1        0.0702
      2 C          -5.3464  -15.2473   25.5434 C.ar    1  UNL1        0.0191
      3 C          -5.4145  -15.9513   24.3403 C.ar    1  UNL1        0.0356
      4 C          -6.6406  -16.4931   23.9237 C.ar    1  UNL1        0.1318
      5 N          -7.7500  -16.2892   24.6873 N.ar    1  UNL1       -0.2279
      6 C          -7.7070  -15.6095   25.8636 C.ar    1  UNL1        0.1149
      7 N          -6.7553  -17.2066   22.6778 N.pl3   1  UNL1       -0.2932
      8 C          -7.1554  -16.5268   21.4376 C.3     1  UNL1        0.0923
      9 C          -8.2773  -17.3027   20.7264 C.3     1  UNL1        0.0252
     10 C          -8.1907  -18.8394   20.9302 C.3     1  UNL1        0.0472
     11 C          -6.7622  -19.2810   21.3051 C.3     1  UNL1        0.0252
     12 C          -6.3322  -18.6137   22.6203 C.3     1  UNL1        0.0923
     13 C          -8.6931  -19.5859   19.6792 C.3     1  UNL1        0.2054
     14 O         -10.1200  -19.5732   19.6076 O.3     1  UNL1       -0.4750
     15 C         -10.9650  -18.6011   20.1730 C.ar    1  UNL1        0.1440
     16 C         -11.3305  -17.4346   19.4766 C.ar    1  UNL1        0.0374
     17 C         -12.1587  -16.4882   20.0738 C.ar    1  UNL1        0.0034
     18 C         -12.6450  -16.6942   21.3629 C.ar    1  UNL1        0.0071
     19 C         -12.3160  -17.8586   22.0791 C.ar    1  UNL1        0.0838
     20 C         -11.4571  -18.8141   21.4757 C.ar    1  UNL1        0.0618
     21 S         -10.8989  -20.2825   22.3582 S.3     1  UNL1       -0.1383
     22 H         -11.9740  -21.0493   21.8714 H       1  UNL1        0.1072
     23 C         -12.8853  -18.0350   23.4389 C.2     1  UNL1        0.3386
     24 O         -14.1343  -17.9952   23.6081 O.2     1  UNL1       -0.2451
     25 O         -12.0641  -18.2866   24.5337 O.3     1  UNL1       -0.4771
     26 H         -12.4552  -18.4194   25.4588 H       1  UNL1        0.2954
     27 C          -7.5569  -13.8084   28.2452 C.2     1  UNL1        0.2839
     28 O          -8.6849  -14.3518   28.1008 O.2     1  UNL1       -0.2665
     29 N          -6.4128  -14.3369   27.5582 N.am    1  UNL1       -0.2766
     30 H          -5.4848  -14.2666   28.0325 H       1  UNL1        0.1553
     31 C          -5.2624  -11.5293   28.2936 C.3     1  UNL1        0.0345
     32 C          -6.4303  -11.7012   29.2173 C.ar    1  UNL1        0.0202
     33 C          -7.4274  -12.6844   29.1893 C.ar    1  UNL1        0.1946
     34 O          -8.3003  -12.4701   30.1582 O.2     1  UNL1       -0.4492
     35 C          -7.9090  -11.4127   30.8265 C.ar    1  UNL1        0.1452
     36 C          -8.5245  -10.8354   31.9317 C.ar    1  UNL1        0.0375
     37 C          -7.9261   -9.6976   32.5008 C.ar    1  UNL1        0.0031
     38 C          -6.7281   -9.1565   31.9600 C.ar    1  UNL1        0.0002
     39 C          -6.1354   -9.7743   30.8326 C.ar    1  UNL1        0.0028
     40 C          -6.7569  -10.9011   30.2941 C.ar    1  UNL1        0.0337
     41 C          -6.1042   -7.9550   32.5702 C.ar    1  UNL1        0.0000
     42 C          -6.8362   -6.7603   32.7086 C.ar    1  UNL1        0.0000
     43 C          -6.2463   -5.6310   33.2847 C.ar    1  UNL1        0.0000
     44 C          -4.9227   -5.6800   33.7273 C.ar    1  UNL1        0.0000
     45 C          -4.1858   -6.8591   33.5954 C.ar    1  UNL1        0.0000
     46 C          -4.7708   -7.9918   33.0210 C.ar    1  UNL1        0.0000
@<TRIPOS>BOND
     1    31    32    1
     2    32    33   ar
     3    33    27    1
     4    27    28    2
     5    27    29   am
     6    29     1    1
     7     1     2   ar
     8     2     3   ar
     9     3     4   ar
    10     4     7    1
    11     7     8    1
    12     8     9    1
    13     9    10    1
    14    10    13    1
    15    13    14    1
    16    14    15    1
    17    15    16   ar
    18    16    17   ar
    19    17    18   ar
    20    18    19   ar
    21    19    23    1
    22    23    24    2
    23    23    25    1
    24    19    20   ar
    25    20    21    1
    26    10    11    1
    27    11    12    1
    28     4     5   ar
    29     5     6   ar
    30    33    34   ar
    31    34    35   ar
    32    35    36   ar
    33    36    37   ar
    34    37    38   ar
    35    38    41    1
    36    41    42   ar
    37    42    43   ar
    38    43    44   ar
    39    44    45   ar
    40    45    46   ar
    41    38    39   ar
    42    39    40   ar
    43    40    32   ar
    44     6     1   ar
    45    40    35   ar
    46    12     7    1
    47    46    41   ar
    48    20    15   ar
    49    29    30    1
    50    25    26    1
    51    21    22    1
@<TRIPOS>MOLECULE
*****
 46 51 0 0 0
SMALL
GASTEIGER

@<TRIPOS>ATOM
      1 C          -5.6187  -15.1468   25.4185 C.ar    1  UNL1        0.0702
      2 C          -4.6072  -15.9930   24.9479 C.ar    1  UNL1        0.0191
      3 C          -4.8874  -16.9503   23.9719 C.ar    1  UNL1        0.0356
      4 C          -6.1905  -17.0570   23.4610 C.ar    1  UNL1        0.1318
      5 N          -7.1496  -16.1974   23.9041 N.ar    1  UNL1       -0.2279
      6 C          -6.9005  -15.2593   24.8557 C.ar    1  UNL1        0.1149
      7 N          -6.5133  -18.0173   22.4372 N.pl3   1  UNL1       -0.2932
      8 C          -6.1312  -17.8019   21.0344 C.3     1  UNL1        0.0923
      9 C          -7.3302  -18.0352   20.0992 C.3     1  UNL1        0.0252
     10 C          -8.3132  -19.1209   20.6143 C.3     1  UNL1        0.0472
     11 C          -7.6274  -20.0805   21.6067 C.3     1  UNL1        0.0252
     12 C          -7.1170  -19.3001   22.8275 C.3     1  UNL1        0.0923
     13 C          -8.9404  -19.8930   19.4374 C.3     1  UNL1        0.2054
     14 O         -10.3404  -19.6280   19.3323 O.3     1  UNL1       -0.4750
     15 C         -11.0303  -18.5783   19.9654 C.ar    1  UNL1        0.1440
     16 C         -11.2245  -17.3314   19.3435 C.ar    1  UNL1        0.0374
     17 C         -11.9015  -16.3115   20.0067 C.ar    1  UNL1        0.0034
     18 C         -12.4055  -16.5208   21.2884 C.ar    1  UNL1        0.0071
     19 C         -12.2469  -17.7615   21.9307 C.ar    1  UNL1        0.0838
     20 C         -11.5410  -18.7945   21.2605 C.ar    1  UNL1        0.0618
     21 S         -11.1994  -20.3788   22.0477 S.3     1  UNL1       -0.1383
     22 H         -12.3782  -20.9497   21.5326 H       1  UNL1        0.1072
     23 C         -12.8282  -17.9336   23.2860 C.2     1  UNL1        0.3386
     24 O         -14.0797  -17.9884   23.4315 O.2     1  UNL1       -0.2451
     25 O         -12.0123  -18.0785   24.4039 O.3     1  UNL1       -0.4771
     26 H         -12.4106  -18.2087   25.3263 H       1  UNL1        0.2954
     27 C          -6.1811  -13.8108   27.4973 C.2     1  UNL1        0.2839
     28 O          -7.0066  -14.6590   27.9306 O.2     1  UNL1       -0.2665
     29 N          -5.3110  -14.1486   26.4068 N.am    1  UNL1       -0.2766
     30 H          -4.3573  -13.7229   26.3952 H       1  UNL1        0.1553
     31 C          -8.3044  -12.4827   29.5442 C.3     1  UNL1        0.0345
     32 C          -6.9964  -11.9302   29.0636 C.ar    1  UNL1        0.0202
     33 C          -6.0746  -12.5110   28.1834 C.ar    1  UNL1        0.1946
     34 O          -5.0276  -11.7179   28.0379 O.2     1  UNL1       -0.4492
     35 C          -5.2326  -10.6434   28.7600 C.ar    1  UNL1        0.1452
     36 C          -4.3939   -9.5425   28.8947 C.ar    1  UNL1        0.0375
     37 C          -4.8161   -8.4889   29.7241 C.ar    1  UNL1        0.0031
     38 C          -6.0635   -8.5506   30.4031 C.ar    1  UNL1        0.0002
     39 C          -6.8860   -9.6911   30.2396 C.ar    1  UNL1        0.0028
     40 C          -6.4347  -10.7173   29.4094 C.ar    1  UNL1        0.0337
     41 C          -6.4999   -7.4311   31.2756 C.ar    1  UNL1        0.0000
     42 C          -6.8230   -6.1769   30.7233 C.ar    1  UNL1        0.0000
     43 C          -7.2347   -5.1251   31.5474 C.ar    1  UNL1        0.0000
     44 C          -7.3278   -5.3113   32.9283 C.ar    1  UNL1        0.0000
     45 C          -7.0099   -6.5506   33.4885 C.ar    1  UNL1        0.0000
     46 C          -6.5985   -7.6063   32.6692 C.ar    1  UNL1        0.0000
@<TRIPOS>BOND
     1    31    32    1
     2    32    33   ar
     3    33    27    1
     4    27    28    2
     5    27    29   am
     6    29     1    1
     7     1     2   ar
     8     2     3   ar
     9     3     4   ar
    10     4     7    1
    11     7     8    1
    12     8     9    1
    13     9    10    1
    14    10    13    1
    15    13    14    1
    16    14    15    1
    17    15    16   ar
    18    16    17   ar
    19    17    18   ar
    20    18    19   ar
    21    19    23    1
    22    23    24    2
    23    23    25    1
    24    19    20   ar
    25    20    21    1
    26    10    11    1
    27    11    12    1
    28     4     5   ar
    29     5     6   ar
    30    33    34   ar
    31    34    35   ar
    32    35    36   ar
    33    36    37   ar
    34    37    38   ar
    35    38    41    1
    36    41    42   ar
    37    42    43   ar
    38    43    44   ar
    39    44    45   ar
    40    45    46   ar
    41    38    39   ar
    42    39    40   ar
    43    40    32   ar
    44     6     1   ar
    45    40    35   ar
    46    12     7    1
    47    46    41   ar
    48    20    15   ar
    49    29    30    1
    50    25    26    1
    51    21    22    1
@<TRIPOS>MOLECULE
*****
 46 51 0 0 0
SMALL
GASTEIGER

@<TRIPOS>ATOM
      1 C          -5.8055  -14.3108   26.2809 C.ar    1  UNL1        0.0702
      2 C          -7.0159  -14.9272   26.6210 C.ar    1  UNL1        0.0191
      3 C          -7.7872  -14.4315   27.6731 C.ar    1  UNL1        0.0356
      4 C          -7.3437  -13.3069   28.3866 C.ar    1  UNL1        0.1318
      5 N          -6.1833  -12.6992   28.0132 N.ar    1  UNL1       -0.2279
      6 C          -5.4145  -13.1658   26.9939 C.ar    1  UNL1        0.1149
      7 N          -8.1227  -12.7528   29.4639 N.pl3   1  UNL1       -0.2932
      8 C          -9.5330  -13.1181   29.6586 C.3     1  UNL1        0.0923
      9 C         -10.4031  -11.8625   29.8394 C.3     1  UNL1        0.0252
     10 C          -9.6634  -10.6950   30.5467 C.3     1  UNL1        0.0472
     11 C          -8.4691  -11.2029   31.3784 C.3     1  UNL1        0.0252
     12 C          -7.4547  -11.9103   30.4670 C.3     1  UNL1        0.0923
     13 C         -10.6382   -9.8768   31.4156 C.3     1  UNL1        0.2054
     14 O         -11.5291  -10.7298   32.1367 O.3     1  UNL1       -0.4750
     15 C         -11.1543  -11.7090   33.0744 C.ar    1  UNL1        0.1440
     16 C         -10.0113  -11.5690   33.8826 C.ar    1  UNL1        0.0374
     17 C          -9.6646  -12.5656   34.7909 C.ar    1  UNL1        0.0034
     18 C         -10.4547  -13.7059   34.9177 C.ar    1  UNL1        0.0071
     19 C         -11.6148  -13.8682   34.1401 C.ar    1  UNL1        0.0838
     20 C         -11.9572  -12.8596   33.2019 C.ar    1  UNL1        0.0618
     21 S         -13.3653  -13.0323   32.0911 S.3     1  UNL1       -0.1383
     22 H         -14.2263  -12.3819   32.9948 H       1  UNL1        0.1072
     23 C         -12.4310  -15.0925   34.3379 C.2     1  UNL1        0.3386
     24 O         -13.1255  -15.2238   35.3823 O.2     1  UNL1       -0.2451
     25 O         -12.4783  -16.0883   33.3670 O.3     1  UNL1       -0.4771
     26 H         -13.0459  -16.9171   33.4980 H       1  UNL1        0.2954
     27 C          -5.4195  -15.9494   24.3865 C.2     1  UNL1        0.2839
     28 O          -6.6365  -16.2617   24.2863 O.2     1  UNL1       -0.2665
     29 N          -5.0323  -14.8171   25.1792 N.am    1  UNL1       -0.2766
     30 H          -4.2001  -14.2675   24.8690 H       1  UNL1        0.1553
     31 C          -2.9583  -17.7079   25.5316 C.3     1  UNL1        0.0345
     32 C          -3.3543  -17.4694   24.1057 C.ar    1  UNL1        0.0202
     33 C          -4.4257  -16.7140   23.6125 C.ar    1  UNL1        0.1946
     34 O          -4.4538  -16.7782   22.2928 O.2     1  UNL1       -0.4492
     35 C          -3.4436  -17.5172   21.9037 C.ar    1  UNL1        0.1452
     36 C          -3.0864  -17.8419   20.5997 C.ar    1  UNL1        0.0375
     37 C          -1.9531  -18.6515   20.4081 C.ar    1  UNL1        0.0031
     38 C          -1.1977  -19.1221   21.5165 C.ar    1  UNL1        0.0002
     39 C          -1.5975  -18.7693   22.8278 C.ar    1  UNL1        0.0028
     40 C          -2.7271  -17.9650   22.9800 C.ar    1  UNL1        0.0337
     41 C          -0.0016  -19.9756   21.3021 C.ar    1  UNL1        0.0000
     42 C          -0.1118  -21.3791   21.3161 C.ar    1  UNL1        0.0000
     43 C           1.0161  -22.1801   21.1127 C.ar    1  UNL1        0.0000
     44 C           2.2638  -21.5919   20.8946 C.ar    1  UNL1        0.0000
     45 C           2.3863  -20.2007   20.8786 C.ar    1  UNL1        0.0000
     46 C           1.2617  -19.3947   21.0804 C.ar    1  UNL1        0.0000
@<TRIPOS>BOND
     1    31    32    1
     2    32    33   ar
     3    33    27    1
     4    27    28    2
     5    27    29   am
     6    29     1    1
     7     1     2   ar
     8     2     3   ar
     9     3     4   ar
    10     4     7    1
    11     7     8    1
    12     8     9    1
    13     9    10    1
    14    10    13    1
    15    13    14    1
    16    14    15    1
    17    15    16   ar
    18    16    17   ar
    19    17    18   ar
    20    18    19   ar
    21    19    23    1
    22    23    24    2
    23    23    25    1
    24    19    20   ar
    25    20    21    1
    26    10    11    1
    27    11    12    1
    28     4     5   ar
    29     5     6   ar
    30    33    34   ar
    31    34    35   ar
    32    35    36   ar
    33    36    37   ar
    34    37    38   ar
    35    38    41    1
    36    41    42   ar
    37    42    43   ar
    38    43    44   ar
    39    44    45   ar
    40    45    46   ar
    41    38    39   ar
    42    39    40   ar
    43    40    32   ar
    44     6     1   ar
    45    40    35   ar
    46    12     7    1
    47    46    41   ar
    48    20    15   ar
    49    29    30    1
    50    25    26    1
    51    21    22    1
@<TRIPOS>MOLECULE
*****
 46 51 0 0 0
SMALL
GASTEIGER

@<TRIPOS>ATOM
      1 C          -7.7638  -13.9503   28.3561 C.ar    1  UNL1        0.0702
      2 C          -9.1423  -14.1820   28.4381 C.ar    1  UNL1        0.0191
      3 C          -9.9397  -13.3976   29.2726 C.ar    1  UNL1        0.0356
      4 C          -9.3511  -12.3706   30.0273 C.ar    1  UNL1        0.1318
      5 N          -8.0151  -12.1371   29.9020 N.ar    1  UNL1       -0.2279
      6 C          -7.2186  -12.8897   29.0978 C.ar    1  UNL1        0.1149
      7 N         -10.1443  -11.5258   30.8826 N.pl3   1  UNL1       -0.2932
      8 C         -11.6050  -11.4446   30.7409 C.3     1  UNL1        0.0923
      9 C         -12.0692   -9.9786   30.6962 C.3     1  UNL1        0.0252
     10 C         -11.1867   -9.0250   31.5460 C.3     1  UNL1        0.0472
     11 C         -10.4206   -9.7902   32.6431 C.3     1  UNL1        0.0252
     12 C          -9.4931  -10.8364   32.0064 C.3     1  UNL1        0.0923
     13 C         -12.0345   -7.8885   32.1495 C.3     1  UNL1        0.2054
     14 O         -11.2475   -6.7161   32.3679 O.3     1  UNL1       -0.4750
     15 C         -10.6227   -5.9454   31.3708 C.ar    1  UNL1        0.1440
     16 C         -11.3489   -5.0792   30.5332 C.ar    1  UNL1        0.0374
     17 C         -10.6974   -4.3415   29.5484 C.ar    1  UNL1        0.0034
     18 C          -9.3170   -4.4440   29.3920 C.ar    1  UNL1        0.0071
     19 C          -8.5584   -5.2846   30.2256 C.ar    1  UNL1        0.0838
     20 C          -9.2262   -6.0495   31.2174 C.ar    1  UNL1        0.0618
     21 S          -8.3494   -7.2300   32.2586 S.3     1  UNL1       -0.1383
     22 H          -8.1259   -6.2642   33.2577 H       1  UNL1        0.1072
     23 C          -7.0876   -5.3327   30.0285 C.2     1  UNL1        0.3386
     24 O          -6.5299   -6.4198   29.7160 O.2     1  UNL1       -0.2451
     25 O          -6.3103   -4.1842   30.1419 O.3     1  UNL1       -0.4771
     26 H          -5.3085   -4.2163   29.9945 H       1  UNL1        0.2954
     27 C          -5.9868  -14.2060   26.5674 C.2     1  UNL1        0.2839
     28 O          -5.4468  -13.0944   26.8154 O.2     1  UNL1       -0.2665
     29 N          -6.9576  -14.7501   27.4740 N.am    1  UNL1       -0.2766
     30 H          -7.0014  -15.7888   27.5743 H       1  UNL1        0.1553
     31 C          -4.6689  -17.1589   26.4961 C.3     1  UNL1        0.0345
     32 C          -4.9625  -16.2372   25.3510 C.ar    1  UNL1        0.0202
     33 C          -5.5410  -14.9620   25.3837 C.ar    1  UNL1        0.1946
     34 O          -5.6604  -14.4887   24.1557 O.2     1  UNL1       -0.4492
     35 C          -5.1693  -15.3807   23.3304 C.ar    1  UNL1        0.1452
     36 C          -5.0830  -15.2942   21.9453 C.ar    1  UNL1        0.0375
     37 C          -4.5105  -16.3744   21.2511 C.ar    1  UNL1        0.0031
     38 C          -4.0355  -17.5189   21.9475 C.ar    1  UNL1        0.0002
     39 C          -4.1445  -17.5668   23.3580 C.ar    1  UNL1        0.0028
     40 C          -4.7182  -16.4772   24.0135 C.ar    1  UNL1        0.0337
     41 C          -3.4314  -18.6535   21.2038 C.ar    1  UNL1        0.0000
     42 C          -2.0560  -18.9323   21.3168 C.ar    1  UNL1        0.0000
     43 C          -1.4904  -20.0020   20.6162 C.ar    1  UNL1        0.0000
     44 C          -2.2879  -20.8033   19.7964 C.ar    1  UNL1        0.0000
     45 C          -3.6536  -20.5370   19.6757 C.ar    1  UNL1        0.0000
     46 C          -4.2249  -19.4692   20.3747 C.ar    1  UNL1        0.0000
@<TRIPOS>BOND
     1    31    32    1
     2    32    33   ar
     3    33    27    1
     4    27    28    2
     5    27    29   am
     6    29     1    1
     7     1     2   ar
     8     2     3   ar
     9     3     4   ar
    10     4     7    1
    11     7     8    1
    12     8     9    1
    13     9    10    1
    14    10    13    1
    15    13    14    1
    16    14    15    1
    17    15    16   ar
    18    16    17   ar
    19    17    18   ar
    20    18    19   ar
    21    19    23    1
    22    23    24    2
    23    23    25    1
    24    19    20   ar
    25    20    21    1
    26    10    11    1
    27    11    12    1
    28     4     5   ar
    29     5     6   ar
    30    33    34   ar
    31    34    35   ar
    32    35    36   ar
    33    36    37   ar
    34    37    38   ar
    35    38    41    1
    36    41    42   ar
    37    42    43   ar
    38    43    44   ar
    39    44    45   ar
    40    45    46   ar
    41    38    39   ar
    42    39    40   ar
    43    40    32   ar
    44     6     1   ar
    45    40    35   ar
    46    12     7    1
    47    46    41   ar
    48    20    15   ar
    49    29    30    1
    50    25    26    1
    51    21    22    1
