@<TRIPOS>MOLECULE
*****
 38 42 0 0 0
SMALL
GASTEIGER

@<TRIPOS>ATOM
      1 C         -22.5775   -7.1906  -10.7402 C.2     1  UNL1        0.2507
      2 O         -23.0081   -6.0095  -10.8338 O.2     1  UNL1       -0.2698
      3 N         -22.7874   -8.1333  -11.8190 N.am    1  UNL1       -0.2466
      4 C         -22.1147   -9.4380  -11.8245 C.3     1  UNL1        0.1434
      5 C         -20.6917   -9.2714  -12.3465 C.3     1  UNL1        0.2269
      6 O         -20.5982   -8.1743  -13.2543 O.3     1  UNL1       -0.4738
      7 C         -21.4102   -8.0457  -14.3865 C.ar    1  UNL1        0.1385
      8 C         -20.7800   -8.0346  -15.6344 C.ar    1  UNL1        0.0367
      9 C         -21.5210   -7.9087  -16.8078 C.ar    1  UNL1        0.0031
     10 C         -22.9149   -7.7691  -16.7557 C.ar    1  UNL1        0.0001
     11 C         -23.5516   -7.7570  -15.5033 C.ar    1  UNL1        0.0028
     12 C         -22.8229   -7.9033  -14.3062 C.ar    1  UNL1        0.0581
     13 C         -23.5969   -7.7697  -12.9969 C.3     1  UNL1        0.2216
     14 C         -23.7029   -7.6224  -18.0056 C.ar    1  UNL1        0.0015
     15 C         -24.3634   -6.3970  -18.3020 C.ar    1  UNL1        0.0016
     16 C         -25.1134   -6.2492  -19.4838 C.ar    1  UNL1        0.0206
     17 C         -25.1847   -7.3376  -20.3464 C.ar    1  UNL1        0.0985
     18 N         -25.8403   -7.4187  -21.5182 N.ar    1  UNL1       -0.2241
     19 C         -25.5746   -8.6880  -21.9255 C.ar    1  UNL1        0.1750
     20 N         -24.7928   -9.3803  -21.0625 N.ar    1  UNL1       -0.3349
     21 C         -24.5557   -8.5122  -20.0723 C.ar    1  UNL1        0.0757
     22 C         -23.8036   -8.7023  -18.9164 C.ar    1  UNL1        0.0185
     23 H         -24.4549  -10.3642  -21.1525 H       1  UNL1        0.1675
     24 C         -22.4239   -8.3095   -8.4767 C.ar    1  UNL1       -0.0165
     25 C         -21.6635   -8.6051   -7.3318 C.ar    1  UNL1        0.0142
     26 C         -20.3312   -8.1873   -7.2290 C.ar    1  UNL1        0.1054
     27 C         -19.7572   -7.4420   -8.2637 C.ar    1  UNL1        0.0185
     28 C         -20.5034   -7.1275   -9.4000 C.ar    1  UNL1        0.0055
     29 C         -21.8308   -7.5615   -9.5231 C.ar    1  UNL1        0.0498
     30 S         -19.4002   -8.5582   -5.7818 S.O2    1  UNL1        0.0104
     31 C         -20.5117   -8.9471   -4.4498 C.3     1  UNL1        0.1816
     32 O         -18.4985   -9.7316   -6.0451 O.2     1  UNL1       -0.1686
     33 O         -18.5539   -7.3759   -5.4005 O.2     1  UNL1       -0.1686
     34 C         -23.8750   -8.7336   -8.5160 C.3     1  UNL1        0.0265
     35 C         -25.4515  -10.6850   -8.7900 C.3     1  UNL1        0.0004
     36 C         -23.9913  -10.2441   -8.7453 C.3     1  UNL1        0.0047
     37 O         -24.7359   -8.6131  -13.0493 O.3     1  UNL1       -0.3313
     38 C         -25.8344   -7.9952  -12.4147 C.3     1  UNL1        0.1764
@<TRIPOS>BOND
     1    35    36    1
     2    36    34    1
     3    34    24    1
     4    24    25   ar
     5    25    26   ar
     6    26    30    1
     7    30    31    1
     8    30    32    2
     9    30    33    2
    10    26    27   ar
    11    27    28   ar
    12    28    29   ar
    13    29     1    1
    14     1     2    2
    15     1     3   am
    16     3     4    1
    17     4     5    1
    18     5     6    1
    19     6     7    1
    20     7     8   ar
    21     8     9   ar
    22     9    10   ar
    23    10    14    1
    24    14    15   ar
    25    15    16   ar
    26    16    17   ar
    27    17    18   ar
    28    18    19   ar
    29    19    20   ar
    30    20    21   ar
    31    21    22   ar
    32    10    11   ar
    33    11    12   ar
    34    12    13    1
    35    13    37    1
    36    37    38    1
    37    29    24   ar
    38    13     3    1
    39    12     7   ar
    40    22    14   ar
    41    21    17   ar
    42    20    23    1
@<TRIPOS>MOLECULE
*****
 38 42 0 0 0
SMALL
GASTEIGER

@<TRIPOS>ATOM
      1 C         -20.8386   -8.5257  -11.8423 C.2     1  UNL1        0.2507
      2 O         -20.4031   -8.1675  -12.9698 O.2     1  UNL1       -0.2698
      3 N         -22.1372   -8.0784  -11.3840 N.am    1  UNL1       -0.2466
      4 C         -22.7522   -8.6502  -10.1800 C.3     1  UNL1        0.1434
      5 C         -23.4162   -9.9769  -10.5322 C.3     1  UNL1        0.2269
      6 O         -23.8456   -9.9958  -11.8930 O.3     1  UNL1       -0.4738
      7 C         -24.6831   -9.0206  -12.4456 C.ar    1  UNL1        0.1385
      8 C         -25.9254   -9.4379  -12.9325 C.ar    1  UNL1        0.0367
      9 C         -26.8140   -8.5257  -13.4982 C.ar    1  UNL1        0.0031
     10 C         -26.4673   -7.1719  -13.6085 C.ar    1  UNL1        0.0001
     11 C         -25.2110   -6.7505  -13.1414 C.ar    1  UNL1        0.0028
     12 C         -24.3064   -7.6531  -12.5477 C.ar    1  UNL1        0.0581
     13 C         -22.9284   -7.1143  -12.1712 C.3     1  UNL1        0.2216
     14 C         -27.4093   -6.2023  -14.2228 C.ar    1  UNL1        0.0015
     15 C         -26.9227   -5.0138  -14.8362 C.ar    1  UNL1        0.0016
     16 C         -27.8083   -4.0886  -15.4200 C.ar    1  UNL1        0.0206
     17 C         -29.1681   -4.3767  -15.3762 C.ar    1  UNL1        0.0985
     18 N         -30.1824   -3.6405  -15.8645 N.ar    1  UNL1       -0.2241
     19 C         -31.2752   -4.3837  -15.5465 C.ar    1  UNL1        0.1750
     20 N         -30.9766   -5.5313  -14.8913 N.ar    1  UNL1       -0.3349
     21 C         -29.6423   -5.5107  -14.7934 C.ar    1  UNL1        0.0757
     22 C         -28.8032   -6.4526  -14.2047 C.ar    1  UNL1        0.0185
     23 H         -31.6377   -6.2613  -14.5444 H       1  UNL1        0.1675
     24 C         -20.0448  -10.8399  -11.1995 C.ar    1  UNL1       -0.0165
     25 C         -19.2427  -11.6493  -10.3760 C.ar    1  UNL1        0.0142
     26 C         -18.3966  -11.0796   -9.4170 C.ar    1  UNL1        0.1054
     27 C         -18.3692   -9.6909   -9.2549 C.ar    1  UNL1        0.0185
     28 C         -19.1705   -8.8748  -10.0541 C.ar    1  UNL1        0.0055
     29 C         -20.0035   -9.4339  -11.0335 C.ar    1  UNL1        0.0498
     30 S         -17.4090  -12.1117   -8.3884 S.O2    1  UNL1        0.0104
     31 C         -15.7226  -12.0621   -8.9496 C.3     1  UNL1        0.1816
     32 O         -17.4816  -11.6299   -6.9665 O.2     1  UNL1       -0.1686
     33 O         -17.9154  -13.5258   -8.4448 O.2     1  UNL1       -0.1686
     34 C         -20.9836  -11.5048  -12.1811 C.3     1  UNL1        0.0265
     35 C         -20.9289  -13.3776  -13.8717 C.3     1  UNL1        0.0004
     36 C         -20.5433  -12.9457  -12.4599 C.3     1  UNL1        0.0047
     37 O         -23.0916   -5.9269  -11.4130 O.3     1  UNL1       -0.3313
     38 C         -21.9097   -5.1568  -11.4454 C.3     1  UNL1        0.1764
@<TRIPOS>BOND
     1    35    36    1
     2    36    34    1
     3    34    24    1
     4    24    25   ar
     5    25    26   ar
     6    26    30    1
     7    30    31    1
     8    30    32    2
     9    30    33    2
    10    26    27   ar
    11    27    28   ar
    12    28    29   ar
    13    29     1    1
    14     1     2    2
    15     1     3   am
    16     3     4    1
    17     4     5    1
    18     5     6    1
    19     6     7    1
    20     7     8   ar
    21     8     9   ar
    22     9    10   ar
    23    10    14    1
    24    14    15   ar
    25    15    16   ar
    26    16    17   ar
    27    17    18   ar
    28    18    19   ar
    29    19    20   ar
    30    20    21   ar
    31    21    22   ar
    32    10    11   ar
    33    11    12   ar
    34    12    13    1
    35    13    37    1
    36    37    38    1
    37    29    24   ar
    38    13     3    1
    39    12     7   ar
    40    22    14   ar
    41    21    17   ar
    42    20    23    1
@<TRIPOS>MOLECULE
*****
 38 42 0 0 0
SMALL
GASTEIGER

@<TRIPOS>ATOM
      1 C         -22.3342  -10.3020  -11.9009 C.2     1  UNL1        0.2507
      2 O         -23.3627  -11.0063  -11.7129 O.2     1  UNL1       -0.2698
      3 N         -22.3931   -9.1352  -12.7564 N.am    1  UNL1       -0.2466
      4 C         -21.2749   -8.1863  -12.8188 C.3     1  UNL1        0.1434
      5 C         -21.3564   -7.2296  -11.6341 C.3     1  UNL1        0.2269
      6 O         -22.7059   -7.0483  -11.2069 O.3     1  UNL1       -0.4738
      7 C         -23.7328   -6.6406  -12.0653 C.ar    1  UNL1        0.1385
      8 C         -24.3714   -5.4305  -11.7779 C.ar    1  UNL1        0.0367
      9 C         -25.4041   -4.9583  -12.5856 C.ar    1  UNL1        0.0031
     10 C         -25.8364   -5.7020  -13.6925 C.ar    1  UNL1        0.0001
     11 C         -25.2135   -6.9297  -13.9732 C.ar    1  UNL1        0.0028
     12 C         -24.1541   -7.4151  -13.1811 C.ar    1  UNL1        0.0581
     13 C         -23.6189   -8.8072  -13.5079 C.3     1  UNL1        0.2216
     14 C         -26.9452   -5.2046  -14.5456 C.ar    1  UNL1        0.0015
     15 C         -28.2856   -5.6134  -14.2969 C.ar    1  UNL1        0.0016
     16 C         -29.3429   -5.1479  -15.1011 C.ar    1  UNL1        0.0206
     17 C         -29.0318   -4.2787  -16.1410 C.ar    1  UNL1        0.0985
     18 N         -29.8752   -3.7178  -17.0263 N.ar    1  UNL1       -0.2241
     19 C         -29.0452   -2.9739  -17.8043 C.ar    1  UNL1        0.1750
     20 N         -27.7435   -3.0543  -17.4373 N.ar    1  UNL1       -0.3349
     21 C         -27.7540   -3.8814  -16.3855 C.ar    1  UNL1        0.0757
     22 C         -26.6786   -4.3162  -15.6159 C.ar    1  UNL1        0.0185
     23 H         -26.9239   -2.5791  -17.8762 H       1  UNL1        0.1675
     24 C         -20.4539  -11.9265  -11.4275 C.ar    1  UNL1       -0.0165
     25 C         -19.2902  -12.2393  -10.7033 C.ar    1  UNL1        0.0142
     26 C         -18.7541  -11.3318   -9.7819 C.ar    1  UNL1        0.1054
     27 C         -19.3987  -10.1114   -9.5565 C.ar    1  UNL1        0.0185
     28 C         -20.5629   -9.7925  -10.2561 C.ar    1  UNL1        0.0055
     29 C         -21.0945  -10.6843  -11.1984 C.ar    1  UNL1        0.0498
     30 S         -17.3025  -11.7478   -8.8773 S.O2    1  UNL1        0.0104
     31 C         -17.4500  -11.1379   -7.2137 C.3     1  UNL1        0.1816
     32 O         -17.1295  -13.2407   -8.8535 O.2     1  UNL1       -0.1686
     33 O         -16.0973  -11.1331   -9.5323 O.2     1  UNL1       -0.1686
     34 C         -21.0254  -12.9625  -12.3693 C.3     1  UNL1        0.0265
     35 C         -21.4903  -13.5183  -14.7866 C.3     1  UNL1        0.0004
     36 C         -20.8102  -12.5454  -13.8279 C.3     1  UNL1        0.0047
     37 O         -23.3385   -8.8764  -14.8965 O.3     1  UNL1       -0.3313
     38 C         -23.5787  -10.1794  -15.3818 C.3     1  UNL1        0.1764
@<TRIPOS>BOND
     1    35    36    1
     2    36    34    1
     3    34    24    1
     4    24    25   ar
     5    25    26   ar
     6    26    30    1
     7    30    31    1
     8    30    32    2
     9    30    33    2
    10    26    27   ar
    11    27    28   ar
    12    28    29   ar
    13    29     1    1
    14     1     2    2
    15     1     3   am
    16     3     4    1
    17     4     5    1
    18     5     6    1
    19     6     7    1
    20     7     8   ar
    21     8     9   ar
    22     9    10   ar
    23    10    14    1
    24    14    15   ar
    25    15    16   ar
    26    16    17   ar
    27    17    18   ar
    28    18    19   ar
    29    19    20   ar
    30    20    21   ar
    31    21    22   ar
    32    10    11   ar
    33    11    12   ar
    34    12    13    1
    35    13    37    1
    36    37    38    1
    37    29    24   ar
    38    13     3    1
    39    12     7   ar
    40    22    14   ar
    41    21    17   ar
    42    20    23    1
@<TRIPOS>MOLECULE
*****
 38 42 0 0 0
SMALL
GASTEIGER

@<TRIPOS>ATOM
      1 C         -20.5108   -7.7958  -10.2545 C.2     1  UNL1        0.2507
      2 O         -20.0053   -7.8455  -11.4083 O.2     1  UNL1       -0.2698
      3 N         -21.8133   -7.1967  -10.0519 N.am    1  UNL1       -0.2466
      4 C         -22.5099   -7.3191   -8.7655 C.3     1  UNL1        0.1434
      5 C         -23.2046   -8.6746   -8.6933 C.3     1  UNL1        0.2269
      6 O         -23.5645   -9.1419   -9.9927 O.3     1  UNL1       -0.4738
      7 C         -24.3355   -8.3940  -10.8893 C.ar    1  UNL1        0.1385
      8 C         -25.5662   -8.9278  -11.2829 C.ar    1  UNL1        0.0367
      9 C         -26.3899   -8.2426  -12.1739 C.ar    1  UNL1        0.0031
     10 C         -25.9873   -7.0113  -12.7095 C.ar    1  UNL1        0.0001
     11 C         -24.7415   -6.4805  -12.3350 C.ar    1  UNL1        0.0028
     12 C         -23.9029   -7.1475  -11.4200 C.ar    1  UNL1        0.0581
     13 C         -22.5265   -6.5389  -11.1626 C.3     1  UNL1        0.2216
     14 C         -26.8597   -6.2875  -13.6686 C.ar    1  UNL1        0.0015
     15 C         -28.2138   -6.6850  -13.8534 C.ar    1  UNL1        0.0016
     16 C         -29.0477   -6.0054  -14.7611 C.ar    1  UNL1        0.0206
     17 C         -28.5035   -4.9376  -15.4664 C.ar    1  UNL1        0.0985
     18 N         -29.1117   -4.1560  -16.3768 N.ar    1  UNL1       -0.2241
     19 C         -28.1271   -3.2911  -16.7379 C.ar    1  UNL1        0.1750
     20 N         -26.9547   -3.5074  -16.0944 N.ar    1  UNL1       -0.3349
     21 C         -27.2110   -4.5496  -15.2954 C.ar    1  UNL1        0.0757
     22 C         -26.3514   -5.1922  -14.4088 C.ar    1  UNL1        0.0185
     23 H         -26.0595   -2.9803  -16.2001 H       1  UNL1        0.1675
     24 C         -19.1825   -9.6879   -9.2278 C.ar    1  UNL1       -0.0165
     25 C         -18.4960  -10.2096   -8.1174 C.ar    1  UNL1        0.0142
     26 C         -18.3557   -9.4586   -6.9442 C.ar    1  UNL1        0.1054
     27 C         -18.9296   -8.1859   -6.8638 C.ar    1  UNL1        0.0185
     28 C         -19.6270   -7.6601   -7.9518 C.ar    1  UNL1        0.0055
     29 C         -19.7527   -8.3944   -9.1395 C.ar    1  UNL1        0.0498
     30 S         -17.5020  -10.1349   -5.5613 S.O2    1  UNL1        0.0104
     31 C         -16.7375   -8.8202   -4.6403 C.3     1  UNL1        0.1816
     32 O         -18.4695  -10.8726   -4.6787 O.2     1  UNL1       -0.1686
     33 O         -16.4476  -11.0977   -6.0313 O.2     1  UNL1       -0.1686
     34 C         -19.3558  -10.5595  -10.4514 C.3     1  UNL1        0.0265
     35 C         -21.3181  -11.2026  -11.9021 C.3     1  UNL1        0.0004
     36 C         -20.7584  -11.1756  -10.4828 C.3     1  UNL1        0.0047
     37 O         -22.6833   -5.1630  -10.8566 O.3     1  UNL1       -0.3313
     38 C         -21.4935   -4.4584  -11.1375 C.3     1  UNL1        0.1764
@<TRIPOS>BOND
     1    35    36    1
     2    36    34    1
     3    34    24    1
     4    24    25   ar
     5    25    26   ar
     6    26    30    1
     7    30    31    1
     8    30    32    2
     9    30    33    2
    10    26    27   ar
    11    27    28   ar
    12    28    29   ar
    13    29     1    1
    14     1     2    2
    15     1     3   am
    16     3     4    1
    17     4     5    1
    18     5     6    1
    19     6     7    1
    20     7     8   ar
    21     8     9   ar
    22     9    10   ar
    23    10    14    1
    24    14    15   ar
    25    15    16   ar
    26    16    17   ar
    27    17    18   ar
    28    18    19   ar
    29    19    20   ar
    30    20    21   ar
    31    21    22   ar
    32    10    11   ar
    33    11    12   ar
    34    12    13    1
    35    13    37    1
    36    37    38    1
    37    29    24   ar
    38    13     3    1
    39    12     7   ar
    40    22    14   ar
    41    21    17   ar
    42    20    23    1
@<TRIPOS>MOLECULE
*****
 38 42 0 0 0
SMALL
GASTEIGER

@<TRIPOS>ATOM
      1 C         -25.0729   -6.3793  -12.7281 C.2     1  UNL1        0.2507
      2 O         -25.2251   -6.2638  -11.4820 O.2     1  UNL1       -0.2698
      3 N         -23.9251   -7.0817  -13.2627 N.am    1  UNL1       -0.2466
      4 C         -23.8389   -7.4126  -14.6903 C.3     1  UNL1        0.1434
      5 C         -24.6470   -8.6759  -14.9666 C.3     1  UNL1        0.2269
      6 O         -24.6946   -9.5217  -13.8182 O.3     1  UNL1       -0.4738
      7 C         -23.5504   -9.9701  -13.1493 C.ar    1  UNL1        0.1385
      8 C         -23.3266  -11.3495  -13.1076 C.ar    1  UNL1        0.0367
      9 C         -22.2097  -11.8727  -12.4591 C.ar    1  UNL1        0.0031
     10 C         -21.2988  -11.0226  -11.8165 C.ar    1  UNL1        0.0001
     11 C         -21.5305   -9.6370  -11.8358 C.ar    1  UNL1        0.0028
     12 C         -22.6426   -9.0864  -12.5032 C.ar    1  UNL1        0.0581
     13 C         -22.8596   -7.5807  -12.3735 C.3     1  UNL1        0.2216
     14 C         -20.1155  -11.5814  -11.1149 C.ar    1  UNL1        0.0015
     15 C         -19.7007  -12.9214  -11.3554 C.ar    1  UNL1        0.0016
     16 C         -18.5809  -13.4597  -10.6941 C.ar    1  UNL1        0.0206
     17 C         -17.8984  -12.6392   -9.8026 C.ar    1  UNL1        0.0985
     18 N         -16.8140  -12.9437   -9.0672 N.ar    1  UNL1       -0.2241
     19 C         -16.5771  -11.7909   -8.3872 C.ar    1  UNL1        0.1750
     20 N         -17.4605  -10.8040   -8.6716 N.ar    1  UNL1       -0.3349
     21 C         -18.2866  -11.3568   -9.5673 C.ar    1  UNL1        0.0757
     22 C         -19.3869  -10.7838  -10.1989 C.ar    1  UNL1        0.0185
     23 H         -17.4875   -9.8363   -8.2803 H       1  UNL1        0.1675
     24 C         -27.3474   -6.4664  -13.8316 C.ar    1  UNL1       -0.0165
     25 C         -28.2822   -5.8833  -14.7049 C.ar    1  UNL1        0.0142
     26 C         -28.0109   -4.6619  -15.3331 C.ar    1  UNL1        0.1054
     27 C         -26.7844   -4.0273  -15.1133 C.ar    1  UNL1        0.0185
     28 C         -25.8399   -4.6007  -14.2611 C.ar    1  UNL1        0.0055
     29 C         -26.1115   -5.8115  -13.6087 C.ar    1  UNL1        0.0498
     30 S         -29.1904   -3.9546  -16.4319 S.O2    1  UNL1        0.0104
     31 C         -28.3684   -3.4238  -17.9164 C.3     1  UNL1        0.1816
     32 O         -30.2406   -4.9740  -16.7740 O.2     1  UNL1       -0.1686
     33 O         -29.8568   -2.7764  -15.7783 O.2     1  UNL1       -0.1686
     34 C         -27.6632   -7.8138  -13.2217 C.3     1  UNL1        0.0265
     35 C         -27.5860   -8.1474  -10.7215 C.3     1  UNL1        0.0004
     36 C         -28.4173   -7.6456  -11.8986 C.3     1  UNL1        0.0047
     37 O         -21.6484   -6.9138  -12.6891 O.3     1  UNL1       -0.3313
     38 C         -21.3553   -5.9388  -11.7122 C.3     1  UNL1        0.1764
@<TRIPOS>BOND
     1    35    36    1
     2    36    34    1
     3    34    24    1
     4    24    25   ar
     5    25    26   ar
     6    26    30    1
     7    30    31    1
     8    30    32    2
     9    30    33    2
    10    26    27   ar
    11    27    28   ar
    12    28    29   ar
    13    29     1    1
    14     1     2    2
    15     1     3   am
    16     3     4    1
    17     4     5    1
    18     5     6    1
    19     6     7    1
    20     7     8   ar
    21     8     9   ar
    22     9    10   ar
    23    10    14    1
    24    14    15   ar
    25    15    16   ar
    26    16    17   ar
    27    17    18   ar
    28    18    19   ar
    29    19    20   ar
    30    20    21   ar
    31    21    22   ar
    32    10    11   ar
    33    11    12   ar
    34    12    13    1
    35    13    37    1
    36    37    38    1
    37    29    24   ar
    38    13     3    1
    39    12     7   ar
    40    22    14   ar
    41    21    17   ar
    42    20    23    1
@<TRIPOS>MOLECULE
*****
 38 42 0 0 0
SMALL
GASTEIGER

@<TRIPOS>ATOM
      1 C         -20.5357   -8.4252  -11.1404 C.2     1  UNL1        0.2507
      2 O         -20.0031   -7.8465  -12.1257 O.2     1  UNL1       -0.2698
      3 N         -21.9285   -8.1918  -10.8206 N.am    1  UNL1       -0.2466
      4 C         -22.6214   -9.0107   -9.8185 C.3     1  UNL1        0.1434
      5 C         -23.0649  -10.3229  -10.4561 C.3     1  UNL1        0.2269
      6 O         -23.3058  -10.1641  -11.8537 O.3     1  UNL1       -0.4738
      7 C         -24.1769   -9.2020  -12.3763 C.ar    1  UNL1        0.1385
      8 C         -25.2834   -9.6583  -13.0988 C.ar    1  UNL1        0.0367
      9 C         -26.1953   -8.7610  -13.6511 C.ar    1  UNL1        0.0031
     10 C         -26.0065   -7.3792  -13.5093 C.ar    1  UNL1        0.0001
     11 C         -24.8842   -6.9143  -12.8034 C.ar    1  UNL1        0.0028
     12 C         -23.9614   -7.8050  -12.2199 C.ar    1  UNL1        0.0581
     13 C         -22.7218   -7.1978  -11.5673 C.3     1  UNL1        0.2216
     14 C         -26.9717   -6.4231  -14.1087 C.ar    1  UNL1        0.0015
     15 C         -26.5153   -5.2066  -14.6895 C.ar    1  UNL1        0.0016
     16 C         -27.4229   -4.2939  -15.2590 C.ar    1  UNL1        0.0206
     17 C         -28.7740   -4.6226  -15.2339 C.ar    1  UNL1        0.0985
     18 N         -29.8055   -3.9048  -15.7136 N.ar    1  UNL1       -0.2241
     19 C         -30.8785   -4.6871  -15.4228 C.ar    1  UNL1        0.1750
     20 N         -30.5516   -5.8408  -14.7924 N.ar    1  UNL1       -0.3349
     21 C         -29.2193   -5.7835  -14.6822 C.ar    1  UNL1        0.0757
     22 C         -28.3577   -6.7144  -14.1087 C.ar    1  UNL1        0.0185
     23 H         -31.1937   -6.5978  -14.4686 H       1  UNL1        0.1675
     24 C         -19.2485   -9.0518   -9.0550 C.ar    1  UNL1       -0.0165
     25 C         -18.4408   -9.9804   -8.3753 C.ar    1  UNL1        0.0142
     26 C         -18.1091  -11.2070   -8.9631 C.ar    1  UNL1        0.1054
     27 C         -18.5615  -11.5016  -10.2531 C.ar    1  UNL1        0.0185
     28 C         -19.3514  -10.5843  -10.9468 C.ar    1  UNL1        0.0055
     29 C         -19.7089   -9.3633  -10.3577 C.ar    1  UNL1        0.0498
     30 S         -17.0871  -12.3507   -8.0994 S.O2    1  UNL1        0.0104
     31 C         -15.4479  -12.3119   -8.7869 C.3     1  UNL1        0.1816
     32 O         -17.0319  -11.9830   -6.6431 O.2     1  UNL1       -0.1686
     33 O         -17.6515  -13.7382   -8.2254 O.2     1  UNL1       -0.1686
     34 C         -19.5320   -7.7180   -8.4012 C.3     1  UNL1        0.0265
     35 C         -18.5192   -7.5149   -6.0987 C.3     1  UNL1        0.0004
     36 C         -19.7643   -7.8913   -6.8966 C.3     1  UNL1        0.0047
     37 O         -23.1284   -6.1719  -10.6765 O.3     1  UNL1       -0.3313
     38 C         -22.2380   -5.0795  -10.7459 C.3     1  UNL1        0.1764
@<TRIPOS>BOND
     1    35    36    1
     2    36    34    1
     3    34    24    1
     4    24    25   ar
     5    25    26   ar
     6    26    30    1
     7    30    31    1
     8    30    32    2
     9    30    33    2
    10    26    27   ar
    11    27    28   ar
    12    28    29   ar
    13    29     1    1
    14     1     2    2
    15     1     3   am
    16     3     4    1
    17     4     5    1
    18     5     6    1
    19     6     7    1
    20     7     8   ar
    21     8     9   ar
    22     9    10   ar
    23    10    14    1
    24    14    15   ar
    25    15    16   ar
    26    16    17   ar
    27    17    18   ar
    28    18    19   ar
    29    19    20   ar
    30    20    21   ar
    31    21    22   ar
    32    10    11   ar
    33    11    12   ar
    34    12    13    1
    35    13    37    1
    36    37    38    1
    37    29    24   ar
    38    13     3    1
    39    12     7   ar
    40    22    14   ar
    41    21    17   ar
    42    20    23    1
@<TRIPOS>MOLECULE
*****
 38 42 0 0 0
SMALL
GASTEIGER

@<TRIPOS>ATOM
      1 C         -22.4863  -10.1409  -11.5773 C.2     1  UNL1        0.2507
      2 O         -23.5305  -10.7774  -11.2709 O.2     1  UNL1       -0.2698
      3 N         -22.5412   -9.0717  -12.5522 N.am    1  UNL1       -0.2466
      4 C         -21.3927   -8.1825  -12.7643 C.3     1  UNL1        0.1434
      5 C         -21.3846   -7.1012  -11.6891 C.3     1  UNL1        0.2269
      6 O         -22.7055   -6.8188  -11.2288 O.3     1  UNL1       -0.4738
      7 C         -23.7548   -6.4634  -12.0833 C.ar    1  UNL1        0.1385
      8 C         -24.3344   -5.2039  -11.9039 C.ar    1  UNL1        0.0367
      9 C         -25.3848   -4.7788  -12.7149 C.ar    1  UNL1        0.0031
     10 C         -25.8944   -5.6187  -13.7149 C.ar    1  UNL1        0.0001
     11 C         -25.3308   -6.8944  -13.8852 C.ar    1  UNL1        0.0028
     12 C         -24.2550   -7.3354  -13.0893 C.ar    1  UNL1        0.0581
     13 C         -23.7871   -8.7757  -13.2837 C.3     1  UNL1        0.2216
     14 C         -27.0220   -5.1703  -14.5707 C.ar    1  UNL1        0.0015
     15 C         -28.3429   -5.6415  -14.3284 C.ar    1  UNL1        0.0016
     16 C         -29.4177   -5.2227  -15.1350 C.ar    1  UNL1        0.0206
     17 C         -29.1433   -4.3366  -16.1711 C.ar    1  UNL1        0.0985
     18 N         -30.0085   -3.8125  -17.0578 N.ar    1  UNL1       -0.2241
     19 C         -29.2110   -3.0284  -17.8304 C.ar    1  UNL1        0.1750
     20 N         -27.9084   -3.0498  -17.4587 N.ar    1  UNL1       -0.3349
     21 C         -27.8843   -3.8799  -16.4095 C.ar    1  UNL1        0.0757
     22 C         -26.7928   -4.2671  -15.6373 C.ar    1  UNL1        0.0185
     23 H         -27.1099   -2.5358  -17.8930 H       1  UNL1        0.1675
     24 C         -20.7798   -9.7998   -9.7416 C.ar    1  UNL1       -0.0165
     25 C         -19.5598  -10.1729   -9.1509 C.ar    1  UNL1        0.0142
     26 C         -18.8057  -11.2313   -9.6717 C.ar    1  UNL1        0.1054
     27 C         -19.2552  -11.9076  -10.8101 C.ar    1  UNL1        0.0185
     28 C         -20.4565  -11.5395  -11.4169 C.ar    1  UNL1        0.0055
     29 C         -21.2309  -10.4967  -10.8892 C.ar    1  UNL1        0.0498
     30 S         -17.2752  -11.6749   -8.9238 S.O2    1  UNL1        0.0104
     31 C         -17.3331  -11.2881   -7.1893 C.3     1  UNL1        0.1816
     32 O         -17.0298  -13.1468   -9.1042 O.2     1  UNL1       -0.1686
     33 O         -16.1504  -10.9157   -9.5701 O.2     1  UNL1       -0.1686
     34 C         -21.5294   -8.6142   -9.1765 C.3     1  UNL1        0.0265
     35 C         -23.9981   -8.8079   -8.6901 C.3     1  UNL1        0.0004
     36 C         -22.5886   -9.0736   -8.1692 C.3     1  UNL1        0.0047
     37 O         -23.5732   -9.0057  -14.6667 O.3     1  UNL1       -0.3313
     38 C         -23.8662  -10.3470  -14.9928 C.3     1  UNL1        0.1764
@<TRIPOS>BOND
     1    35    36    1
     2    36    34    1
     3    34    24    1
     4    24    25   ar
     5    25    26   ar
     6    26    30    1
     7    30    31    1
     8    30    32    2
     9    30    33    2
    10    26    27   ar
    11    27    28   ar
    12    28    29   ar
    13    29     1    1
    14     1     2    2
    15     1     3   am
    16     3     4    1
    17     4     5    1
    18     5     6    1
    19     6     7    1
    20     7     8   ar
    21     8     9   ar
    22     9    10   ar
    23    10    14    1
    24    14    15   ar
    25    15    16   ar
    26    16    17   ar
    27    17    18   ar
    28    18    19   ar
    29    19    20   ar
    30    20    21   ar
    31    21    22   ar
    32    10    11   ar
    33    11    12   ar
    34    12    13    1
    35    13    37    1
    36    37    38    1
    37    29    24   ar
    38    13     3    1
    39    12     7   ar
    40    22    14   ar
    41    21    17   ar
    42    20    23    1
@<TRIPOS>MOLECULE
*****
 38 42 0 0 0
SMALL
GASTEIGER

@<TRIPOS>ATOM
      1 C         -25.9970   -6.4816  -14.6114 C.2     1  UNL1        0.2507
      2 O         -25.1993   -6.8206  -15.5268 O.2     1  UNL1       -0.2698
      3 N         -25.7454   -6.8729  -13.2401 N.am    1  UNL1       -0.2466
      4 C         -26.5364   -6.3137  -12.1372 C.3     1  UNL1        0.1434
      5 C         -25.9885   -4.9396  -11.7673 C.3     1  UNL1        0.2269
      6 O         -24.5930   -4.8452  -12.0507 O.3     1  UNL1       -0.4738
      7 C         -23.6479   -5.7504  -11.5558 C.ar    1  UNL1        0.1385
      8 C         -22.6491   -5.2463  -10.7175 C.ar    1  UNL1        0.0367
      9 C         -21.6717   -6.0854  -10.1862 C.ar    1  UNL1        0.0031
     10 C         -21.6607   -7.4512  -10.5014 C.ar    1  UNL1        0.0001
     11 C         -22.6487   -7.9595  -11.3613 C.ar    1  UNL1        0.0028
     12 C         -23.6577   -7.1320  -11.8929 C.ar    1  UNL1        0.0581
     13 C         -24.6181   -7.7608  -12.8996 C.3     1  UNL1        0.2216
     14 C         -20.6116   -8.3427   -9.9451 C.ar    1  UNL1        0.0015
     15 C         -19.9973   -9.3317  -10.7637 C.ar    1  UNL1        0.0016
     16 C         -19.0028  -10.1818  -10.2447 C.ar    1  UNL1        0.0206
     17 C         -18.6442  -10.0208   -8.9107 C.ar    1  UNL1        0.0985
     18 N         -17.7285  -10.7174   -8.2138 N.ar    1  UNL1       -0.2241
     19 C         -17.7914  -10.1491   -6.9806 C.ar    1  UNL1        0.1750
     20 N         -18.6968   -9.1451   -6.8935 N.ar    1  UNL1       -0.3349
     21 C         -19.2248   -9.0775   -8.1211 C.ar    1  UNL1        0.0757
     22 C         -20.2113   -8.2159   -8.5925 C.ar    1  UNL1        0.0185
     23 H         -18.9268   -8.5608   -6.0592 H       1  UNL1        0.1675
     24 C         -27.0746   -4.6235  -15.9472 C.ar    1  UNL1       -0.0165
     25 C         -28.2161   -3.8527  -16.2292 C.ar    1  UNL1        0.0142
     26 C         -29.4304   -4.1068  -15.5805 C.ar    1  UNL1        0.1054
     27 C         -29.5034   -5.1197  -14.6192 C.ar    1  UNL1        0.0185
     28 C         -28.3756   -5.8836  -14.3170 C.ar    1  UNL1        0.0055
     29 C         -27.1610   -5.6529  -14.9782 C.ar    1  UNL1        0.0498
     30 S         -30.8448   -3.1226  -15.9401 S.O2    1  UNL1        0.0104
     31 C         -30.7116   -2.4814  -17.5931 C.3     1  UNL1        0.1816
     32 O         -32.0884   -3.9585  -15.8222 O.2     1  UNL1       -0.1686
     33 O         -30.9362   -1.9821  -14.9652 O.2     1  UNL1       -0.1686
     34 C         -25.7727   -4.2735  -16.6325 C.3     1  UNL1        0.0265
     35 C         -25.0354   -5.6322  -18.6272 C.3     1  UNL1        0.0004
     36 C         -25.8910   -4.4629  -18.1483 C.3     1  UNL1        0.0047
     37 O         -25.1310   -8.9651  -12.3537 O.3     1  UNL1       -0.3313
     38 C         -25.0072  -10.0183  -13.2846 C.3     1  UNL1        0.1764
@<TRIPOS>BOND
     1    35    36    1
     2    36    34    1
     3    34    24    1
     4    24    25   ar
     5    25    26   ar
     6    26    30    1
     7    30    31    1
     8    30    32    2
     9    30    33    2
    10    26    27   ar
    11    27    28   ar
    12    28    29   ar
    13    29     1    1
    14     1     2    2
    15     1     3   am
    16     3     4    1
    17     4     5    1
    18     5     6    1
    19     6     7    1
    20     7     8   ar
    21     8     9   ar
    22     9    10   ar
    23    10    14    1
    24    14    15   ar
    25    15    16   ar
    26    16    17   ar
    27    17    18   ar
    28    18    19   ar
    29    19    20   ar
    30    20    21   ar
    31    21    22   ar
    32    10    11   ar
    33    11    12   ar
    34    12    13    1
    35    13    37    1
    36    37    38    1
    37    29    24   ar
    38    13     3    1
    39    12     7   ar
    40    22    14   ar
    41    21    17   ar
    42    20    23    1
