@<TRIPOS>MOLECULE
*****
 51 56 0 0 0
SMALL
GASTEIGER

@<TRIPOS>ATOM
      1 O          10.1015   76.5288   27.1619 O.2     1  UNL1       -0.2701
      2 C           8.8628   76.7657   27.1247 C.2     1  UNL1        0.2483
      3 N           8.2265   77.3861   28.2539 N.am    1  UNL1       -0.2945
      4 H           7.2840   77.8116   28.1114 H       1  UNL1        0.1501
      5 C           8.0960   76.4177   25.9016 C.ar    1  UNL1        0.0808
      6 C           8.2331   77.2186   24.7539 C.ar    1  UNL1        0.0080
      7 C           7.5382   76.9112   23.5821 C.ar    1  UNL1        0.0148
      8 C           6.6993   75.7890   23.5268 C.ar    1  UNL1        0.0502
      9 C           6.5631   74.9819   24.6654 C.ar    1  UNL1        0.0443
     10 C           7.2552   75.2855   25.8421 C.ar    1  UNL1        0.1457
     11 F           7.1323   74.4387   26.8944 F       1  UNL1       -0.2040
     12 N           5.9776   75.4772   22.3207 N.pl3   1  UNL1       -0.3040
     13 C           5.5303   76.5449   21.4203 C.3     1  UNL1        0.1123
     14 C           4.0343   76.3844   21.1454 C.3     1  UNL1        0.1136
     15 N           3.6985   75.0018   20.7567 N.pl3   1  UNL1       -0.2897
     16 C           4.7457   73.9654   20.7721 C.3     1  UNL1        0.1136
     17 C           5.6144   74.0821   22.0330 C.3     1  UNL1        0.1123
     18 C           2.4033   74.7013   20.1865 C.ar    1  UNL1        0.1318
     19 C           1.7239   75.6297   19.3774 C.ar    1  UNL1        0.0343
     20 C           0.4767   75.3006   18.8442 C.ar    1  UNL1        0.0083
     21 C          -0.1091   74.0586   19.1284 C.ar    1  UNL1        0.0906
     22 C           0.6090   73.1498   19.9195 C.ar    1  UNL1        0.1041
     23 N           1.8230   73.4914   20.4257 N.ar    1  UNL1       -0.2292
     24 C          -1.4321   73.6723   18.5179 C.3     1  UNL1        0.4200
     25 F          -2.4443   73.9339   19.4221 F       1  UNL1       -0.1658
     26 F          -1.6644   74.3933   17.3594 F       1  UNL1       -0.1658
     27 F          -1.4481   72.3252   18.2000 F       1  UNL1       -0.1658
     28 C           8.9229   77.5822   29.5348 C.3     1  UNL1        0.1535
     29 C           9.2522   79.0382   29.7686 C.2     1  UNL1        0.2443
     30 O           9.8375   79.7052   28.8715 O.2     1  UNL1       -0.2730
     31 N           8.7942   79.6841   30.9674 N.am    1  UNL1       -0.2825
     32 H           8.0865   79.1821   31.5503 H       1  UNL1        0.1549
     33 C           9.1241   81.0362   31.3265 C.ar    1  UNL1        0.0535
     34 C           8.8315   81.4974   32.6170 C.ar    1  UNL1        0.0353
     35 C           9.1658   82.8054   32.9760 C.ar    1  UNL1        0.1002
     36 N           9.7864   83.6202   32.0825 N.ar    1  UNL1       -0.2422
     37 C          10.1003   83.1952   30.8301 C.ar    1  UNL1        0.1002
     38 C           9.7823   81.8949   30.4300 C.ar    1  UNL1        0.0353
     39 C           8.1179   76.9957   30.7164 C.3     1  UNL1        0.0573
     40 C           7.2107   75.8595   30.3179 C.ar    1  UNL1        0.0026
     41 C           7.5811   74.5726   29.9235 C.ar    1  UNL1        0.0753
     42 S           9.2568   73.9836   29.6895 S.3     1  UNL1       -0.1250
     43 N           6.4927   73.8114   29.6731 N.ar    1  UNL1       -0.3489
     44 C           5.4319   74.6064   29.8918 C.ar    1  UNL1        0.0567
     45 C           4.0860   74.2735   29.7441 C.ar    1  UNL1        0.0170
     46 C           3.1290   75.2730   29.9954 C.ar    1  UNL1        0.0015
     47 C           3.5340   76.5725   30.3698 C.ar    1  UNL1        0.0001
     48 C           4.8991   76.8823   30.5043 C.ar    1  UNL1        0.0012
     49 C           5.8271   75.8646   30.2746 C.ar    1  UNL1        0.0136
     50 H           9.2749   74.4132   28.3497 H       1  UNL1        0.1085
     51 H           6.4811   72.8175   29.3523 H       1  UNL1        0.1664
@<TRIPOS>BOND
     1     1     2    2
     2     2     3   am
     3     3    28    1
     4    28    39    1
     5    39    40    1
     6    40    41   ar
     7    41    42    1
     8    41    43   ar
     9    43    44   ar
    10    44    45   ar
    11    45    46   ar
    12    46    47   ar
    13    47    48   ar
    14    48    49   ar
    15    28    29    1
    16    29    30    2
    17    29    31   am
    18    31    33    1
    19    33    34   ar
    20    34    35   ar
    21    35    36   ar
    22    36    37   ar
    23    37    38   ar
    24     2     5    1
    25     5     6   ar
    26     6     7   ar
    27     7     8   ar
    28     8    12    1
    29    12    13    1
    30    13    14    1
    31    14    15    1
    32    15    18    1
    33    18    19   ar
    34    19    20   ar
    35    20    21   ar
    36    21    24    1
    37    24    25    1
    38    24    26    1
    39    24    27    1
    40    21    22   ar
    41    22    23   ar
    42    15    16    1
    43    16    17    1
    44     8     9   ar
    45     9    10   ar
    46    10    11    1
    47    49    40   ar
    48    38    33   ar
    49    10     5   ar
    50    49    44   ar
    51    17    12    1
    52    23    18   ar
    53     3     4    1
    54    42    50    1
    55    43    51    1
    56    31    32    1
@<TRIPOS>MOLECULE
*****
 51 56 0 0 0
SMALL
GASTEIGER

@<TRIPOS>ATOM
      1 O          10.0653   76.0179   26.7050 O.2     1  UNL1       -0.2701
      2 C           8.9262   76.5480   26.5889 C.2     1  UNL1        0.2483
      3 N           8.4620   77.4569   27.6005 N.am    1  UNL1       -0.2945
      4 H           7.6575   78.0795   27.3666 H       1  UNL1        0.1501
      5 C           8.1014   76.2363   25.3940 C.ar    1  UNL1        0.0808
      6 C           8.7337   75.7861   24.2215 C.ar    1  UNL1        0.0080
      7 C           7.9869   75.4697   23.0845 C.ar    1  UNL1        0.0148
      8 C           6.5895   75.5847   23.0973 C.ar    1  UNL1        0.0502
      9 C           5.9517   76.0265   24.2653 C.ar    1  UNL1        0.0443
     10 C           6.6943   76.3463   25.4064 C.ar    1  UNL1        0.1457
     11 F           6.0224   76.7125   26.5263 F       1  UNL1       -0.2040
     12 N           5.8211   75.2655   21.9224 N.pl3   1  UNL1       -0.3040
     13 C           5.4249   76.3171   20.9801 C.3     1  UNL1        0.1123
     14 C           3.9156   76.2448   20.7431 C.3     1  UNL1        0.1136
     15 N           3.4801   74.8712   20.4289 N.pl3   1  UNL1       -0.2897
     16 C           4.4564   73.7685   20.4740 C.3     1  UNL1        0.1136
     17 C           5.3598   73.8860   21.7102 C.3     1  UNL1        0.1123
     18 C           2.1550   74.6319   19.8998 C.ar    1  UNL1        0.1318
     19 C           1.4652   75.6189   19.1731 C.ar    1  UNL1        0.0343
     20 C           0.1889   75.3478   18.6773 C.ar    1  UNL1        0.0083
     21 C          -0.4147   74.1052   18.9181 C.ar    1  UNL1        0.0906
     22 C           0.3134   73.1379   19.6263 C.ar    1  UNL1        0.1041
     23 N           1.5557   73.4237   20.0973 N.ar    1  UNL1       -0.2292
     24 C          -1.7714   73.7832   18.3453 C.3     1  UNL1        0.4200
     25 F          -1.8629   72.4208   18.1303 F       1  UNL1       -0.1658
     26 F          -2.7741   74.1707   19.2173 F       1  UNL1       -0.1658
     27 F          -1.9631   74.4435   17.1440 F       1  UNL1       -0.1658
     28 C           9.1801   77.6484   28.8700 C.3     1  UNL1        0.1535
     29 C           8.9491   79.0313   29.4335 C.2     1  UNL1        0.2443
     30 O           8.0569   79.7739   28.9387 O.2     1  UNL1       -0.2730
     31 N           9.6703   79.4485   30.6039 N.am    1  UNL1       -0.2825
     32 H          10.1897   78.7177   31.1413 H       1  UNL1        0.1549
     33 C           9.5892   80.7679   31.1684 C.ar    1  UNL1        0.0535
     34 C          10.0252   81.8671   30.4164 C.ar    1  UNL1        0.0353
     35 C           9.9326   83.1530   30.9541 C.ar    1  UNL1        0.1002
     36 N           9.4069   83.3374   32.1940 N.ar    1  UNL1       -0.2422
     37 C           8.9581   82.2930   32.9393 C.ar    1  UNL1        0.1002
     38 C           9.0336   80.9905   32.4396 C.ar    1  UNL1        0.0353
     39 C           8.8142   76.5575   29.9017 C.3     1  UNL1        0.0573
     40 C           7.3525   76.1887   29.8906 C.ar    1  UNL1        0.0026
     41 C           6.3078   76.8293   30.5594 C.ar    1  UNL1        0.0753
     42 S           6.4708   78.2038   31.6969 S.3     1  UNL1       -0.1250
     43 N           5.1239   76.2368   30.2872 N.ar    1  UNL1       -0.3489
     44 C           5.4070   75.2159   29.4609 C.ar    1  UNL1        0.0567
     45 C           4.5087   74.2969   28.9201 C.ar    1  UNL1        0.0170
     46 C           5.0233   73.2785   28.0979 C.ar    1  UNL1        0.0015
     47 C           6.4103   73.1930   27.8493 C.ar    1  UNL1        0.0001
     48 C           7.2944   74.1296   28.4138 C.ar    1  UNL1        0.0012
     49 C           6.7543   75.1457   29.2046 C.ar    1  UNL1        0.0136
     50 H           6.6600   77.3411   32.7922 H       1  UNL1        0.1085
     51 H           4.1864   76.5041   30.6620 H       1  UNL1        0.1664
@<TRIPOS>BOND
     1     1     2    2
     2     2     3   am
     3     3    28    1
     4    28    39    1
     5    39    40    1
     6    40    41   ar
     7    41    42    1
     8    41    43   ar
     9    43    44   ar
    10    44    45   ar
    11    45    46   ar
    12    46    47   ar
    13    47    48   ar
    14    48    49   ar
    15    28    29    1
    16    29    30    2
    17    29    31   am
    18    31    33    1
    19    33    34   ar
    20    34    35   ar
    21    35    36   ar
    22    36    37   ar
    23    37    38   ar
    24     2     5    1
    25     5     6   ar
    26     6     7   ar
    27     7     8   ar
    28     8    12    1
    29    12    13    1
    30    13    14    1
    31    14    15    1
    32    15    18    1
    33    18    19   ar
    34    19    20   ar
    35    20    21   ar
    36    21    24    1
    37    24    25    1
    38    24    26    1
    39    24    27    1
    40    21    22   ar
    41    22    23   ar
    42    15    16    1
    43    16    17    1
    44     8     9   ar
    45     9    10   ar
    46    10    11    1
    47    49    40   ar
    48    38    33   ar
    49    10     5   ar
    50    49    44   ar
    51    17    12    1
    52    23    18   ar
    53     3     4    1
    54    42    50    1
    55    43    51    1
    56    31    32    1
@<TRIPOS>MOLECULE
*****
 51 56 0 0 0
SMALL
GASTEIGER

@<TRIPOS>ATOM
      1 O          10.6823   74.7201   25.6349 O.2     1  UNL1       -0.2701
      2 C          10.0292   75.7722   25.3927 C.2     1  UNL1        0.2483
      3 N           8.5982   75.7068   25.2796 N.am    1  UNL1       -0.2945
      4 H           8.0610   76.5993   25.3464 H       1  UNL1        0.1501
      5 C          10.7565   77.0594   25.2538 C.ar    1  UNL1        0.0808
      6 C          10.3106   78.1815   25.9746 C.ar    1  UNL1        0.0080
      7 C          10.9802   79.4034   25.8787 C.ar    1  UNL1        0.0148
      8 C          12.1182   79.5286   25.0692 C.ar    1  UNL1        0.0502
      9 C          12.5726   78.4120   24.3529 C.ar    1  UNL1        0.0443
     10 C          11.9054   77.1863   24.4437 C.ar    1  UNL1        0.1457
     11 F          12.4217   76.1248   23.7758 F       1  UNL1       -0.2040
     12 N          12.8033   80.7906   24.9652 N.pl3   1  UNL1       -0.3040
     13 C          14.2264   80.8983   25.3028 C.3     1  UNL1        0.1123
     14 C          14.4252   82.0314   26.3107 C.3     1  UNL1        0.1136
     15 N          13.7484   83.2684   25.8781 N.pl3   1  UNL1       -0.2897
     16 C          12.9220   83.2590   24.6583 C.3     1  UNL1        0.1136
     17 C          12.0488   81.9973   24.5971 C.3     1  UNL1        0.1123
     18 C          14.0400   84.5242   26.5347 C.ar    1  UNL1        0.1318
     19 C          14.2315   84.5983   27.9260 C.ar    1  UNL1        0.0343
     20 C          14.5134   85.8290   28.5211 C.ar    1  UNL1        0.0083
     21 C          14.5859   86.9921   27.7413 C.ar    1  UNL1        0.0906
     22 C          14.4127   86.8751   26.3543 C.ar    1  UNL1        0.1041
     23 N          14.1416   85.6658   25.7968 N.ar    1  UNL1       -0.2292
     24 C          14.9390   88.3181   28.3654 C.3     1  UNL1        0.4200
     25 F          14.0460   89.2788   27.9289 F       1  UNL1       -0.1658
     26 F          14.8782   88.2396   29.7460 F       1  UNL1       -0.1658
     27 F          16.2212   88.6990   28.0093 F       1  UNL1       -0.1658
     28 C           7.8736   74.4271   25.2415 C.3     1  UNL1        0.1535
     29 C           6.6468   74.4592   26.1231 C.2     1  UNL1        0.2443
     30 O           5.6057   75.0574   25.7350 O.2     1  UNL1       -0.2730
     31 N           6.6362   73.7105   27.3493 N.am    1  UNL1       -0.2825
     32 H           7.4020   73.0154   27.5012 H       1  UNL1        0.1549
     33 C           5.5575   73.7410   28.2986 C.ar    1  UNL1        0.0535
     34 C           4.7104   72.6306   28.4151 C.ar    1  UNL1        0.0353
     35 C           3.6711   72.6489   29.3483 C.ar    1  UNL1        0.1002
     36 N           3.4935   73.7322   30.1499 N.ar    1  UNL1       -0.2422
     37 C           4.3104   74.8158   30.0734 C.ar    1  UNL1        0.1002
     38 C           5.3611   74.8391   29.1528 C.ar    1  UNL1        0.0353
     39 C           7.5107   74.0208   23.7954 C.3     1  UNL1        0.0573
     40 C           8.5956   74.3310   22.7958 C.ar    1  UNL1        0.0026
     41 C           8.6479   75.4013   21.9008 C.ar    1  UNL1        0.0753
     42 S           7.3650   76.6256   21.6463 S.3     1  UNL1       -0.1250
     43 N           9.7916   75.3745   21.1811 N.ar    1  UNL1       -0.3489
     44 C          10.4628   74.2887   21.6007 C.ar    1  UNL1        0.0567
     45 C          11.6942   73.8289   21.1359 C.ar    1  UNL1        0.0170
     46 C          12.2076   72.6439   21.6931 C.ar    1  UNL1        0.0015
     47 C          11.4802   71.9446   22.6804 C.ar    1  UNL1        0.0001
     48 C          10.2368   72.4279   23.1254 C.ar    1  UNL1        0.0012
     49 C           9.7627   73.6202   22.5747 C.ar    1  UNL1        0.0136
     50 H           6.7268   75.8298   20.6772 H       1  UNL1        0.1085
     51 H          10.0812   76.0465   20.4359 H       1  UNL1        0.1664
@<TRIPOS>BOND
     1     1     2    2
     2     2     3   am
     3     3    28    1
     4    28    39    1
     5    39    40    1
     6    40    41   ar
     7    41    42    1
     8    41    43   ar
     9    43    44   ar
    10    44    45   ar
    11    45    46   ar
    12    46    47   ar
    13    47    48   ar
    14    48    49   ar
    15    28    29    1
    16    29    30    2
    17    29    31   am
    18    31    33    1
    19    33    34   ar
    20    34    35   ar
    21    35    36   ar
    22    36    37   ar
    23    37    38   ar
    24     2     5    1
    25     5     6   ar
    26     6     7   ar
    27     7     8   ar
    28     8    12    1
    29    12    13    1
    30    13    14    1
    31    14    15    1
    32    15    18    1
    33    18    19   ar
    34    19    20   ar
    35    20    21   ar
    36    21    24    1
    37    24    25    1
    38    24    26    1
    39    24    27    1
    40    21    22   ar
    41    22    23   ar
    42    15    16    1
    43    16    17    1
    44     8     9   ar
    45     9    10   ar
    46    10    11    1
    47    49    40   ar
    48    38    33   ar
    49    10     5   ar
    50    49    44   ar
    51    17    12    1
    52    23    18   ar
    53     3     4    1
    54    42    50    1
    55    43    51    1
    56    31    32    1
@<TRIPOS>MOLECULE
*****
 51 56 0 0 0
SMALL
GASTEIGER

@<TRIPOS>ATOM
      1 O           6.5546   73.0032   22.0095 O.2     1  UNL1       -0.2701
      2 C           6.1250   74.0866   22.4928 C.2     1  UNL1        0.2483
      3 N           4.9937   74.7328   21.8867 N.am    1  UNL1       -0.2945
      4 H           4.4935   75.4633   22.4397 H       1  UNL1        0.1501
      5 C           6.7871   74.6559   23.6940 C.ar    1  UNL1        0.0808
      6 C           5.9959   75.2004   24.7211 C.ar    1  UNL1        0.0080
      7 C           6.5853   75.7303   25.8710 C.ar    1  UNL1        0.0148
      8 C           7.9788   75.7174   26.0260 C.ar    1  UNL1        0.0502
      9 C           8.7736   75.1697   25.0088 C.ar    1  UNL1        0.0443
     10 C           8.1893   74.6390   23.8544 C.ar    1  UNL1        0.1457
     11 F           9.0011   74.0696   22.9291 F       1  UNL1       -0.2040
     12 N           8.5859   76.2707   27.2084 N.pl3   1  UNL1       -0.3040
     13 C           8.0200   76.0022   28.5345 C.3     1  UNL1        0.1123
     14 C           7.7933   77.3252   29.2676 C.3     1  UNL1        0.1136
     15 N           8.9893   78.1867   29.2165 N.pl3   1  UNL1       -0.2897
     16 C          10.1617   77.7606   28.4324 C.3     1  UNL1        0.1136
     17 C           9.7334   77.1800   27.0769 C.3     1  UNL1        0.1123
     18 C           9.0865   79.3471   30.0751 C.ar    1  UNL1        0.1318
     19 C           9.8486   80.4706   29.7077 C.ar    1  UNL1        0.0343
     20 C           9.9151   81.5714   30.5633 C.ar    1  UNL1        0.0083
     21 C           9.2431   81.5529   31.7939 C.ar    1  UNL1        0.0906
     22 C           8.4740   80.4248   32.1151 C.ar    1  UNL1        0.1041
     23 N           8.4221   79.3657   31.2651 N.ar    1  UNL1       -0.2292
     24 C           9.2665   82.7550   32.7034 C.3     1  UNL1        0.4200
     25 F          10.0830   83.7255   32.1538 F       1  UNL1       -0.1658
     26 F           7.9927   83.2730   32.8609 F       1  UNL1       -0.1658
     27 F           9.7520   82.4116   33.9533 F       1  UNL1       -0.1658
     28 C           4.4311   74.2850   20.6034 C.3     1  UNL1        0.1535
     29 C           2.9451   74.5484   20.5284 C.2     1  UNL1        0.2443
     30 O           2.3788   75.2320   21.4253 O.2     1  UNL1       -0.2730
     31 N           2.2064   74.1146   19.3750 N.am    1  UNL1       -0.2825
     32 H           2.7500   73.8008   18.5392 H       1  UNL1        0.1549
     33 C           0.7806   74.2382   19.2424 C.ar    1  UNL1        0.0535
     34 C           0.0093   73.0936   18.9999 C.ar    1  UNL1        0.0353
     35 C          -1.3785   73.2063   18.8872 C.ar    1  UNL1        0.1002
     36 N          -1.9780   74.4180   19.0285 N.ar    1  UNL1       -0.2422
     37 C          -1.2583   75.5427   19.2831 C.ar    1  UNL1        0.1002
     38 C           0.1320   75.4744   19.4019 C.ar    1  UNL1        0.0353
     39 C           5.1712   74.9198   19.4044 C.3     1  UNL1        0.0573
     40 C           5.3604   76.4094   19.5377 C.ar    1  UNL1        0.0026
     41 C           4.5328   77.4201   19.0451 C.ar    1  UNL1        0.0753
     42 S           3.0775   77.1874   18.0265 S.3     1  UNL1       -0.1250
     43 N           5.0033   78.6401   19.3871 N.ar    1  UNL1       -0.3489
     44 C           6.1310   78.4159   20.0823 C.ar    1  UNL1        0.0567
     45 C           6.9861   79.3713   20.6300 C.ar    1  UNL1        0.0170
     46 C           8.1388   78.9185   21.2966 C.ar    1  UNL1        0.0015
     47 C           8.4160   77.5372   21.3870 C.ar    1  UNL1        0.0001
     48 C           7.5393   76.5958   20.8189 C.ar    1  UNL1        0.0012
     49 C           6.3891   77.0711   20.1859 C.ar    1  UNL1        0.0136
     50 H           3.8386   77.2164   16.8434 H       1  UNL1        0.1085
     51 H           4.5877   79.5659   19.1402 H       1  UNL1        0.1664
@<TRIPOS>BOND
     1     1     2    2
     2     2     3   am
     3     3    28    1
     4    28    39    1
     5    39    40    1
     6    40    41   ar
     7    41    42    1
     8    41    43   ar
     9    43    44   ar
    10    44    45   ar
    11    45    46   ar
    12    46    47   ar
    13    47    48   ar
    14    48    49   ar
    15    28    29    1
    16    29    30    2
    17    29    31   am
    18    31    33    1
    19    33    34   ar
    20    34    35   ar
    21    35    36   ar
    22    36    37   ar
    23    37    38   ar
    24     2     5    1
    25     5     6   ar
    26     6     7   ar
    27     7     8   ar
    28     8    12    1
    29    12    13    1
    30    13    14    1
    31    14    15    1
    32    15    18    1
    33    18    19   ar
    34    19    20   ar
    35    20    21   ar
    36    21    24    1
    37    24    25    1
    38    24    26    1
    39    24    27    1
    40    21    22   ar
    41    22    23   ar
    42    15    16    1
    43    16    17    1
    44     8     9   ar
    45     9    10   ar
    46    10    11    1
    47    49    40   ar
    48    38    33   ar
    49    10     5   ar
    50    49    44   ar
    51    17    12    1
    52    23    18   ar
    53     3     4    1
    54    42    50    1
    55    43    51    1
    56    31    32    1
@<TRIPOS>MOLECULE
*****
 51 56 0 0 0
SMALL
GASTEIGER

@<TRIPOS>ATOM
      1 O           6.9411   74.2989   20.9361 O.2     1  UNL1       -0.2701
      2 C           6.1519   74.8002   21.7834 C.2     1  UNL1        0.2483
      3 N           4.7641   74.9634   21.4483 N.am    1  UNL1       -0.2945
      4 H           4.0883   75.1228   22.2277 H       1  UNL1        0.1501
      5 C           6.6746   75.1882   23.1181 C.ar    1  UNL1        0.0808
      6 C           7.1037   76.5105   23.3298 C.ar    1  UNL1        0.0080
      7 C           7.5866   76.9129   24.5770 C.ar    1  UNL1        0.0148
      8 C           7.6406   76.0057   25.6447 C.ar    1  UNL1        0.0502
      9 C           7.2079   74.6872   25.4427 C.ar    1  UNL1        0.0443
     10 C           6.7248   74.2780   24.1958 C.ar    1  UNL1        0.1457
     11 F           6.2651   73.0080   24.0721 F       1  UNL1       -0.2040
     12 N           8.1456   76.4194   26.9279 N.pl3   1  UNL1       -0.3040
     13 C           7.3258   76.2754   28.1354 C.3     1  UNL1        0.1123
     14 C           7.2598   77.6166   28.8677 C.3     1  UNL1        0.1136
     15 N           8.5997   78.2083   29.0398 N.pl3   1  UNL1       -0.2897
     16 C           9.7716   77.5460   28.4405 C.3     1  UNL1        0.1136
     17 C           9.4619   77.0681   27.0145 C.3     1  UNL1        0.1123
     18 C           8.7919   79.3226   29.9424 C.ar    1  UNL1        0.1318
     19 C           9.7692   80.3043   29.6994 C.ar    1  UNL1        0.0343
     20 C           9.9215   81.3652   30.5936 C.ar    1  UNL1        0.0083
     21 C           9.1195   81.4442   31.7412 C.ar    1  UNL1        0.0906
     22 C           8.1400   80.4597   31.9374 C.ar    1  UNL1        0.1041
     23 N           8.0083   79.4374   31.0518 N.ar    1  UNL1       -0.2292
     24 C           9.2406   82.6113   32.6876 C.3     1  UNL1        0.4200
     25 F          10.0396   83.5821   32.1131 F       1  UNL1       -0.1658
     26 F           7.9955   83.1529   32.9569 F       1  UNL1       -0.1658
     27 F           9.8072   82.2114   33.8855 F       1  UNL1       -0.1658
     28 C           4.2578   74.7493   20.0838 C.3     1  UNL1        0.1535
     29 C           2.8523   74.1946   20.0957 C.2     1  UNL1        0.2443
     30 O           2.5079   73.3659   20.9828 O.2     1  UNL1       -0.2730
     31 N           1.8831   74.7017   19.1642 N.am    1  UNL1       -0.2825
     32 H           2.1247   75.5707   18.6359 H       1  UNL1        0.1549
     33 C           0.5482   74.1849   19.0343 C.ar    1  UNL1        0.0535
     34 C          -0.5373   75.0712   19.0377 C.ar    1  UNL1        0.0353
     35 C          -1.8352   74.5750   18.8947 C.ar    1  UNL1        0.1002
     36 N          -2.0417   73.2408   18.7367 N.ar    1  UNL1       -0.2422
     37 C          -1.0077   72.3589   18.7100 C.ar    1  UNL1        0.1002
     38 C           0.3059   72.8130   18.8511 C.ar    1  UNL1        0.0353
     39 C           4.3414   76.0388   19.2363 C.3     1  UNL1        0.0573
     40 C           4.2209   77.3007   20.0522 C.ar    1  UNL1        0.0026
     41 C           5.1757   78.3070   20.2098 C.ar    1  UNL1        0.0753
     42 S           6.8430   78.2894   19.5547 S.3     1  UNL1       -0.1250
     43 N           4.7026   79.3049   20.9890 N.ar    1  UNL1       -0.3489
     44 C           3.4590   78.9368   21.3402 C.ar    1  UNL1        0.0567
     45 C           2.5743   79.6360   22.1602 C.ar    1  UNL1        0.0170
     46 C           1.3235   79.0517   22.4287 C.ar    1  UNL1        0.0015
     47 C           0.9940   77.7891   21.8901 C.ar    1  UNL1        0.0001
     48 C           1.9088   77.1029   21.0716 C.ar    1  UNL1        0.0012
     49 C           3.1327   77.7174   20.7997 C.ar    1  UNL1        0.0136
     50 H           7.3374   77.6245   20.6919 H       1  UNL1        0.1085
     51 H           5.2095   80.1713   21.2774 H       1  UNL1        0.1664
@<TRIPOS>BOND
     1     1     2    2
     2     2     3   am
     3     3    28    1
     4    28    39    1
     5    39    40    1
     6    40    41   ar
     7    41    42    1
     8    41    43   ar
     9    43    44   ar
    10    44    45   ar
    11    45    46   ar
    12    46    47   ar
    13    47    48   ar
    14    48    49   ar
    15    28    29    1
    16    29    30    2
    17    29    31   am
    18    31    33    1
    19    33    34   ar
    20    34    35   ar
    21    35    36   ar
    22    36    37   ar
    23    37    38   ar
    24     2     5    1
    25     5     6   ar
    26     6     7   ar
    27     7     8   ar
    28     8    12    1
    29    12    13    1
    30    13    14    1
    31    14    15    1
    32    15    18    1
    33    18    19   ar
    34    19    20   ar
    35    20    21   ar
    36    21    24    1
    37    24    25    1
    38    24    26    1
    39    24    27    1
    40    21    22   ar
    41    22    23   ar
    42    15    16    1
    43    16    17    1
    44     8     9   ar
    45     9    10   ar
    46    10    11    1
    47    49    40   ar
    48    38    33   ar
    49    10     5   ar
    50    49    44   ar
    51    17    12    1
    52    23    18   ar
    53     3     4    1
    54    42    50    1
    55    43    51    1
    56    31    32    1
@<TRIPOS>MOLECULE
*****
 51 56 0 0 0
SMALL
GASTEIGER

@<TRIPOS>ATOM
      1 O           8.5253   74.8310   25.2517 O.2     1  UNL1       -0.2701
      2 C           8.3841   75.8814   24.5671 C.2     1  UNL1        0.2483
      3 N           7.2972   75.9761   23.6320 N.am    1  UNL1       -0.2945
      4 H           7.0374   76.9233   23.2785 H       1  UNL1        0.1501
      5 C           9.3341   77.0058   24.7629 C.ar    1  UNL1        0.0808
      6 C           8.8320   78.2857   25.0580 C.ar    1  UNL1        0.0080
      7 C           9.6980   79.3621   25.2629 C.ar    1  UNL1        0.0148
      8 C          11.0865   79.1813   25.1894 C.ar    1  UNL1        0.0502
      9 C          11.5945   77.9062   24.9023 C.ar    1  UNL1        0.0443
     10 C          10.7323   76.8249   24.6946 C.ar    1  UNL1        0.1457
     11 F          11.2785   75.6024   24.4782 F       1  UNL1       -0.2040
     12 N          11.9781   80.2932   25.3934 N.pl3   1  UNL1       -0.3040
     13 C          11.4877   81.5476   25.9737 C.3     1  UNL1        0.1123
     14 C          11.8791   82.7146   25.0659 C.3     1  UNL1        0.1136
     15 N          13.3071   82.6638   24.7006 N.pl3   1  UNL1       -0.2897
     16 C          14.1295   81.5195   25.1312 C.3     1  UNL1        0.1136
     17 C          13.3728   80.1972   24.9390 C.3     1  UNL1        0.1123
     18 C          13.9421   83.8106   24.0884 C.ar    1  UNL1        0.1318
     19 C          13.9214   85.0760   24.7020 C.ar    1  UNL1        0.0343
     20 C          14.5478   86.1570   24.0797 C.ar    1  UNL1        0.0083
     21 C          15.1785   85.9908   22.8383 C.ar    1  UNL1        0.0906
     22 C          15.1989   84.7092   22.2688 C.ar    1  UNL1        0.1041
     23 N          14.5843   83.6710   22.8943 N.ar    1  UNL1       -0.2292
     24 C          15.9012   87.1387   22.1808 C.3     1  UNL1        0.4200
     25 F          17.0557   87.4152   22.8889 F       1  UNL1       -0.1658
     26 F          16.2372   86.8211   20.8761 F       1  UNL1       -0.1658
     27 F          15.1032   88.2696   22.1594 F       1  UNL1       -0.1658
     28 C           6.4508   74.8209   23.2957 C.3     1  UNL1        0.1535
     29 C           5.0450   75.2485   22.9437 C.2     1  UNL1        0.2443
     30 O           4.2949   74.4741   22.2879 O.2     1  UNL1       -0.2730
     31 N           4.5327   76.4888   23.4567 N.am    1  UNL1       -0.2825
     32 H           5.0774   76.9649   24.2113 H       1  UNL1        0.1549
     33 C           3.2451   77.0279   23.1144 C.ar    1  UNL1        0.0535
     34 C           2.4821   77.6687   24.0999 C.ar    1  UNL1        0.0353
     35 C           1.2375   78.2092   23.7679 C.ar    1  UNL1        0.1002
     36 N           0.7773   78.1278   22.4914 N.ar    1  UNL1       -0.2422
     37 C           1.5030   77.5296   21.5101 C.ar    1  UNL1        0.1002
     38 C           2.7521   76.9748   21.7997 C.ar    1  UNL1        0.0353
     39 C           7.0733   73.9678   22.1675 C.3     1  UNL1        0.0573
     40 C           8.4954   74.3489   21.8435 C.ar    1  UNL1        0.0026
     41 C           8.9546   75.5599   21.3222 C.ar    1  UNL1        0.0753
     42 S           7.9343   76.9383   20.8040 S.3     1  UNL1       -0.1250
     43 N          10.3000   75.5521   21.1938 N.ar    1  UNL1       -0.3489
     44 C          10.7010   74.3414   21.6165 C.ar    1  UNL1        0.0567
     45 C          12.0063   73.8528   21.6536 C.ar    1  UNL1        0.0170
     46 C          12.2038   72.5354   22.1049 C.ar    1  UNL1        0.0015
     47 C          11.1034   71.7395   22.4905 C.ar    1  UNL1        0.0001
     48 C           9.7966   72.2560   22.4360 C.ar    1  UNL1        0.0012
     49 C           9.6313   73.5752   22.0093 C.ar    1  UNL1        0.0136
     50 H           7.7989   76.4157   19.5047 H       1  UNL1        0.1085
     51 H          10.9002   76.3209   20.8201 H       1  UNL1        0.1664
@<TRIPOS>BOND
     1     1     2    2
     2     2     3   am
     3     3    28    1
     4    28    39    1
     5    39    40    1
     6    40    41   ar
     7    41    42    1
     8    41    43   ar
     9    43    44   ar
    10    44    45   ar
    11    45    46   ar
    12    46    47   ar
    13    47    48   ar
    14    48    49   ar
    15    28    29    1
    16    29    30    2
    17    29    31   am
    18    31    33    1
    19    33    34   ar
    20    34    35   ar
    21    35    36   ar
    22    36    37   ar
    23    37    38   ar
    24     2     5    1
    25     5     6   ar
    26     6     7   ar
    27     7     8   ar
    28     8    12    1
    29    12    13    1
    30    13    14    1
    31    14    15    1
    32    15    18    1
    33    18    19   ar
    34    19    20   ar
    35    20    21   ar
    36    21    24    1
    37    24    25    1
    38    24    26    1
    39    24    27    1
    40    21    22   ar
    41    22    23   ar
    42    15    16    1
    43    16    17    1
    44     8     9   ar
    45     9    10   ar
    46    10    11    1
    47    49    40   ar
    48    38    33   ar
    49    10     5   ar
    50    49    44   ar
    51    17    12    1
    52    23    18   ar
    53     3     4    1
    54    42    50    1
    55    43    51    1
    56    31    32    1
@<TRIPOS>MOLECULE
*****
 51 56 0 0 0
SMALL
GASTEIGER

@<TRIPOS>ATOM
      1 O           9.8253   75.5578   25.4771 O.2     1  UNL1       -0.2701
      2 C           9.4697   76.6030   24.8665 C.2     1  UNL1        0.2483
      3 N           8.1984   76.6341   24.1973 N.am    1  UNL1       -0.2945
      4 H           7.8074   77.5652   23.9333 H       1  UNL1        0.1501
      5 C          10.3666   77.7865   24.8749 C.ar    1  UNL1        0.0808
      6 C           9.8796   79.0140   25.3582 C.ar    1  UNL1        0.0080
      7 C          10.7008   80.1431   25.3942 C.ar    1  UNL1        0.0148
      8 C          12.0316   80.0682   24.9590 C.ar    1  UNL1        0.0502
      9 C          12.5261   78.8457   24.4822 C.ar    1  UNL1        0.0443
     10 C          11.7081   77.7121   24.4423 C.ar    1  UNL1        0.1457
     11 F          12.2543   76.5422   24.0268 F       1  UNL1       -0.2040
     12 N          12.8752   81.2345   24.9895 N.pl3   1  UNL1       -0.3040
     13 C          14.1639   81.2066   25.6890 C.3     1  UNL1        0.1123
     14 C          14.2372   82.3809   26.6662 C.3     1  UNL1        0.1136
     15 N          13.8588   83.6510   26.0189 N.pl3   1  UNL1       -0.2897
     16 C          13.3826   83.6450   24.6245 C.3     1  UNL1        0.1136
     17 C          12.4018   82.4880   24.3848 C.3     1  UNL1        0.1123
     18 C          14.1277   84.9108   26.6774 C.ar    1  UNL1        0.1318
     19 C          14.3030   84.9884   28.0707 C.ar    1  UNL1        0.0343
     20 C          14.5631   86.2230   28.6676 C.ar    1  UNL1        0.0083
     21 C          14.6298   87.3863   27.8875 C.ar    1  UNL1        0.0906
     22 C          14.4732   87.2660   26.4989 C.ar    1  UNL1        0.1041
     23 N          14.2232   86.0529   25.9396 N.ar    1  UNL1       -0.2292
     24 C          14.9596   88.7171   28.5142 C.3     1  UNL1        0.4200
     25 F          15.8943   89.3692   27.7321 F       1  UNL1       -0.1658
     26 F          13.8256   89.5046   28.6132 F       1  UNL1       -0.1658
     27 F          15.4780   88.5425   29.7857 F       1  UNL1       -0.1658
     28 C           7.3730   75.4281   24.0284 C.3     1  UNL1        0.1535
     29 C           5.9208   75.7030   24.3421 C.2     1  UNL1        0.2443
     30 O           5.3127   74.9936   25.1904 O.2     1  UNL1       -0.2730
     31 N           5.2732   76.8437   23.7559 N.am    1  UNL1       -0.2825
     32 H           5.8757   77.5551   23.2830 H       1  UNL1        0.1549
     33 C           3.8777   77.1461   23.9195 C.ar    1  UNL1        0.0535
     34 C           3.0591   77.2565   22.7875 C.ar    1  UNL1        0.0353
     35 C           1.6987   77.5335   22.9424 C.ar    1  UNL1        0.1002
     36 N           1.1698   77.6787   24.1861 N.ar    1  UNL1       -0.2422
     37 C           1.9345   77.5582   25.3033 C.ar    1  UNL1        0.1002
     38 C           3.2998   77.2831   25.1929 C.ar    1  UNL1        0.0353
     39 C           7.5334   74.8213   22.6162 C.3     1  UNL1        0.0573
     40 C           8.9449   74.8906   22.0912 C.ar    1  UNL1        0.0026
     41 C           9.5707   75.9742   21.4722 C.ar    1  UNL1        0.0753
     42 S           8.8001   77.5352   21.0494 S.3     1  UNL1       -0.1250
     43 N          10.8536   75.6805   21.1644 N.ar    1  UNL1       -0.3489
     44 C          11.0468   74.4143   21.5702 C.ar    1  UNL1        0.0567
     45 C          12.2130   73.6600   21.4481 C.ar    1  UNL1        0.0170
     46 C          12.1907   72.3329   21.9132 C.ar    1  UNL1        0.0015
     47 C          11.0123   71.7904   22.4699 C.ar    1  UNL1        0.0001
     48 C           9.8480   72.5721   22.5741 C.ar    1  UNL1        0.0012
     49 C           9.9053   73.8943   22.1290 C.ar    1  UNL1        0.0136
     50 H           8.3796   77.0471   19.7985 H       1  UNL1        0.1085
     51 H          11.5438   76.3027   20.6876 H       1  UNL1        0.1664
@<TRIPOS>BOND
     1     1     2    2
     2     2     3   am
     3     3    28    1
     4    28    39    1
     5    39    40    1
     6    40    41   ar
     7    41    42    1
     8    41    43   ar
     9    43    44   ar
    10    44    45   ar
    11    45    46   ar
    12    46    47   ar
    13    47    48   ar
    14    48    49   ar
    15    28    29    1
    16    29    30    2
    17    29    31   am
    18    31    33    1
    19    33    34   ar
    20    34    35   ar
    21    35    36   ar
    22    36    37   ar
    23    37    38   ar
    24     2     5    1
    25     5     6   ar
    26     6     7   ar
    27     7     8   ar
    28     8    12    1
    29    12    13    1
    30    13    14    1
    31    14    15    1
    32    15    18    1
    33    18    19   ar
    34    19    20   ar
    35    20    21   ar
    36    21    24    1
    37    24    25    1
    38    24    26    1
    39    24    27    1
    40    21    22   ar
    41    22    23   ar
    42    15    16    1
    43    16    17    1
    44     8     9   ar
    45     9    10   ar
    46    10    11    1
    47    49    40   ar
    48    38    33   ar
    49    10     5   ar
    50    49    44   ar
    51    17    12    1
    52    23    18   ar
    53     3     4    1
    54    42    50    1
    55    43    51    1
    56    31    32    1
@<TRIPOS>MOLECULE
*****
 51 56 0 0 0
SMALL
GASTEIGER

@<TRIPOS>ATOM
      1 O          10.5337   79.7757   23.0236 O.2     1  UNL1       -0.2701
      2 C           9.7199   78.9153   23.4588 C.2     1  UNL1        0.2483
      3 N           9.7764   78.5223   24.8398 N.am    1  UNL1       -0.2945
      4 H           8.9502   78.0268   25.2415 H       1  UNL1        0.1501
      5 C           8.7057   78.3464   22.5352 C.ar    1  UNL1        0.0808
      6 C           8.3915   76.9783   22.6188 C.ar    1  UNL1        0.0080
      7 C           7.4317   76.4138   21.7757 C.ar    1  UNL1        0.0148
      8 C           6.7554   77.2065   20.8375 C.ar    1  UNL1        0.0502
      9 C           7.0587   78.5730   20.7533 C.ar    1  UNL1        0.0443
     10 C           8.0198   79.1436   21.5938 C.ar    1  UNL1        0.1457
     11 F           8.2318   80.4806   21.5098 F       1  UNL1       -0.2040
     12 N           5.7716   76.6222   19.9637 N.pl3   1  UNL1       -0.3040
     13 C           4.9628   77.4666   19.0783 C.3     1  UNL1        0.1123
     14 C           3.4813   77.1486   19.2866 C.3     1  UNL1        0.1136
     15 N           3.2251   75.6969   19.2385 N.pl3   1  UNL1       -0.2897
     16 C           4.3557   74.7610   19.1079 C.3     1  UNL1        0.1136
     17 C           5.5189   75.1753   20.0209 C.3     1  UNL1        0.1123
     18 C           1.8702   75.2011   19.1314 C.ar    1  UNL1        0.1318
     19 C           1.5504   73.8662   19.4378 C.ar    1  UNL1        0.0343
     20 C           0.2303   73.4273   19.3237 C.ar    1  UNL1        0.0083
     21 C          -0.7720   74.3050   18.8862 C.ar    1  UNL1        0.0906
     22 C          -0.4191   75.6346   18.6127 C.ar    1  UNL1        0.1041
     23 N           0.8724   76.0400   18.7333 N.ar    1  UNL1       -0.2292
     24 C          -2.2090   73.8564   18.8072 C.3     1  UNL1        0.4200
     25 F          -2.9526   74.8235   18.1573 F       1  UNL1       -0.1658
     26 F          -2.3109   72.6647   18.1105 F       1  UNL1       -0.1658
     27 F          -2.7301   73.6628   20.0749 F       1  UNL1       -0.1658
     28 C          10.8729   78.9385   25.7279 C.3     1  UNL1        0.1535
     29 C          10.3481   79.5327   27.0142 C.2     1  UNL1        0.2443
     30 O          10.2303   80.7838   27.1300 O.2     1  UNL1       -0.2730
     31 N           9.8788   78.6625   28.0566 N.am    1  UNL1       -0.2825
     32 H           9.7364   77.6541   27.8209 H       1  UNL1        0.1549
     33 C           9.4416   79.1197   29.3472 C.ar    1  UNL1        0.0535
     34 C           8.5095   78.3608   30.0677 C.ar    1  UNL1        0.0353
     35 C           8.0945   78.7923   31.3298 C.ar    1  UNL1        0.1002
     36 N           8.6052   79.9340   31.8621 N.ar    1  UNL1       -0.2422
     37 C           9.5248   80.6807   31.1956 C.ar    1  UNL1        0.1002
     38 C           9.9658   80.2857   29.9302 C.ar    1  UNL1        0.0353
     39 C          11.8509   77.7754   26.0091 C.3     1  UNL1        0.0573
     40 C          12.8263   77.5283   24.8865 C.ar    1  UNL1        0.0026
     41 C          12.7240   76.5855   23.8619 C.ar    1  UNL1        0.0753
     42 S          11.4387   75.3491   23.6922 S.3     1  UNL1       -0.1250
     43 N          13.7730   76.6764   23.0145 N.ar    1  UNL1       -0.3489
     44 C          14.5498   77.6604   23.4979 C.ar    1  UNL1        0.0567
     45 C          15.7612   78.1105   22.9744 C.ar    1  UNL1        0.0170
     46 C          16.4336   79.1381   23.6599 C.ar    1  UNL1        0.0015
     47 C          15.8942   79.6767   24.8482 C.ar    1  UNL1        0.0001
     48 C          14.6737   79.1985   25.3574 C.ar    1  UNL1        0.0012
     49 C          14.0140   78.1964   24.6431 C.ar    1  UNL1        0.0136
     50 H          12.1485   74.4288   24.4854 H       1  UNL1        0.1085
     51 H          13.9533   76.0863   22.1718 H       1  UNL1        0.1664
@<TRIPOS>BOND
     1     1     2    2
     2     2     3   am
     3     3    28    1
     4    28    39    1
     5    39    40    1
     6    40    41   ar
     7    41    42    1
     8    41    43   ar
     9    43    44   ar
    10    44    45   ar
    11    45    46   ar
    12    46    47   ar
    13    47    48   ar
    14    48    49   ar
    15    28    29    1
    16    29    30    2
    17    29    31   am
    18    31    33    1
    19    33    34   ar
    20    34    35   ar
    21    35    36   ar
    22    36    37   ar
    23    37    38   ar
    24     2     5    1
    25     5     6   ar
    26     6     7   ar
    27     7     8   ar
    28     8    12    1
    29    12    13    1
    30    13    14    1
    31    14    15    1
    32    15    18    1
    33    18    19   ar
    34    19    20   ar
    35    20    21   ar
    36    21    24    1
    37    24    25    1
    38    24    26    1
    39    24    27    1
    40    21    22   ar
    41    22    23   ar
    42    15    16    1
    43    16    17    1
    44     8     9   ar
    45     9    10   ar
    46    10    11    1
    47    49    40   ar
    48    38    33   ar
    49    10     5   ar
    50    49    44   ar
    51    17    12    1
    52    23    18   ar
    53     3     4    1
    54    42    50    1
    55    43    51    1
    56    31    32    1
@<TRIPOS>MOLECULE
*****
 51 56 0 0 0
SMALL
GASTEIGER

@<TRIPOS>ATOM
      1 O          10.6437   78.7568   25.3164 O.2     1  UNL1       -0.2701
      2 C           9.4804   78.3241   25.5431 C.2     1  UNL1        0.2483
      3 N           9.0035   78.2512   26.8966 N.am    1  UNL1       -0.2945
      4 H           7.9756   78.1508   27.0482 H       1  UNL1        0.1501
      5 C           8.6224   77.9222   24.3996 C.ar    1  UNL1        0.0808
      6 C           7.5331   77.0624   24.6272 C.ar    1  UNL1        0.0080
      7 C           6.6971   76.6766   23.5771 C.ar    1  UNL1        0.0148
      8 C           6.9236   77.1508   22.2772 C.ar    1  UNL1        0.0502
      9 C           8.0039   78.0140   22.0441 C.ar    1  UNL1        0.0443
     10 C           8.8454   78.4026   23.0913 C.ar    1  UNL1        0.1457
     11 F           9.8394   79.2848   22.8207 F       1  UNL1       -0.2040
     12 N           6.0657   76.7465   21.1940 N.pl3   1  UNL1       -0.3040
     13 C           5.2093   77.7239   20.5143 C.3     1  UNL1        0.1123
     14 C           3.7681   77.2120   20.4977 C.3     1  UNL1        0.1136
     15 N           3.6922   75.8174   20.0239 N.pl3   1  UNL1       -0.2897
     16 C           4.9329   75.0773   19.7340 C.3     1  UNL1        0.1136
     17 C           5.9871   75.3265   20.8224 C.3     1  UNL1        0.1123
     18 C           2.4148   75.2395   19.6668 C.ar    1  UNL1        0.1318
     19 C           2.0648   73.9342   20.0561 C.ar    1  UNL1        0.0343
     20 C           0.8214   73.4139   19.6934 C.ar    1  UNL1        0.0083
     21 C          -0.0694   74.1786   18.9266 C.ar    1  UNL1        0.0906
     22 C           0.3050   75.4844   18.5774 C.ar    1  UNL1        0.1041
     23 N           1.5199   75.9707   18.9440 N.ar    1  UNL1       -0.2292
     24 C          -1.4344   73.6464   18.5716 C.3     1  UNL1        0.4200
     25 F          -1.3789   72.2675   18.4928 F       1  UNL1       -0.1658
     26 F          -2.3639   74.0065   19.5319 F       1  UNL1       -0.1658
     27 F          -1.8531   74.1515   17.3527 F       1  UNL1       -0.1658
     28 C           9.8866   78.4781   28.0511 C.3     1  UNL1        0.1535
     29 C           9.3360   79.5457   28.9677 C.2     1  UNL1        0.2443
     30 O           8.1254   79.8909   28.8796 O.2     1  UNL1       -0.2730
     31 N          10.1663   80.0800   30.0114 N.am    1  UNL1       -0.2825
     32 H          11.0590   79.5805   30.2263 H       1  UNL1        0.1549
     33 C           9.7711   81.1548   30.8800 C.ar    1  UNL1        0.0535
     34 C           9.1182   80.8623   32.0851 C.ar    1  UNL1        0.0353
     35 C           8.7474   81.9026   32.9405 C.ar    1  UNL1        0.1002
     36 N           9.0335   83.1902   32.6122 N.ar    1  UNL1       -0.2422
     37 C           9.6826   83.5035   31.4598 C.ar    1  UNL1        0.1002
     38 C          10.0699   82.4935   30.5756 C.ar    1  UNL1        0.0353
     39 C          10.1628   77.1682   28.8231 C.3     1  UNL1        0.0573
     40 C           9.0509   76.1572   28.7046 C.ar    1  UNL1        0.0026
     41 C           8.9369   75.1223   27.7745 C.ar    1  UNL1        0.0753
     42 S          10.0509   74.8068   26.4074 S.3     1  UNL1       -0.1250
     43 N           7.8195   74.3946   27.9951 N.ar    1  UNL1       -0.3489
     44 C           7.2135   74.9652   29.0499 C.ar    1  UNL1        0.0567
     45 C           6.0104   74.5792   29.6396 C.ar    1  UNL1        0.0170
     46 C           5.5341   75.3396   30.7226 C.ar    1  UNL1        0.0015
     47 C           6.2548   76.4650   31.1776 C.ar    1  UNL1        0.0001
     48 C           7.4621   76.8357   30.5592 C.ar    1  UNL1        0.0012
     49 C           7.9256   76.0482   29.5034 C.ar    1  UNL1        0.0136
     50 H           9.3327   75.6673   25.5570 H       1  UNL1        0.1085
     51 H           7.4851   73.5733   27.4434 H       1  UNL1        0.1664
@<TRIPOS>BOND
     1     1     2    2
     2     2     3   am
     3     3    28    1
     4    28    39    1
     5    39    40    1
     6    40    41   ar
     7    41    42    1
     8    41    43   ar
     9    43    44   ar
    10    44    45   ar
    11    45    46   ar
    12    46    47   ar
    13    47    48   ar
    14    48    49   ar
    15    28    29    1
    16    29    30    2
    17    29    31   am
    18    31    33    1
    19    33    34   ar
    20    34    35   ar
    21    35    36   ar
    22    36    37   ar
    23    37    38   ar
    24     2     5    1
    25     5     6   ar
    26     6     7   ar
    27     7     8   ar
    28     8    12    1
    29    12    13    1
    30    13    14    1
    31    14    15    1
    32    15    18    1
    33    18    19   ar
    34    19    20   ar
    35    20    21   ar
    36    21    24    1
    37    24    25    1
    38    24    26    1
    39    24    27    1
    40    21    22   ar
    41    22    23   ar
    42    15    16    1
    43    16    17    1
    44     8     9   ar
    45     9    10   ar
    46    10    11    1
    47    49    40   ar
    48    38    33   ar
    49    10     5   ar
    50    49    44   ar
    51    17    12    1
    52    23    18   ar
    53     3     4    1
    54    42    50    1
    55    43    51    1
    56    31    32    1
