@<TRIPOS>MOLECULE
*****
 27 29 0 0 0
SMALL
GASTEIGER

@<TRIPOS>ATOM
      1 C          46.2225   14.6184  -24.5659 C.ar    1  UNL1        0.1385
      2 C          47.2634   14.7863  -23.6454 C.ar    1  UNL1        0.0366
      3 C          47.5863   13.7698  -22.7423 C.ar    1  UNL1       -0.0011
      4 C          46.8739   12.5613  -22.7519 C.ar    1  UNL1       -0.0206
      5 C          45.8291   12.3881  -23.6727 C.ar    1  UNL1       -0.0011
      6 C          45.5061   13.4052  -24.5756 C.ar    1  UNL1        0.0366
      7 O          45.9421   15.6750  -25.4482 O.3     1  UNL1       -0.4750
      8 C          46.5562   15.8762  -26.7211 C.3     1  UNL1        0.2117
      9 C          45.5543   15.6179  -27.8495 C.3     1  UNL1        0.0931
     10 C          46.2787   11.8024  -29.6729 C.ar    1  UNL1        0.0032
     11 C          46.4458   12.0125  -28.2947 C.ar    1  UNL1        0.0946
     12 N          46.2133   13.2358  -27.7513 N.ar    1  UNL1       -0.2483
     13 C          45.8309   14.2986  -28.5081 C.ar    1  UNL1        0.0632
     14 C          45.6536   14.1387  -29.8878 C.ar    1  UNL1        0.0212
     15 C          45.8858   12.8928  -30.4771 C.ar    1  UNL1        0.0333
     16 BR         45.6534   12.7379  -32.3756 Br      1  UNL1       -0.0492
     17 C          47.5313    9.6630  -29.3601 C.3     1  UNL1        0.0051
     18 C          46.5729   10.4419  -30.2556 C.3     1  UNL1        0.0284
     19 C          47.2069   11.4774  -21.7583 C.3     1  UNL1        0.0468
     20 C          48.7251   11.3371  -21.5643 C.3     1  UNL1        0.1369
     21 S          49.1593   11.3272  -19.7712 S.3     1  UNL1       -0.0482
     22 C          49.7933    9.6658  -19.9239 C.2     1  UNL1        0.2792
     23 O          50.2178    9.0110  -18.9368 O.2     1  UNL1       -0.2625
     24 N          49.7801    9.1256  -21.2282 N.am    1  UNL1       -0.2460
     25 C          49.2151   10.0435  -22.1440 C.2     1  UNL1        0.2392
     26 O          49.1440    9.7842  -23.3748 O.2     1  UNL1       -0.2737
     27 H          50.1397    8.1785  -21.4821 H       1  UNL1        0.1583
@<TRIPOS>BOND
     1    17    18    1
     2    18    10    1
     3    10    11   ar
     4    11    12   ar
     5    12    13   ar
     6    13     9    1
     7     9     8    1
     8     8     7    1
     9     7     1    1
    10     1     2   ar
    11     2     3   ar
    12     3     4   ar
    13     4    19    1
    14    19    20    1
    15    20    21    1
    16    21    22    1
    17    22    23    2
    18    22    24   am
    19    24    25   am
    20    25    26    2
    21     4     5   ar
    22     5     6   ar
    23    13    14   ar
    24    14    15   ar
    25    15    16    1
    26    15    10   ar
    27     6     1   ar
    28    25    20    1
    29    24    27    1
@<TRIPOS>MOLECULE
*****
 27 29 0 0 0
SMALL
GASTEIGER

@<TRIPOS>ATOM
      1 C          47.7151   11.1831  -23.0175 C.ar    1  UNL1        0.1385
      2 C          49.0962   10.9609  -22.9704 C.ar    1  UNL1        0.0366
      3 C          49.7551   10.8303  -21.7450 C.ar    1  UNL1       -0.0011
      4 C          49.0371   10.9127  -20.5425 C.ar    1  UNL1       -0.0206
      5 C          47.6522   11.1357  -20.5843 C.ar    1  UNL1       -0.0011
      6 C          46.9935   11.2667  -21.8102 C.ar    1  UNL1        0.0366
      7 O          47.1072   11.3079  -24.2778 O.3     1  UNL1       -0.4750
      8 C          47.4575   12.2675  -25.2750 C.3     1  UNL1        0.2117
      9 C          46.2008   12.8521  -25.9251 C.3     1  UNL1        0.0931
     10 C          46.2710   12.1935  -30.1641 C.ar    1  UNL1        0.0032
     11 C          45.8704   13.4189  -29.6077 C.ar    1  UNL1        0.0946
     12 N          45.8543   13.5910  -28.2601 N.ar    1  UNL1       -0.2483
     13 C          46.2038   12.5949  -27.4032 C.ar    1  UNL1        0.0632
     14 C          46.6080   11.3542  -27.9108 C.ar    1  UNL1        0.0212
     15 C          46.6342   11.1454  -29.2925 C.ar    1  UNL1        0.0333
     16 BR         47.1706    9.4173  -29.9315 Br      1  UNL1       -0.0492
     17 C          45.4694   13.1462  -32.3305 C.3     1  UNL1        0.0051
     18 C          46.2506   12.0188  -31.6628 C.3     1  UNL1        0.0284
     19 C          49.7552   10.7985  -19.2218 C.3     1  UNL1        0.0468
     20 C          50.1298   12.1801  -18.6621 C.3     1  UNL1        0.1369
     21 S          49.7573   12.2801  -16.8579 S.3     1  UNL1       -0.0482
     22 C          51.4911   12.5100  -16.5027 C.2     1  UNL1        0.2792
     23 O          51.9363   12.5851  -15.3281 O.2     1  UNL1       -0.2625
     24 N          52.3384   12.5938  -17.6289 N.am    1  UNL1       -0.2460
     25 C          51.5987   12.4359  -18.8241 C.2     1  UNL1        0.2392
     26 O          52.1499   12.5195  -19.9538 O.2     1  UNL1       -0.2737
     27 H          53.3698   12.7522  -17.5854 H       1  UNL1        0.1583
@<TRIPOS>BOND
     1    17    18    1
     2    18    10    1
     3    10    11   ar
     4    11    12   ar
     5    12    13   ar
     6    13     9    1
     7     9     8    1
     8     8     7    1
     9     7     1    1
    10     1     2   ar
    11     2     3   ar
    12     3     4   ar
    13     4    19    1
    14    19    20    1
    15    20    21    1
    16    21    22    1
    17    22    23    2
    18    22    24   am
    19    24    25   am
    20    25    26    2
    21     4     5   ar
    22     5     6   ar
    23    13    14   ar
    24    14    15   ar
    25    15    16    1
    26    15    10   ar
    27     6     1   ar
    28    25    20    1
    29    24    27    1
@<TRIPOS>MOLECULE
*****
 27 29 0 0 0
SMALL
GASTEIGER

@<TRIPOS>ATOM
      1 C          50.5287    9.4273  -24.7761 C.ar    1  UNL1        0.1385
      2 C          49.9995   10.6983  -24.5240 C.ar    1  UNL1        0.0366
      3 C          49.3125   10.9607  -23.3356 C.ar    1  UNL1       -0.0011
      4 C          49.1507    9.9525  -22.3736 C.ar    1  UNL1       -0.0206
      5 C          49.6791    8.6763  -22.6218 C.ar    1  UNL1       -0.0011
      6 C          50.3659    8.4140  -23.8108 C.ar    1  UNL1        0.0366
      7 O          51.2081    9.2215  -25.9884 O.3     1  UNL1       -0.4750
      8 C          50.7082    9.5513  -27.2843 C.3     1  UNL1        0.2117
      9 C          51.7960    9.3638  -28.3450 C.3     1  UNL1        0.0931
     10 C          50.3121    6.9641  -31.5773 C.ar    1  UNL1        0.0032
     11 C          49.4564    7.5454  -30.6278 C.ar    1  UNL1        0.0946
     12 N          49.9610    8.2949  -29.6132 N.ar    1  UNL1       -0.2483
     13 C          51.2970    8.4984  -29.4644 C.ar    1  UNL1        0.0632
     14 C          52.1902    7.9369  -30.3849 C.ar    1  UNL1        0.0212
     15 C          51.7023    7.1599  -31.4393 C.ar    1  UNL1        0.0333
     16 BR         52.9734    6.3930  -32.6552 Br      1  UNL1       -0.0492
     17 C          48.2035    6.1487  -32.6415 C.3     1  UNL1        0.0051
     18 C          49.7281    6.1112  -32.6766 C.3     1  UNL1        0.0284
     19 C          48.3856   10.2314  -21.1049 C.3     1  UNL1        0.0468
     20 C          49.1225   11.2428  -20.2126 C.3     1  UNL1        0.1369
     21 S          48.1469   12.7992  -20.0409 S.3     1  UNL1       -0.0482
     22 C          47.9891   12.5183  -18.2855 C.2     1  UNL1        0.2792
     23 O          47.3112   13.2708  -17.5388 O.2     1  UNL1       -0.2625
     24 N          48.6693   11.3867  -17.7855 N.am    1  UNL1       -0.2460
     25 C          49.3152   10.6885  -18.8323 C.2     1  UNL1        0.2392
     26 O          50.0192    9.6686  -18.6055 O.2     1  UNL1       -0.2737
     27 H          48.6933   11.1047  -16.7802 H       1  UNL1        0.1583
@<TRIPOS>BOND
     1    17    18    1
     2    18    10    1
     3    10    11   ar
     4    11    12   ar
     5    12    13   ar
     6    13     9    1
     7     9     8    1
     8     8     7    1
     9     7     1    1
    10     1     2   ar
    11     2     3   ar
    12     3     4   ar
    13     4    19    1
    14    19    20    1
    15    20    21    1
    16    21    22    1
    17    22    23    2
    18    22    24   am
    19    24    25   am
    20    25    26    2
    21     4     5   ar
    22     5     6   ar
    23    13    14   ar
    24    14    15   ar
    25    15    16    1
    26    15    10   ar
    27     6     1   ar
    28    25    20    1
    29    24    27    1
@<TRIPOS>MOLECULE
*****
 27 29 0 0 0
SMALL
GASTEIGER

@<TRIPOS>ATOM
      1 C          50.9522    9.4283  -24.6504 C.ar    1  UNL1        0.1385
      2 C          50.6377   10.6641  -24.0733 C.ar    1  UNL1        0.0366
      3 C          49.9081   10.7292  -22.8832 C.ar    1  UNL1       -0.0011
      4 C          49.4867    9.5528  -22.2456 C.ar    1  UNL1       -0.0206
      5 C          49.7992    8.3112  -22.8203 C.ar    1  UNL1       -0.0011
      6 C          50.5288    8.2464  -24.0109 C.ar    1  UNL1        0.0366
      7 O          51.6866    9.4246  -25.8480 O.3     1  UNL1       -0.4750
      8 C          51.2633   10.0064  -27.0809 C.3     1  UNL1        0.2117
      9 C          50.1281    9.1877  -27.7012 C.3     1  UNL1        0.0931
     10 C          51.4776    7.3091  -31.3147 C.ar    1  UNL1        0.0032
     11 C          52.3548    7.9964  -30.4606 C.ar    1  UNL1        0.0946
     12 N          51.8923    8.5852  -29.3269 N.ar    1  UNL1       -0.2483
     13 C          50.5774    8.5501  -28.9827 C.ar    1  UNL1        0.0632
     14 C          49.6638    7.8787  -29.8044 C.ar    1  UNL1        0.0212
     15 C          50.1083    7.2637  -30.9781 C.ar    1  UNL1        0.0333
     16 BR         48.8084    6.3810  -32.0796 Br      1  UNL1       -0.0492
     17 C          53.4842    6.3216  -32.4291 C.3     1  UNL1        0.0051
     18 C          52.0119    6.6903  -32.5830 C.3     1  UNL1        0.0284
     19 C          48.6764    9.6272  -20.9764 C.3     1  UNL1        0.0468
     20 C          48.7454   11.0265  -20.3444 C.3     1  UNL1        0.1369
     21 S          47.1869   11.9639  -20.6540 S.3     1  UNL1       -0.0482
     22 C          46.8612   12.0211  -18.9001 C.2     1  UNL1        0.2792
     23 O          45.8092   12.5210  -18.4239 O.2     1  UNL1       -0.2625
     24 N          47.8599   11.4585  -18.0759 N.am    1  UNL1       -0.2460
     25 C          48.9126   10.9275  -18.8572 C.2     1  UNL1        0.2392
     26 O          49.9323   10.4146  -18.3241 O.2     1  UNL1       -0.2737
     27 H          47.8266   11.4387  -17.0322 H       1  UNL1        0.1583
@<TRIPOS>BOND
     1    17    18    1
     2    18    10    1
     3    10    11   ar
     4    11    12   ar
     5    12    13   ar
     6    13     9    1
     7     9     8    1
     8     8     7    1
     9     7     1    1
    10     1     2   ar
    11     2     3   ar
    12     3     4   ar
    13     4    19    1
    14    19    20    1
    15    20    21    1
    16    21    22    1
    17    22    23    2
    18    22    24   am
    19    24    25   am
    20    25    26    2
    21     4     5   ar
    22     5     6   ar
    23    13    14   ar
    24    14    15   ar
    25    15    16    1
    26    15    10   ar
    27     6     1   ar
    28    25    20    1
    29    24    27    1
@<TRIPOS>MOLECULE
*****
 27 29 0 0 0
SMALL
GASTEIGER

@<TRIPOS>ATOM
      1 C          47.7527   12.1665  -22.4914 C.ar    1  UNL1        0.1385
      2 C          48.4643   11.8525  -23.6551 C.ar    1  UNL1        0.0366
      3 C          47.8267   11.8417  -24.8986 C.ar    1  UNL1       -0.0011
      4 C          46.4625   12.1539  -24.9978 C.ar    1  UNL1       -0.0206
      5 C          45.7445   12.4691  -23.8338 C.ar    1  UNL1       -0.0011
      6 C          46.3825   12.4794  -22.5901 C.ar    1  UNL1        0.0366
      7 O          48.4458   12.1600  -21.2695 O.3     1  UNL1       -0.4750
      8 C          49.6572   12.8659  -21.0006 C.3     1  UNL1        0.2117
      9 C          49.3993   14.3736  -20.9363 C.3     1  UNL1        0.0931
     10 C          49.5993   16.0135  -24.8959 C.ar    1  UNL1        0.0032
     11 C          50.5920   15.1567  -24.3940 C.ar    1  UNL1        0.0946
     12 N          50.5001   14.6602  -23.1328 N.ar    1  UNL1       -0.2483
     13 C          49.4678   14.9789  -22.3073 C.ar    1  UNL1        0.0632
     14 C          48.4548   15.8319  -22.7622 C.ar    1  UNL1        0.0212
     15 C          48.5212   16.3600  -24.0546 C.ar    1  UNL1        0.0333
     16 BR         47.1197   17.5445  -24.6158 Br      1  UNL1       -0.0492
     17 C          50.8019   17.6709  -26.3279 C.3     1  UNL1        0.0051
     18 C          49.7411   16.5753  -26.2892 C.3     1  UNL1        0.0284
     19 C          45.7716   12.1147  -26.3371 C.3     1  UNL1        0.0468
     20 C          46.7150   12.5460  -27.4713 C.3     1  UNL1        0.1369
     21 S          46.4812   11.4811  -28.9597 S.3     1  UNL1       -0.0482
     22 C          45.9390   12.8978  -29.9001 C.2     1  UNL1        0.2792
     23 O          45.5357   12.8060  -31.0886 O.2     1  UNL1       -0.2625
     24 N          45.9825   14.1342  -29.2200 N.am    1  UNL1       -0.2460
     25 C          46.4288   13.9576  -27.8895 C.2     1  UNL1        0.2392
     26 O          46.5850   14.9375  -27.1133 O.2     1  UNL1       -0.2737
     27 H          45.7224   15.0533  -29.6420 H       1  UNL1        0.1583
@<TRIPOS>BOND
     1    17    18    1
     2    18    10    1
     3    10    11   ar
     4    11    12   ar
     5    12    13   ar
     6    13     9    1
     7     9     8    1
     8     8     7    1
     9     7     1    1
    10     1     2   ar
    11     2     3   ar
    12     3     4   ar
    13     4    19    1
    14    19    20    1
    15    20    21    1
    16    21    22    1
    17    22    23    2
    18    22    24   am
    19    24    25   am
    20    25    26    2
    21     4     5   ar
    22     5     6   ar
    23    13    14   ar
    24    14    15   ar
    25    15    16    1
    26    15    10   ar
    27     6     1   ar
    28    25    20    1
    29    24    27    1
@<TRIPOS>MOLECULE
*****
 27 29 0 0 0
SMALL
GASTEIGER

@<TRIPOS>ATOM
      1 C          47.8359   15.3093  -24.4976 C.ar    1  UNL1        0.1385
      2 C          48.3306   14.0631  -24.8995 C.ar    1  UNL1        0.0366
      3 C          49.1443   13.3115  -24.0475 C.ar    1  UNL1       -0.0011
      4 C          49.4706   13.7945  -22.7714 C.ar    1  UNL1       -0.0206
      5 C          48.9774   15.0435  -22.3639 C.ar    1  UNL1       -0.0011
      6 C          48.1638   15.7953  -23.2165 C.ar    1  UNL1        0.0366
      7 O          47.0241   16.0206  -25.3968 O.3     1  UNL1       -0.4750
      8 C          47.0733   15.9142  -26.8195 C.3     1  UNL1        0.2117
      9 C          45.7537   15.3617  -27.3644 C.3     1  UNL1        0.0931
     10 C          46.3669   11.7021  -29.5182 C.ar    1  UNL1        0.0032
     11 C          46.5892   11.7981  -28.1351 C.ar    1  UNL1        0.0946
     12 N          46.3908   12.9747  -27.4856 N.ar    1  UNL1       -0.2483
     13 C          45.9907   14.0984  -28.1382 C.ar    1  UNL1        0.0632
     14 C          45.7587   14.0527  -29.5183 C.ar    1  UNL1        0.0212
     15 C          45.9548   12.8573  -30.2153 C.ar    1  UNL1        0.0333
     16 BR         45.6477   12.8592  -32.1095 Br      1  UNL1       -0.0492
     17 C          47.5094    9.4848  -29.3713 C.3     1  UNL1        0.0051
     18 C          46.6239   10.3914  -30.2204 C.3     1  UNL1        0.0284
     19 C          50.3708   12.9935  -21.8653 C.3     1  UNL1        0.0468
     20 C          50.6985   13.7605  -20.5743 C.3     1  UNL1        0.1369
     21 S          50.2260   12.7751  -19.0879 S.3     1  UNL1       -0.0482
     22 C          51.9350   12.7068  -18.5779 C.2     1  UNL1        0.2792
     23 O          52.3139   12.0569  -17.5692 O.2     1  UNL1       -0.2625
     24 N          52.8420   13.4247  -19.3873 N.am    1  UNL1       -0.2460
     25 C          52.1711   14.0273  -20.4769 C.2     1  UNL1        0.2392
     26 O          52.7828   14.7542  -21.3043 O.2     1  UNL1       -0.2737
     27 H          53.8676   13.5013  -19.2055 H       1  UNL1        0.1583
@<TRIPOS>BOND
     1    17    18    1
     2    18    10    1
     3    10    11   ar
     4    11    12   ar
     5    12    13   ar
     6    13     9    1
     7     9     8    1
     8     8     7    1
     9     7     1    1
    10     1     2   ar
    11     2     3   ar
    12     3     4   ar
    13     4    19    1
    14    19    20    1
    15    20    21    1
    16    21    22    1
    17    22    23    2
    18    22    24   am
    19    24    25   am
    20    25    26    2
    21     4     5   ar
    22     5     6   ar
    23    13    14   ar
    24    14    15   ar
    25    15    16    1
    26    15    10   ar
    27     6     1   ar
    28    25    20    1
    29    24    27    1
@<TRIPOS>MOLECULE
*****
 27 29 0 0 0
SMALL
GASTEIGER

@<TRIPOS>ATOM
      1 C          50.1640   15.6588  -25.5994 C.ar    1  UNL1        0.1385
      2 C          50.0121   16.1642  -24.3030 C.ar    1  UNL1        0.0366
      3 C          50.1628   15.3306  -23.1915 C.ar    1  UNL1       -0.0011
      4 C          50.4770   13.9738  -23.3612 C.ar    1  UNL1       -0.0206
      5 C          50.6300   13.4622  -24.6590 C.ar    1  UNL1       -0.0011
      6 C          50.4788   14.2962  -25.7706 C.ar    1  UNL1        0.0366
      7 O          49.9994   16.5434  -26.6783 O.3     1  UNL1       -0.4750
      8 C          48.9661   17.5212  -26.7974 C.3     1  UNL1        0.2117
      9 C          47.7450   16.9308  -27.5073 C.3     1  UNL1        0.0931
     10 C          46.0346   13.7236  -25.2277 C.ar    1  UNL1        0.0032
     11 C          46.2196   15.0058  -24.6860 C.ar    1  UNL1        0.0946
     12 N          46.7701   15.9969  -25.4346 N.ar    1  UNL1       -0.2483
     13 C          47.1755   15.7905  -26.7159 C.ar    1  UNL1        0.0632
     14 C          47.0139   14.5277  -27.2989 C.ar    1  UNL1        0.0212
     15 C          46.4517   13.4870  -26.5544 C.ar    1  UNL1        0.0333
     16 BR         46.2789   11.7706  -27.3949 Br      1  UNL1       -0.0492
     17 C          46.4301   12.2183  -23.2729 C.3     1  UNL1        0.0051
     18 C          45.4490   12.6327  -24.3651 C.3     1  UNL1        0.0284
     19 C          50.6120   13.0714  -22.1611 C.3     1  UNL1        0.0468
     20 C          51.1663   13.8299  -20.9446 C.3     1  UNL1        0.1369
     21 S          50.4525   13.1675  -19.3775 S.3     1  UNL1       -0.0482
     22 C          52.0769   12.6581  -18.8415 C.2     1  UNL1        0.2792
     23 O          52.2678   12.0249  -17.7710 O.2     1  UNL1       -0.2625
     24 N          53.1400   13.0042  -19.7037 N.am    1  UNL1       -0.2460
     25 C          52.6547   13.6689  -20.8541 C.2     1  UNL1        0.2392
     26 O          53.4372   14.1071  -21.7388 O.2     1  UNL1       -0.2737
     27 H          54.1467   12.7989  -19.5169 H       1  UNL1        0.1583
@<TRIPOS>BOND
     1    17    18    1
     2    18    10    1
     3    10    11   ar
     4    11    12   ar
     5    12    13   ar
     6    13     9    1
     7     9     8    1
     8     8     7    1
     9     7     1    1
    10     1     2   ar
    11     2     3   ar
    12     3     4   ar
    13     4    19    1
    14    19    20    1
    15    20    21    1
    16    21    22    1
    17    22    23    2
    18    22    24   am
    19    24    25   am
    20    25    26    2
    21     4     5   ar
    22     5     6   ar
    23    13    14   ar
    24    14    15   ar
    25    15    16    1
    26    15    10   ar
    27     6     1   ar
    28    25    20    1
    29    24    27    1
@<TRIPOS>MOLECULE
*****
 27 29 0 0 0
SMALL
GASTEIGER

@<TRIPOS>ATOM
      1 C          46.1473   12.3000  -25.9869 C.ar    1  UNL1        0.1385
      2 C          47.4714   12.0211  -25.6291 C.ar    1  UNL1        0.0366
      3 C          47.8392   11.9182  -24.2849 C.ar    1  UNL1       -0.0011
      4 C          46.8814   12.0860  -23.2737 C.ar    1  UNL1       -0.0206
      5 C          45.5524   12.3661  -23.6272 C.ar    1  UNL1       -0.0011
      6 C          45.1849   12.4694  -24.9719 C.ar    1  UNL1        0.0366
      7 O          45.8364   12.3933  -27.3538 O.3     1  UNL1       -0.4750
      8 C          46.3125   13.4022  -28.2445 C.3     1  UNL1        0.2117
      9 C          45.9791   14.7963  -27.7069 C.3     1  UNL1        0.0931
     10 C          49.3080   16.4920  -25.5971 C.ar    1  UNL1        0.0032
     11 C          49.3429   16.2630  -26.9820 C.ar    1  UNL1        0.0946
     12 N          48.2726   15.7185  -27.6174 N.ar    1  UNL1       -0.2483
     13 C          47.1439   15.3613  -26.9487 C.ar    1  UNL1        0.0632
     14 C          47.0628   15.5680  -25.5662 C.ar    1  UNL1        0.0212
     15 C          48.1476   16.1253  -24.8835 C.ar    1  UNL1        0.0333
     16 BR         47.9915   16.3611  -22.9855 Br      1  UNL1       -0.0492
     17 C          51.2153   18.0928  -25.8051 C.3     1  UNL1        0.0051
     18 C          50.5215   17.0697  -24.9111 C.3     1  UNL1        0.0284
     19 C          47.2869   12.0013  -21.8241 C.3     1  UNL1        0.0468
     20 C          48.6097   11.2379  -21.6521 C.3     1  UNL1        0.1369
     21 S          49.6281   11.9845  -20.3070 S.3     1  UNL1       -0.0482
     22 C          49.5140   10.4713  -19.3674 C.2     1  UNL1        0.2792
     23 O          49.9982   10.3552  -18.2118 O.2     1  UNL1       -0.2625
     24 N          48.8344    9.4091  -20.0023 N.am    1  UNL1       -0.2460
     25 C          48.3510    9.8110  -21.2693 C.2     1  UNL1        0.2392
     26 O          47.7502    9.0054  -22.0290 O.2     1  UNL1       -0.2737
     27 H          48.7075    8.4568  -19.5930 H       1  UNL1        0.1583
@<TRIPOS>BOND
     1    17    18    1
     2    18    10    1
     3    10    11   ar
     4    11    12   ar
     5    12    13   ar
     6    13     9    1
     7     9     8    1
     8     8     7    1
     9     7     1    1
    10     1     2   ar
    11     2     3   ar
    12     3     4   ar
    13     4    19    1
    14    19    20    1
    15    20    21    1
    16    21    22    1
    17    22    23    2
    18    22    24   am
    19    24    25   am
    20    25    26    2
    21     4     5   ar
    22     5     6   ar
    23    13    14   ar
    24    14    15   ar
    25    15    16    1
    26    15    10   ar
    27     6     1   ar
    28    25    20    1
    29    24    27    1
@<TRIPOS>MOLECULE
*****
 27 29 0 0 0
SMALL
GASTEIGER

@<TRIPOS>ATOM
      1 C          47.4263   11.9528  -23.6974 C.ar    1  UNL1        0.1385
      2 C          46.6053   12.1427  -22.5799 C.ar    1  UNL1        0.0366
      3 C          47.1487   12.5473  -21.3576 C.ar    1  UNL1       -0.0011
      4 C          48.5275   12.7766  -21.2366 C.ar    1  UNL1       -0.0206
      5 C          49.3550   12.5873  -22.3542 C.ar    1  UNL1       -0.0011
      6 C          48.8112   12.1822  -23.5765 C.ar    1  UNL1        0.0366
      7 O          46.8246   11.5441  -24.8993 O.3     1  UNL1       -0.4750
      8 C          45.6620   12.1303  -25.4847 C.3     1  UNL1        0.2117
      9 C          46.0378   13.3650  -26.3081 C.3     1  UNL1        0.0931
     10 C          46.1657   12.4975  -30.5080 C.ar    1  UNL1        0.0032
     11 C          45.7928   13.7601  -30.0196 C.ar    1  UNL1        0.0946
     12 N          45.7572   13.9985  -28.6826 N.ar    1  UNL1       -0.2483
     13 C          46.0601   13.0357  -27.7716 C.ar    1  UNL1        0.0632
     14 C          46.4352   11.7600  -28.2104 C.ar    1  UNL1        0.0212
     15 C          46.4805   11.4831  -29.5796 C.ar    1  UNL1        0.0333
     16 BR         46.9752    9.7105  -30.1233 Br      1  UNL1       -0.0492
     17 C          44.8882   12.7797  -32.6368 C.3     1  UNL1        0.0051
     18 C          46.1676   12.2502  -31.9966 C.3     1  UNL1        0.0284
     19 C          49.1140   13.1867  -19.9097 C.3     1  UNL1        0.0468
     20 C          50.1616   12.1746  -19.4192 C.3     1  UNL1        0.1369
     21 S          51.7194   13.0305  -18.9246 S.3     1  UNL1       -0.0482
     22 C          51.5046   12.4709  -17.2434 C.2     1  UNL1        0.2792
     23 O          52.2821   12.8096  -16.3138 O.2     1  UNL1       -0.2625
     24 N          50.3955   11.6266  -17.0188 N.am    1  UNL1       -0.2460
     25 C          49.6608   11.4378  -18.2126 C.2     1  UNL1        0.2392
     26 O          48.6533   10.6826  -18.2515 O.2     1  UNL1       -0.2737
     27 H          50.1520   11.1990  -16.0977 H       1  UNL1        0.1583
@<TRIPOS>BOND
     1    17    18    1
     2    18    10    1
     3    10    11   ar
     4    11    12   ar
     5    12    13   ar
     6    13     9    1
     7     9     8    1
     8     8     7    1
     9     7     1    1
    10     1     2   ar
    11     2     3   ar
    12     3     4   ar
    13     4    19    1
    14    19    20    1
    15    20    21    1
    16    21    22    1
    17    22    23    2
    18    22    24   am
    19    24    25   am
    20    25    26    2
    21     4     5   ar
    22     5     6   ar
    23    13    14   ar
    24    14    15   ar
    25    15    16    1
    26    15    10   ar
    27     6     1   ar
    28    25    20    1
    29    24    27    1
