@<TRIPOS>MOLECULE
*****
 61 65 0 0 0
SMALL
GASTEIGER

@<TRIPOS>ATOM
      1 C         -21.6166  -10.1339  -13.4882 C.ar    1  UNL1       -0.0005
      2 C         -21.7342  -11.5446  -13.3123 C.ar    1  UNL1        0.0508
      3 C         -21.1883  -12.1571  -12.1770 C.ar    1  UNL1        0.0074
      4 C         -20.5579  -11.4053  -11.1948 C.ar    1  UNL1        0.0389
      5 C         -20.4579  -10.0153  -11.3226 C.ar    1  UNL1        0.1595
      6 C         -21.0073   -9.3751  -12.4465 C.ar    1  UNL1        0.0953
      7 C         -22.4482  -12.4172  -14.2699 C.2     1  UNL1        0.2455
      8 O         -21.8630  -12.7870  -15.3227 O.2     1  UNL1       -0.2702
      9 N         -23.8105  -12.8045  -14.0101 N.am    1  UNL1       -0.3040
     10 H         -24.2269  -12.4751  -13.1087 H       1  UNL1        0.1496
     11 C         -24.6354  -13.6474  -14.8976 C.3     1  UNL1        0.0572
     12 C         -26.0189  -13.8560  -14.2479 C.3     1  UNL1        0.0196
     13 C         -24.8348  -12.9525  -16.2586 C.3     1  UNL1        0.0196
     14 C         -23.9733  -15.0260  -15.0906 C.3     1  UNL1        0.0196
     15 C         -21.3786   -8.2233  -15.2044 C.3     1  UNL1        0.0047
     16 C         -22.1676   -9.4655  -14.7574 C.3     1  UNL1        0.0239
     17 C         -23.6598   -9.1553  -14.6106 C.3     1  UNL1        0.0047
     18 N         -20.8869   -7.9526  -12.5357 N.pl3   1  UNL1       -0.2123
     19 H         -20.0283   -7.5673  -12.9863 H       1  UNL1        0.1738
     20 S         -21.7824   -6.9084  -11.4807 S.O2    1  UNL1        0.0745
     21 O         -21.3758   -5.4808  -11.7142 O.2     1  UNL1       -0.1499
     22 O         -21.4731   -7.2653  -10.0528 O.2     1  UNL1       -0.1499
     23 C         -23.5136   -7.0979  -11.7872 C.ar    1  UNL1        0.1356
     24 C         -24.1643   -6.2028  -12.6510 C.ar    1  UNL1        0.0207
     25 C         -25.5366   -6.3113  -12.8835 C.ar    1  UNL1       -0.0028
     26 C         -26.2851   -7.3086  -12.2453 C.ar    1  UNL1       -0.0216
     27 C         -25.6350   -8.2277  -11.4101 C.ar    1  UNL1        0.0085
     28 C         -24.2594   -8.1248  -11.1713 C.ar    1  UNL1        0.0762
     29 CL        -23.5139   -9.3102  -10.1051 Cl      1  UNL1       -0.0809
     30 C         -27.7568   -7.4480  -12.5258 C.3     1  UNL1        0.0224
     31 C         -28.1018   -8.2089  -13.7997 C.3     1  UNL1        0.0047
     32 C         -28.2531   -6.6996  -13.7563 C.3     1  UNL1        0.0047
     33 O         -19.8340   -9.2338  -10.3361 O.3     1  UNL1       -0.4513
     34 C         -19.0575   -9.7414   -9.2881 C.ar    1  UNL1        0.1580
     35 C         -18.1074  -10.7269   -9.5734 C.ar    1  UNL1        0.0677
     36 C         -17.3034  -11.2527   -8.5586 C.ar    1  UNL1        0.1398
     37 F         -16.3680  -12.1852   -8.8710 F       1  UNL1       -0.2044
     38 C         -17.4617  -10.8125   -7.2327 C.ar    1  UNL1        0.0175
     39 C         -18.4261   -9.8335   -6.9441 C.ar    1  UNL1        0.0130
     40 C         -19.2307   -9.3058   -7.9600 C.ar    1  UNL1        0.0919
     41 CL        -20.4856   -8.1505   -7.5314 Cl      1  UNL1       -0.0791
     42 C         -16.5740  -11.3378   -6.1369 C.3     1  UNL1        0.1382
     43 C         -17.0595  -10.8484   -4.8111 C.2     1  UNL1        0.3234
     44 O         -18.0069  -11.4463   -4.2320 O.2     1  UNL1       -0.2497
     45 O         -16.4937   -9.6937   -4.2585 O.3     1  UNL1       -0.4215
     46 C         -17.2562   -8.6398   -3.6717 C.3     1  UNL1        0.3207
     47 O         -18.5914   -9.0836   -3.5378 O.3     1  UNL1       -0.3070
     48 C         -19.3275   -8.2128   -2.6902 C.3     1  UNL1        0.2456
     49 C         -19.1658   -6.7059   -3.0689 C.3     1  UNL1        0.1781
     50 O         -18.3712   -6.0712   -2.0982 O.3     1  UNL1       -0.3790
     51 C         -18.5208   -6.5475   -4.4627 C.3     1  UNL1        0.1733
     52 O         -19.4487   -6.9578   -5.4359 O.3     1  UNL1       -0.3793
     53 C         -17.2200   -7.3880   -4.5847 C.3     1  UNL1        0.2106
     54 O         -16.0848   -6.6021   -4.3176 O.3     1  UNL1       -0.3766
     55 H         -18.5033   -5.0932   -2.2079 H       1  UNL1        0.2106
     56 H         -19.1577   -6.5607   -6.2983 H       1  UNL1        0.2105
     57 H         -16.1538   -6.2753   -3.3836 H       1  UNL1        0.2107
     58 C         -20.7728   -8.6130   -2.7518 C.2     1  UNL1        0.3439
     59 O         -21.3573   -9.0314   -1.7165 O.2     1  UNL1       -0.2475
     60 O         -21.4824   -8.4786   -3.9417 O.3     1  UNL1       -0.4785
     61 H         -22.4627   -8.7283   -3.9931 H       1  UNL1        0.2951
@<TRIPOS>BOND
     1    15    16    1
     2    16    17    1
     3    16     1    1
     4     1     2   ar
     5     2     7    1
     6     7     8    2
     7     7     9   am
     8     9    11    1
     9    11    12    1
    10    11    13    1
    11    11    14    1
    12     2     3   ar
    13     3     4   ar
    14     4     5   ar
    15     5    33    1
    16    33    34    1
    17    34    35   ar
    18    35    36   ar
    19    36    37    1
    20    36    38   ar
    21    38    42    1
    22    42    43    1
    23    43    44    2
    24    43    45    1
    25    45    46    1
    26    46    47    1
    27    47    48    1
    28    48    58    1
    29    58    59    2
    30    58    60    1
    31    48    49    1
    32    49    50    1
    33    49    51    1
    34    51    52    1
    35    51    53    1
    36    53    54    1
    37    38    39   ar
    38    39    40   ar
    39    40    41    1
    40     5     6   ar
    41     6    18    1
    42    18    20    1
    43    20    21    2
    44    20    22    2
    45    20    23    1
    46    23    24   ar
    47    24    25   ar
    48    25    26   ar
    49    26    30    1
    50    30    31    1
    51    31    32    1
    52    26    27   ar
    53    27    28   ar
    54    28    29    1
    55     6     1   ar
    56    28    23   ar
    57    40    34   ar
    58    32    30    1
    59    53    46    1
    60     9    10    1
    61    60    61    1
    62    50    55    1
    63    52    56    1
    64    54    57    1
    65    18    19    1
@<TRIPOS>MOLECULE
*****
 61 65 0 0 0
SMALL
GASTEIGER

@<TRIPOS>ATOM
      1 C         -25.7646   -5.7493  -14.7574 C.ar    1  UNL1       -0.0005
      2 C         -25.5746   -5.2197  -16.0683 C.ar    1  UNL1        0.0508
      3 C         -24.5631   -5.7317  -16.8910 C.ar    1  UNL1        0.0074
      4 C         -23.7560   -6.7768  -16.4624 C.ar    1  UNL1        0.0389
      5 C         -23.9415   -7.3402  -15.1949 C.ar    1  UNL1        0.1595
      6 C         -24.9567   -6.8525  -14.3545 C.ar    1  UNL1        0.0953
      7 C         -26.4296   -4.1547  -16.6365 C.2     1  UNL1        0.2455
      8 O         -26.0088   -2.9670  -16.6503 O.2     1  UNL1       -0.2702
      9 N         -27.7424   -4.4762  -17.1329 N.am    1  UNL1       -0.3040
     10 H         -28.0188   -5.4848  -17.1059 H       1  UNL1        0.1496
     11 C         -28.6964   -3.5020  -17.6980 C.3     1  UNL1        0.0572
     12 C         -29.9260   -4.2601  -18.2395 C.3     1  UNL1        0.0196
     13 C         -29.1684   -2.5230  -16.6053 C.3     1  UNL1        0.0196
     14 C         -28.0448   -2.7319  -18.8635 C.3     1  UNL1        0.0196
     15 C         -26.4770   -5.2067  -12.3386 C.3     1  UNL1        0.0047
     16 C         -26.8383   -5.1548  -13.8327 C.3     1  UNL1        0.0239
     17 C         -28.2051   -5.7918  -14.0983 C.3     1  UNL1        0.0047
     18 N         -25.1148   -7.4595  -13.0691 N.pl3   1  UNL1       -0.2123
     19 H         -24.3145   -7.3962  -12.4026 H       1  UNL1        0.1738
     20 S         -26.2883   -8.7078  -12.8045 S.O2    1  UNL1        0.0745
     21 O         -27.5214   -8.4257  -13.6157 O.2     1  UNL1       -0.1499
     22 O         -26.6686   -8.7283  -11.3495 O.2     1  UNL1       -0.1499
     23 C         -25.6071  -10.2715  -13.2709 C.ar    1  UNL1        0.1356
     24 C         -25.8872  -10.7953  -14.5429 C.ar    1  UNL1        0.0207
     25 C         -25.3882  -12.0427  -14.9226 C.ar    1  UNL1       -0.0028
     26 C         -24.6116  -12.7945  -14.0316 C.ar    1  UNL1       -0.0216
     27 C         -24.2982  -12.2612  -12.7737 C.ar    1  UNL1        0.0085
     28 C         -24.7956  -11.0115  -12.3854 C.ar    1  UNL1        0.0762
     29 CL        -24.3662  -10.4102  -10.7881 Cl      1  UNL1       -0.0809
     30 C         -24.0432  -14.1216  -14.4555 C.3     1  UNL1        0.0224
     31 C         -23.1470  -14.0763  -15.6866 C.3     1  UNL1        0.0047
     32 C         -24.5504  -14.6434  -15.7938 C.3     1  UNL1        0.0047
     33 O         -23.1437   -8.4052  -14.7449 O.3     1  UNL1       -0.4513
     34 C         -22.4018   -8.4012  -13.5582 C.ar    1  UNL1        0.1580
     35 C         -22.3539   -7.2267  -12.8009 C.ar    1  UNL1        0.0677
     36 C         -21.6342   -7.1827  -11.6039 C.ar    1  UNL1        0.1398
     37 F         -21.6320   -6.0383  -10.8741 F       1  UNL1       -0.2044
     38 C         -20.9281   -8.3155  -11.1624 C.ar    1  UNL1        0.0175
     39 C         -20.9642   -9.4904  -11.9306 C.ar    1  UNL1        0.0130
     40 C         -21.6857   -9.5354  -13.1288 C.ar    1  UNL1        0.0919
     41 CL        -21.6231  -11.0007  -14.0996 Cl      1  UNL1       -0.0791
     42 C         -20.1844   -8.2967   -9.8542 C.3     1  UNL1        0.1382
     43 C         -21.0848   -8.7502   -8.7513 C.2     1  UNL1        0.3234
     44 O         -21.9734   -9.6142   -8.9841 O.2     1  UNL1       -0.2497
     45 O         -20.9673   -8.1629   -7.4864 O.3     1  UNL1       -0.4215
     46 C         -20.2713   -8.7635   -6.3949 C.3     1  UNL1        0.3207
     47 O         -20.9950   -8.4969   -5.2104 O.3     1  UNL1       -0.3070
     48 C         -20.5325   -9.3145   -4.1445 C.3     1  UNL1        0.2456
     49 C         -18.9783   -9.2984   -3.9883 C.3     1  UNL1        0.1781
     50 O         -18.4607  -10.5329   -4.4180 O.3     1  UNL1       -0.3790
     51 C         -18.3478   -8.1502   -4.8054 C.3     1  UNL1        0.1733
     52 O         -18.6792   -6.9288   -4.1931 O.3     1  UNL1       -0.3793
     53 C         -18.8496   -8.1580   -6.2756 C.3     1  UNL1        0.2106
     54 O         -17.9433   -8.8308   -7.1145 O.3     1  UNL1       -0.3766
     55 H         -17.5341  -10.5981   -4.0671 H       1  UNL1        0.2106
     56 H         -18.0278   -6.2549   -4.5211 H       1  UNL1        0.2105
     57 H         -17.8826   -9.7712   -6.8047 H       1  UNL1        0.2107
     58 C         -21.1880   -8.8456   -2.8783 C.2     1  UNL1        0.3439
     59 O         -20.9432   -7.6938   -2.4291 O.2     1  UNL1       -0.2475
     60 O         -22.1030   -9.6648   -2.2232 O.3     1  UNL1       -0.4785
     61 H         -22.5660   -9.3542   -1.3775 H       1  UNL1        0.2951
@<TRIPOS>BOND
     1    15    16    1
     2    16    17    1
     3    16     1    1
     4     1     2   ar
     5     2     7    1
     6     7     8    2
     7     7     9   am
     8     9    11    1
     9    11    12    1
    10    11    13    1
    11    11    14    1
    12     2     3   ar
    13     3     4   ar
    14     4     5   ar
    15     5    33    1
    16    33    34    1
    17    34    35   ar
    18    35    36   ar
    19    36    37    1
    20    36    38   ar
    21    38    42    1
    22    42    43    1
    23    43    44    2
    24    43    45    1
    25    45    46    1
    26    46    47    1
    27    47    48    1
    28    48    58    1
    29    58    59    2
    30    58    60    1
    31    48    49    1
    32    49    50    1
    33    49    51    1
    34    51    52    1
    35    51    53    1
    36    53    54    1
    37    38    39   ar
    38    39    40   ar
    39    40    41    1
    40     5     6   ar
    41     6    18    1
    42    18    20    1
    43    20    21    2
    44    20    22    2
    45    20    23    1
    46    23    24   ar
    47    24    25   ar
    48    25    26   ar
    49    26    30    1
    50    30    31    1
    51    31    32    1
    52    26    27   ar
    53    27    28   ar
    54    28    29    1
    55     6     1   ar
    56    28    23   ar
    57    40    34   ar
    58    32    30    1
    59    53    46    1
    60     9    10    1
    61    60    61    1
    62    50    55    1
    63    52    56    1
    64    54    57    1
    65    18    19    1
@<TRIPOS>MOLECULE
*****
 61 65 0 0 0
SMALL
GASTEIGER

@<TRIPOS>ATOM
      1 C         -25.6224   -5.8010  -14.6093 C.ar    1  UNL1       -0.0005
      2 C         -25.3862   -5.3731  -15.9494 C.ar    1  UNL1        0.0508
      3 C         -24.3721   -5.9721  -16.7077 C.ar    1  UNL1        0.0074
      4 C         -23.6074   -7.0063  -16.1853 C.ar    1  UNL1        0.0389
      5 C         -23.8392   -7.4712  -14.8858 C.ar    1  UNL1        0.1595
      6 C         -24.8582   -6.8950  -14.1083 C.ar    1  UNL1        0.0953
      7 C         -26.1949   -4.3277  -16.6136 C.2     1  UNL1        0.2455
      8 O         -25.7192   -3.1679  -16.7420 O.2     1  UNL1       -0.2702
      9 N         -27.5252   -4.6325  -17.0727 N.am    1  UNL1       -0.3040
     10 H         -27.8483   -5.6198  -16.9487 H       1  UNL1        0.1496
     11 C         -28.4371   -3.6724  -17.7248 C.3     1  UNL1        0.0572
     12 C         -28.7162   -2.5067  -16.7539 C.3     1  UNL1        0.0196
     13 C         -27.7863   -3.1011  -18.9997 C.3     1  UNL1        0.0196
     14 C         -29.7760   -4.3559  -18.0657 C.3     1  UNL1        0.0196
     15 C         -26.3841   -5.0846  -12.2514 C.3     1  UNL1        0.0047
     16 C         -26.6985   -5.1107  -13.7567 C.3     1  UNL1        0.0239
     17 C         -28.0812   -5.7103  -14.0273 C.3     1  UNL1        0.0047
     18 N         -25.0644   -7.4029  -12.7871 N.pl3   1  UNL1       -0.2123
     19 H         -24.2975   -7.2689  -12.0924 H       1  UNL1        0.1738
     20 S         -26.2243   -8.6535  -12.4775 S.O2    1  UNL1        0.0745
     21 O         -27.5103   -8.3408  -13.1892 O.2     1  UNL1       -0.1499
     22 O         -26.4997   -8.7175  -11.0003 O.2     1  UNL1       -0.1499
     23 C         -25.5887  -10.2051  -13.0393 C.ar    1  UNL1        0.1356
     24 C         -25.9255  -10.6660  -14.3217 C.ar    1  UNL1        0.0207
     25 C         -25.4632  -11.9026  -14.7758 C.ar    1  UNL1       -0.0028
     26 C         -24.6670  -12.7064  -13.9499 C.ar    1  UNL1       -0.0216
     27 C         -24.2973  -12.2358  -12.6823 C.ar    1  UNL1        0.0085
     28 C         -24.7577  -10.9973  -12.2196 C.ar    1  UNL1        0.0762
     29 CL        -24.2580  -10.4761  -10.6146 Cl      1  UNL1       -0.0809
     30 C         -24.1384  -14.0217  -14.4542 C.3     1  UNL1        0.0224
     31 C         -23.1406  -13.9193  -15.6009 C.3     1  UNL1        0.0047
     32 C         -24.5589  -14.3854  -15.8725 C.3     1  UNL1        0.0047
     33 O         -23.0849   -8.5235  -14.3409 O.3     1  UNL1       -0.4513
     34 C         -22.2363   -8.4079  -13.2340 C.ar    1  UNL1        0.1580
     35 C         -22.0916   -7.1564  -12.6273 C.ar    1  UNL1        0.0677
     36 C         -21.2633   -6.9992  -11.5130 C.ar    1  UNL1        0.1398
     37 F         -21.1673   -5.7791  -10.9260 F       1  UNL1       -0.2044
     38 C         -20.5453   -8.0967  -11.0064 C.ar    1  UNL1        0.0175
     39 C         -20.6793   -9.3502  -11.6248 C.ar    1  UNL1        0.0130
     40 C         -21.5095   -9.5085  -12.7400 C.ar    1  UNL1        0.0919
     41 CL        -21.5707  -11.0770  -13.5335 Cl      1  UNL1       -0.0791
     42 C         -19.6833   -7.9525   -9.7812 C.3     1  UNL1        0.1382
     43 C         -20.4923   -8.2281   -8.5554 C.2     1  UNL1        0.3234
     44 O         -21.6752   -7.7983   -8.4766 O.2     1  UNL1       -0.2497
     45 O         -19.9023   -8.9096   -7.4848 O.3     1  UNL1       -0.4215
     46 C         -19.5592   -8.2925   -6.2446 C.3     1  UNL1        0.3207
     47 O         -18.1554   -8.3572   -6.0936 O.3     1  UNL1       -0.3070
     48 C         -17.7229   -7.5007   -5.0458 C.3     1  UNL1        0.2456
     49 C         -18.5395   -7.6839   -3.7267 C.3     1  UNL1        0.1781
     50 O         -19.3716   -6.5658   -3.5427 O.3     1  UNL1       -0.3790
     51 C         -19.3904   -8.9714   -3.7721 C.3     1  UNL1        0.1733
     52 O         -18.5302  -10.0809   -3.6967 O.3     1  UNL1       -0.3793
     53 C         -20.2372   -9.0463   -5.0724 C.3     1  UNL1        0.2106
     54 O         -21.5415   -8.5682   -4.8531 O.3     1  UNL1       -0.3766
     55 H         -19.6680   -6.5762   -2.5951 H       1  UNL1        0.2106
     56 H         -19.0814  -10.8549   -3.4085 H       1  UNL1        0.2105
     57 H         -21.4752   -7.6161   -4.5831 H       1  UNL1        0.2107
     58 C         -16.2665   -7.7655   -4.7976 C.2     1  UNL1        0.3439
     59 O         -15.9127   -8.7717   -4.1261 O.2     1  UNL1       -0.2475
     60 O         -15.3024   -6.9258   -5.3480 O.3     1  UNL1       -0.4785
     61 H         -14.3156   -7.1026   -5.2032 H       1  UNL1        0.2951
@<TRIPOS>BOND
     1    15    16    1
     2    16    17    1
     3    16     1    1
     4     1     2   ar
     5     2     7    1
     6     7     8    2
     7     7     9   am
     8     9    11    1
     9    11    12    1
    10    11    13    1
    11    11    14    1
    12     2     3   ar
    13     3     4   ar
    14     4     5   ar
    15     5    33    1
    16    33    34    1
    17    34    35   ar
    18    35    36   ar
    19    36    37    1
    20    36    38   ar
    21    38    42    1
    22    42    43    1
    23    43    44    2
    24    43    45    1
    25    45    46    1
    26    46    47    1
    27    47    48    1
    28    48    58    1
    29    58    59    2
    30    58    60    1
    31    48    49    1
    32    49    50    1
    33    49    51    1
    34    51    52    1
    35    51    53    1
    36    53    54    1
    37    38    39   ar
    38    39    40   ar
    39    40    41    1
    40     5     6   ar
    41     6    18    1
    42    18    20    1
    43    20    21    2
    44    20    22    2
    45    20    23    1
    46    23    24   ar
    47    24    25   ar
    48    25    26   ar
    49    26    30    1
    50    30    31    1
    51    31    32    1
    52    26    27   ar
    53    27    28   ar
    54    28    29    1
    55     6     1   ar
    56    28    23   ar
    57    40    34   ar
    58    32    30    1
    59    53    46    1
    60     9    10    1
    61    60    61    1
    62    50    55    1
    63    52    56    1
    64    54    57    1
    65    18    19    1
@<TRIPOS>MOLECULE
*****
 61 65 0 0 0
SMALL
GASTEIGER

@<TRIPOS>ATOM
      1 C         -25.7790   -6.0581  -14.9524 C.ar    1  UNL1       -0.0005
      2 C         -27.0480   -6.2581  -14.3323 C.ar    1  UNL1        0.0508
      3 C         -27.2730   -7.3969  -13.5484 C.ar    1  UNL1        0.0074
      4 C         -26.2643   -8.3265  -13.3351 C.ar    1  UNL1        0.0389
      5 C         -24.9984   -8.1396  -13.9017 C.ar    1  UNL1        0.1595
      6 C         -24.7432   -6.9997  -14.6829 C.ar    1  UNL1        0.0953
      7 C         -28.1595   -5.2886  -14.4453 C.2     1  UNL1        0.2455
      8 O         -28.4272   -4.5397  -13.4678 O.2     1  UNL1       -0.2702
      9 N         -28.9449   -5.2341  -15.6509 N.am    1  UNL1       -0.3040
     10 H         -28.6552   -5.8724  -16.4274 H       1  UNL1        0.1496
     11 C         -30.0912   -4.3317  -15.8751 C.3     1  UNL1        0.0572
     12 C         -29.7952   -2.9704  -15.2124 C.3     1  UNL1        0.0196
     13 C         -30.3030   -4.1042  -17.3846 C.3     1  UNL1        0.0196
     14 C         -31.3653   -4.9192  -15.2368 C.3     1  UNL1        0.0196
     15 C         -26.0651   -3.5143  -15.2685 C.3     1  UNL1        0.0047
     16 C         -25.5450   -4.8372  -15.8558 C.3     1  UNL1        0.0239
     17 C         -26.1011   -5.0801  -17.2616 C.3     1  UNL1        0.0047
     18 N         -23.4348   -6.8453  -15.2397 N.pl3   1  UNL1       -0.2123
     19 H         -22.8533   -6.0506  -14.8950 H       1  UNL1        0.1738
     20 S         -23.0256   -7.5379  -16.7753 S.O2    1  UNL1        0.0745
     21 O         -21.8351   -6.8256  -17.3527 O.2     1  UNL1       -0.1499
     22 O         -24.1855   -7.3701  -17.7180 O.2     1  UNL1       -0.1499
     23 C         -22.6580   -9.2557  -16.5728 C.ar    1  UNL1        0.1356
     24 C         -23.4889  -10.2153  -17.1722 C.ar    1  UNL1        0.0207
     25 C         -23.2388  -11.5780  -16.9999 C.ar    1  UNL1       -0.0028
     26 C         -22.1611  -12.0051  -16.2136 C.ar    1  UNL1       -0.0216
     27 C         -21.3065  -11.0520  -15.6424 C.ar    1  UNL1        0.0085
     28 C         -21.5513   -9.6838  -15.8098 C.ar    1  UNL1        0.0762
     29 CL        -20.4396   -8.5463  -15.0566 Cl      1  UNL1       -0.0809
     30 C         -21.8703  -13.4733  -16.0596 C.3     1  UNL1        0.0224
     31 C         -22.7519  -14.2040  -15.0547 C.3     1  UNL1        0.0047
     32 C         -21.3114  -13.8819  -14.7027 C.3     1  UNL1        0.0047
     33 O         -23.9599   -9.0617  -13.6904 O.3     1  UNL1       -0.4513
     34 C         -23.0066   -8.9705  -12.6697 C.ar    1  UNL1        0.1580
     35 C         -22.4954   -7.7115  -12.3396 C.ar    1  UNL1        0.0677
     36 C         -21.5506   -7.5743  -11.3193 C.ar    1  UNL1        0.1398
     37 F         -21.0961   -6.3359  -10.9998 F       1  UNL1       -0.2044
     38 C         -21.0847   -8.7083  -10.6311 C.ar    1  UNL1        0.0175
     39 C         -21.5872   -9.9742  -10.9728 C.ar    1  UNL1        0.0130
     40 C         -22.5343  -10.1121  -11.9936 C.ar    1  UNL1        0.0919
     41 CL        -23.0624  -11.7279  -12.4452 Cl      1  UNL1       -0.0791
     42 C         -20.1000   -8.5716   -9.5012 C.3     1  UNL1        0.1382
     43 C         -20.8144   -8.1776   -8.2494 C.2     1  UNL1        0.3234
     44 O         -22.0576   -8.3660   -8.1526 O.2     1  UNL1       -0.2497
     45 O         -20.1008   -7.5479   -7.2231 O.3     1  UNL1       -0.4215
     46 C         -19.5633   -8.2353   -6.0939 C.3     1  UNL1        0.3207
     47 O         -20.5662   -8.3024   -5.1003 O.3     1  UNL1       -0.3070
     48 C         -20.2067   -9.2296   -4.0856 C.3     1  UNL1        0.2456
     49 C         -18.7553   -9.0185   -3.5477 C.3     1  UNL1        0.1781
     50 O         -17.9369  -10.0629   -4.0126 O.3     1  UNL1       -0.3790
     51 C         -18.1838   -7.6589   -4.0041 C.3     1  UNL1        0.1733
     52 O         -18.8616   -6.6346   -3.3200 O.3     1  UNL1       -0.3793
     53 C         -18.3397   -7.4638   -5.5374 C.3     1  UNL1        0.2106
     54 O         -17.1627   -7.8297   -6.2147 O.3     1  UNL1       -0.3766
     55 H         -17.1145  -10.0581   -3.4562 H       1  UNL1        0.2106
     56 H         -18.2901   -5.8243   -3.3729 H       1  UNL1        0.2105
     57 H         -16.9989   -8.7926   -6.0417 H       1  UNL1        0.2107
     58 C         -21.1997   -9.1056   -2.9669 C.2     1  UNL1        0.3439
     59 O         -21.7253  -10.1384   -2.4713 O.2     1  UNL1       -0.2475
     60 O         -21.5067   -7.8528   -2.4440 O.3     1  UNL1       -0.4785
     61 H         -22.1618   -7.7560   -1.6774 H       1  UNL1        0.2951
@<TRIPOS>BOND
     1    15    16    1
     2    16    17    1
     3    16     1    1
     4     1     2   ar
     5     2     7    1
     6     7     8    2
     7     7     9   am
     8     9    11    1
     9    11    12    1
    10    11    13    1
    11    11    14    1
    12     2     3   ar
    13     3     4   ar
    14     4     5   ar
    15     5    33    1
    16    33    34    1
    17    34    35   ar
    18    35    36   ar
    19    36    37    1
    20    36    38   ar
    21    38    42    1
    22    42    43    1
    23    43    44    2
    24    43    45    1
    25    45    46    1
    26    46    47    1
    27    47    48    1
    28    48    58    1
    29    58    59    2
    30    58    60    1
    31    48    49    1
    32    49    50    1
    33    49    51    1
    34    51    52    1
    35    51    53    1
    36    53    54    1
    37    38    39   ar
    38    39    40   ar
    39    40    41    1
    40     5     6   ar
    41     6    18    1
    42    18    20    1
    43    20    21    2
    44    20    22    2
    45    20    23    1
    46    23    24   ar
    47    24    25   ar
    48    25    26   ar
    49    26    30    1
    50    30    31    1
    51    31    32    1
    52    26    27   ar
    53    27    28   ar
    54    28    29    1
    55     6     1   ar
    56    28    23   ar
    57    40    34   ar
    58    32    30    1
    59    53    46    1
    60     9    10    1
    61    60    61    1
    62    50    55    1
    63    52    56    1
    64    54    57    1
    65    18    19    1
@<TRIPOS>MOLECULE
*****
 61 65 0 0 0
SMALL
GASTEIGER

@<TRIPOS>ATOM
      1 C         -25.8697   -5.9133  -15.0310 C.ar    1  UNL1       -0.0005
      2 C         -27.1445   -6.0960  -14.4176 C.ar    1  UNL1        0.0508
      3 C         -27.3649   -7.1909  -13.5722 C.ar    1  UNL1        0.0074
      4 C         -26.3464   -8.0916  -13.2918 C.ar    1  UNL1        0.0389
      5 C         -25.0753   -7.9190  -13.8510 C.ar    1  UNL1        0.1595
      6 C         -24.8248   -6.8224  -14.6934 C.ar    1  UNL1        0.0953
      7 C         -28.2677   -5.1511  -14.6017 C.2     1  UNL1        0.2455
      8 O         -28.6154   -4.4113  -13.6427 O.2     1  UNL1       -0.2702
      9 N         -28.9738   -5.1107  -15.8559 N.am    1  UNL1       -0.3040
     10 H         -28.6197   -5.7402  -16.6127 H       1  UNL1        0.1496
     11 C         -30.1229   -4.2334  -16.1533 C.3     1  UNL1        0.0572
     12 C         -30.3822   -4.2444  -17.6740 C.3     1  UNL1        0.0196
     13 C         -31.3867   -4.7500  -15.4386 C.3     1  UNL1        0.0196
     14 C         -29.8151   -2.7863  -15.7205 C.3     1  UNL1        0.0196
     15 C         -26.1135   -3.3822  -15.4631 C.3     1  UNL1        0.0047
     16 C         -25.6397   -4.7433  -16.0003 C.3     1  UNL1        0.0239
     17 C         -26.2456   -5.0419  -17.3744 C.3     1  UNL1        0.0047
     18 N         -23.5108   -6.6811  -15.2403 N.pl3   1  UNL1       -0.2123
     19 H         -22.9274   -5.8866  -14.8981 H       1  UNL1        0.1738
     20 S         -23.0927   -7.3906  -16.7658 S.O2    1  UNL1        0.0745
     21 O         -21.9048   -6.6784  -17.3485 O.2     1  UNL1       -0.1499
     22 O         -24.2507   -7.2418  -17.7140 O.2     1  UNL1       -0.1499
     23 C         -22.7153   -9.1034  -16.5404 C.ar    1  UNL1        0.1356
     24 C         -23.5221  -10.0750  -17.1532 C.ar    1  UNL1        0.0207
     25 C         -23.2646  -11.4341  -16.9639 C.ar    1  UNL1       -0.0028
     26 C         -22.2038  -11.8454  -16.1469 C.ar    1  UNL1       -0.0216
     27 C         -21.3725  -10.8804  -15.5615 C.ar    1  UNL1        0.0085
     28 C         -21.6250   -9.5158  -15.7459 C.ar    1  UNL1        0.0762
     29 CL        -20.5429   -8.3625  -14.9735 Cl      1  UNL1       -0.0809
     30 C         -21.9042  -13.3098  -15.9739 C.3     1  UNL1        0.0224
     31 C         -22.7767  -14.0311  -14.9545 C.3     1  UNL1        0.0047
     32 C         -21.3362  -13.6963  -14.6142 C.3     1  UNL1        0.0047
     33 O         -24.0272   -8.8119  -13.5726 O.3     1  UNL1       -0.4513
     34 C         -23.0475   -8.6126  -12.5930 C.ar    1  UNL1        0.1580
     35 C         -22.6422   -7.3055  -12.3057 C.ar    1  UNL1        0.0677
     36 C         -21.6752   -7.0612  -11.3270 C.ar    1  UNL1        0.1398
     37 F         -21.3248   -5.7800  -11.0475 F       1  UNL1       -0.2044
     38 C         -21.0805   -8.1332  -10.6387 C.ar    1  UNL1        0.0175
     39 C         -21.4770   -9.4466  -10.9379 C.ar    1  UNL1        0.0130
     40 C         -22.4461   -9.6919  -11.9170 C.ar    1  UNL1        0.0919
     41 CL        -22.8401  -11.3582  -12.3189 Cl      1  UNL1       -0.0791
     42 C         -20.0695   -7.8835   -9.5522 C.3     1  UNL1        0.1382
     43 C         -20.6251   -8.3119   -8.2328 C.2     1  UNL1        0.3234
     44 O         -21.8399   -8.1016   -7.9673 O.2     1  UNL1       -0.2497
     45 O         -19.7715   -8.8878   -7.2850 O.3     1  UNL1       -0.4215
     46 C         -19.3945   -8.2492   -6.0657 C.3     1  UNL1        0.3207
     47 O         -17.9931   -8.3639   -5.9230 O.3     1  UNL1       -0.3070
     48 C         -17.5193   -7.4951   -4.9035 C.3     1  UNL1        0.2456
     49 C         -18.3314   -7.6087   -3.5739 C.3     1  UNL1        0.1781
     50 O         -19.1182   -6.4543   -3.4165 O.3     1  UNL1       -0.3790
     51 C         -19.2316   -8.8629   -3.5759 C.3     1  UNL1        0.1733
     52 O         -18.4142  -10.0023   -3.4745 O.3     1  UNL1       -0.3793
     53 C         -20.0914   -8.9422   -4.8673 C.3     1  UNL1        0.2106
     54 O         -21.3745   -8.4078   -4.6527 O.3     1  UNL1       -0.3766
     55 H         -19.4069   -6.4260   -2.4668 H       1  UNL1        0.2106
     56 H         -18.9925  -10.7458   -3.1601 H       1  UNL1        0.2105
     57 H         -21.2693   -7.4516   -4.4109 H       1  UNL1        0.2107
     58 C         -16.0721   -7.8090   -4.6582 C.2     1  UNL1        0.3439
     59 O         -15.7524   -8.7773   -3.9176 O.2     1  UNL1       -0.2475
     60 O         -15.0810   -7.0596   -5.2856 O.3     1  UNL1       -0.4785
     61 H         -14.1009   -7.2715   -5.1429 H       1  UNL1        0.2951
@<TRIPOS>BOND
     1    15    16    1
     2    16    17    1
     3    16     1    1
     4     1     2   ar
     5     2     7    1
     6     7     8    2
     7     7     9   am
     8     9    11    1
     9    11    12    1
    10    11    13    1
    11    11    14    1
    12     2     3   ar
    13     3     4   ar
    14     4     5   ar
    15     5    33    1
    16    33    34    1
    17    34    35   ar
    18    35    36   ar
    19    36    37    1
    20    36    38   ar
    21    38    42    1
    22    42    43    1
    23    43    44    2
    24    43    45    1
    25    45    46    1
    26    46    47    1
    27    47    48    1
    28    48    58    1
    29    58    59    2
    30    58    60    1
    31    48    49    1
    32    49    50    1
    33    49    51    1
    34    51    52    1
    35    51    53    1
    36    53    54    1
    37    38    39   ar
    38    39    40   ar
    39    40    41    1
    40     5     6   ar
    41     6    18    1
    42    18    20    1
    43    20    21    2
    44    20    22    2
    45    20    23    1
    46    23    24   ar
    47    24    25   ar
    48    25    26   ar
    49    26    30    1
    50    30    31    1
    51    31    32    1
    52    26    27   ar
    53    27    28   ar
    54    28    29    1
    55     6     1   ar
    56    28    23   ar
    57    40    34   ar
    58    32    30    1
    59    53    46    1
    60     9    10    1
    61    60    61    1
    62    50    55    1
    63    52    56    1
    64    54    57    1
    65    18    19    1
@<TRIPOS>MOLECULE
*****
 61 65 0 0 0
SMALL
GASTEIGER

@<TRIPOS>ATOM
      1 C         -27.6381   -5.0859  -15.5008 C.ar    1  UNL1       -0.0005
      2 C         -28.8242   -5.6399  -14.9341 C.ar    1  UNL1        0.0508
      3 C         -28.7460   -6.7739  -14.1155 C.ar    1  UNL1        0.0074
      4 C         -27.5209   -7.3544  -13.8164 C.ar    1  UNL1        0.0389
      5 C         -26.3370   -6.8124  -14.3294 C.ar    1  UNL1        0.1595
      6 C         -26.3869   -5.6683  -15.1439 C.ar    1  UNL1        0.0953
      7 C         -30.1648   -5.0496  -15.1397 C.2     1  UNL1        0.2455
      8 O         -31.0278   -5.6914  -15.7962 O.2     1  UNL1       -0.2702
      9 N         -30.4590   -3.7385  -14.6222 N.am    1  UNL1       -0.3040
     10 H         -29.7012   -3.2714  -14.0726 H       1  UNL1        0.1496
     11 C         -31.7457   -3.0334  -14.7829 C.3     1  UNL1        0.0572
     12 C         -31.7553   -1.7919  -13.8674 C.3     1  UNL1        0.0196
     13 C         -31.9187   -2.5662  -16.2413 C.3     1  UNL1        0.0196
     14 C         -32.9126   -3.9529  -14.3718 C.3     1  UNL1        0.0196
     15 C         -27.8344   -4.2432  -17.9307 C.3     1  UNL1        0.0047
     16 C         -27.7252   -3.8740  -16.4416 C.3     1  UNL1        0.0239
     17 C         -26.5696   -2.9011  -16.1916 C.3     1  UNL1        0.0047
     18 N         -25.1534   -5.1444  -15.6436 N.pl3   1  UNL1       -0.2123
     19 H         -24.8544   -4.2042  -15.3041 H       1  UNL1        0.1738
     20 S         -24.4699   -5.7209  -17.1288 S.O2    1  UNL1        0.0745
     21 O         -23.5107   -4.7017  -17.6757 O.2     1  UNL1       -0.1499
     22 O         -25.5709   -5.9269  -18.1325 O.2     1  UNL1       -0.1499
     23 C         -23.6248   -7.2472  -16.8404 C.ar    1  UNL1        0.1356
     24 C         -22.9512   -7.4448  -15.6247 C.ar    1  UNL1        0.0207
     25 C         -22.2492   -8.6278  -15.3862 C.ar    1  UNL1       -0.0028
     26 C         -22.1971   -9.6285  -16.3649 C.ar    1  UNL1       -0.0216
     27 C         -22.8976   -9.4525  -17.5663 C.ar    1  UNL1        0.0085
     28 C         -23.6029   -8.2686  -17.8132 C.ar    1  UNL1        0.0762
     29 CL        -24.4521   -8.1162  -19.3472 Cl      1  UNL1       -0.0809
     30 C         -21.4719  -10.9184  -16.0921 C.3     1  UNL1        0.0224
     31 C         -22.3589  -12.1549  -16.0207 C.3     1  UNL1        0.0047
     32 C         -21.7841  -11.5625  -14.7474 C.3     1  UNL1        0.0047
     33 O         -25.0857   -7.3768  -14.0311 O.3     1  UNL1       -0.4513
     34 C         -24.7174   -7.8869  -12.7809 C.ar    1  UNL1        0.1580
     35 C         -24.8029   -9.2662  -12.5674 C.ar    1  UNL1        0.0677
     36 C         -24.4344   -9.8183  -11.3378 C.ar    1  UNL1        0.1398
     37 F         -24.4978  -11.1638  -11.1704 F       1  UNL1       -0.2044
     38 C         -23.9976   -8.9859  -10.2923 C.ar    1  UNL1        0.0175
     39 C         -23.9259   -7.5993  -10.5021 C.ar    1  UNL1        0.0130
     40 C         -24.2938   -7.0459  -11.7336 C.ar    1  UNL1        0.0919
     41 CL        -24.2740   -5.2966  -11.9147 Cl      1  UNL1       -0.0791
     42 C         -23.5564   -9.5699   -8.9774 C.3     1  UNL1        0.1382
     43 C         -22.1489   -9.1610   -8.6865 C.2     1  UNL1        0.3234
     44 O         -21.2345   -9.4353   -9.5105 O.2     1  UNL1       -0.2497
     45 O         -21.8562   -8.5309   -7.4716 O.3     1  UNL1       -0.4215
     46 C         -20.8033   -8.9401   -6.5996 C.3     1  UNL1        0.3207
     47 O         -21.1625   -8.5875   -5.2789 O.3     1  UNL1       -0.3070
     48 C         -20.3147   -9.2323   -4.3386 C.3     1  UNL1        0.2456
     49 C         -18.7969   -9.0794   -4.6748 C.3     1  UNL1        0.1781
     50 O         -18.3004  -10.3141   -5.1283 O.3     1  UNL1       -0.3790
     51 C         -18.5704   -7.9943   -5.7495 C.3     1  UNL1        0.1733
     52 O         -18.8343   -6.7364   -5.1798 O.3     1  UNL1       -0.3793
     53 C         -19.4866   -8.2185   -6.9839 C.3     1  UNL1        0.2106
     54 O         -18.8060   -8.9174   -7.9969 O.3     1  UNL1       -0.3766
     55 H         -17.3099  -10.2658   -5.0780 H       1  UNL1        0.2106
     56 H         -18.3893   -6.0598   -5.7545 H       1  UNL1        0.2105
     57 H         -18.5526   -9.8059   -7.6360 H       1  UNL1        0.2107
     58 C         -20.6070   -8.6644   -2.9803 C.2     1  UNL1        0.3439
     59 O         -20.1885   -7.5162   -2.6722 O.2     1  UNL1       -0.2475
     60 O         -21.3803   -9.3860   -2.0756 O.3     1  UNL1       -0.4785
     61 H         -21.6000   -9.0074   -1.1621 H       1  UNL1        0.2951
@<TRIPOS>BOND
     1    15    16    1
     2    16    17    1
     3    16     1    1
     4     1     2   ar
     5     2     7    1
     6     7     8    2
     7     7     9   am
     8     9    11    1
     9    11    12    1
    10    11    13    1
    11    11    14    1
    12     2     3   ar
    13     3     4   ar
    14     4     5   ar
    15     5    33    1
    16    33    34    1
    17    34    35   ar
    18    35    36   ar
    19    36    37    1
    20    36    38   ar
    21    38    42    1
    22    42    43    1
    23    43    44    2
    24    43    45    1
    25    45    46    1
    26    46    47    1
    27    47    48    1
    28    48    58    1
    29    58    59    2
    30    58    60    1
    31    48    49    1
    32    49    50    1
    33    49    51    1
    34    51    52    1
    35    51    53    1
    36    53    54    1
    37    38    39   ar
    38    39    40   ar
    39    40    41    1
    40     5     6   ar
    41     6    18    1
    42    18    20    1
    43    20    21    2
    44    20    22    2
    45    20    23    1
    46    23    24   ar
    47    24    25   ar
    48    25    26   ar
    49    26    30    1
    50    30    31    1
    51    31    32    1
    52    26    27   ar
    53    27    28   ar
    54    28    29    1
    55     6     1   ar
    56    28    23   ar
    57    40    34   ar
    58    32    30    1
    59    53    46    1
    60     9    10    1
    61    60    61    1
    62    50    55    1
    63    52    56    1
    64    54    57    1
    65    18    19    1
@<TRIPOS>MOLECULE
*****
 61 65 0 0 0
SMALL
GASTEIGER

@<TRIPOS>ATOM
      1 C         -18.7545  -10.6001   -8.7735 C.ar    1  UNL1       -0.0005
      2 C         -18.1520  -11.6822   -9.4812 C.ar    1  UNL1        0.0508
      3 C         -18.8293  -12.2842  -10.5494 C.ar    1  UNL1        0.0074
      4 C         -20.0732  -11.8214  -10.9566 C.ar    1  UNL1        0.0389
      5 C         -20.6739  -10.7390  -10.3040 C.ar    1  UNL1        0.1595
      6 C         -20.0103  -10.1100   -9.2367 C.ar    1  UNL1        0.0953
      7 C         -16.8020  -12.1972   -9.1645 C.2     1  UNL1        0.2455
      8 O         -16.6826  -13.1713   -8.3741 O.2     1  UNL1       -0.2702
      9 N         -15.6402  -11.5618   -9.7301 N.am    1  UNL1       -0.3040
     10 H         -15.8151  -10.7701  -10.3912 H       1  UNL1        0.1496
     11 C         -14.2440  -11.9646   -9.4715 C.3     1  UNL1        0.0572
     12 C         -13.9081  -13.1954  -10.3388 C.3     1  UNL1        0.0196
     13 C         -13.2810  -10.8226   -9.8504 C.3     1  UNL1        0.0196
     14 C         -14.0654  -12.3479   -7.9892 C.3     1  UNL1        0.0196
     15 C         -17.5540  -10.9931   -6.5246 C.3     1  UNL1        0.0047
     16 C         -18.0379   -9.9718   -7.5679 C.3     1  UNL1        0.0239
     17 C         -18.8996   -8.8823   -6.9239 C.3     1  UNL1        0.0047
     18 N         -20.6577   -9.0047   -8.6004 N.pl3   1  UNL1       -0.2123
     19 H         -21.3042   -9.2135   -7.8085 H       1  UNL1        0.1738
     20 S         -20.8405   -7.4836   -9.4117 S.O2    1  UNL1        0.0745
     21 O         -19.8128   -7.3625  -10.5012 O.2     1  UNL1       -0.1499
     22 O         -20.6244   -6.3685   -8.4258 O.2     1  UNL1       -0.1499
     23 C         -22.4644   -7.3705  -10.1023 C.ar    1  UNL1        0.1356
     24 C         -23.4965   -8.1617   -9.5737 C.ar    1  UNL1        0.0207
     25 C         -24.7793   -8.1148  -10.1227 C.ar    1  UNL1       -0.0028
     26 C         -25.0491   -7.2858  -11.2191 C.ar    1  UNL1       -0.0216
     27 C         -24.0321   -6.4663  -11.7283 C.ar    1  UNL1        0.0085
     28 C         -22.7431   -6.5086  -11.1838 C.ar    1  UNL1        0.0762
     29 CL        -21.5160   -5.4566  -11.8803 Cl      1  UNL1       -0.0809
     30 C         -26.4408   -7.2078  -11.7859 C.3     1  UNL1        0.0224
     31 C         -26.7506   -8.2231  -12.8785 C.3     1  UNL1        0.0047
     32 C         -26.5211   -6.7679  -13.2421 C.3     1  UNL1        0.0047
     33 O         -21.9268  -10.2473  -10.7060 O.3     1  UNL1       -0.4513
     34 C         -22.2913   -9.9774  -12.0301 C.ar    1  UNL1        0.1580
     35 C         -21.4290   -9.2111  -12.8204 C.ar    1  UNL1        0.0677
     36 C         -21.7490   -8.9279  -14.1508 C.ar    1  UNL1        0.1398
     37 F         -20.8776   -8.2085  -14.9029 F       1  UNL1       -0.2044
     38 C         -22.9576   -9.3905  -14.7004 C.ar    1  UNL1        0.0175
     39 C         -23.8303  -10.1475  -13.9021 C.ar    1  UNL1        0.0130
     40 C         -23.5098  -10.4325  -12.5701 C.ar    1  UNL1        0.0919
     41 CL        -24.6784  -11.3047  -11.5867 Cl      1  UNL1       -0.0791
     42 C         -23.2957   -9.1303  -16.1435 C.3     1  UNL1        0.1382
     43 C         -22.9231  -10.3151  -16.9744 C.2     1  UNL1        0.3234
     44 O         -21.7611  -10.4006  -17.4568 O.2     1  UNL1       -0.2497
     45 O         -23.8913  -11.2858  -17.2556 O.3     1  UNL1       -0.4215
     46 C         -23.8661  -12.6089  -16.7215 C.3     1  UNL1        0.3207
     47 O         -24.7843  -12.6687  -15.6486 O.3     1  UNL1       -0.3070
     48 C         -25.0341  -14.0167  -15.2758 C.3     1  UNL1        0.2456
     49 C         -23.7282  -14.8504  -15.0765 C.3     1  UNL1        0.1781
     50 O         -23.5947  -15.7567  -16.1431 O.3     1  UNL1       -0.3790
     51 C         -22.4874  -13.9345  -15.0056 C.3     1  UNL1        0.1733
     52 O         -22.5237  -13.2224  -13.7940 O.3     1  UNL1       -0.3793
     53 C         -22.4451  -12.9429  -16.2008 C.3     1  UNL1        0.2106
     54 O         -21.6317  -13.4358  -17.2367 O.3     1  UNL1       -0.3766
     55 H         -22.9283  -16.4380  -15.8645 H       1  UNL1        0.2106
     56 H         -21.6005  -12.9007  -13.6200 H       1  UNL1        0.2105
     57 H         -22.0286  -14.2868  -17.5564 H       1  UNL1        0.2107
     58 C         -25.8449  -14.0091  -14.0127 C.2     1  UNL1        0.3439
     59 O         -25.2739  -14.1206  -12.8947 O.2     1  UNL1       -0.2475
     60 O         -27.2242  -13.8322  -14.0718 O.3     1  UNL1       -0.4785
     61 H         -27.7816  -13.8074  -13.2263 H       1  UNL1        0.2951
@<TRIPOS>BOND
     1    15    16    1
     2    16    17    1
     3    16     1    1
     4     1     2   ar
     5     2     7    1
     6     7     8    2
     7     7     9   am
     8     9    11    1
     9    11    12    1
    10    11    13    1
    11    11    14    1
    12     2     3   ar
    13     3     4   ar
    14     4     5   ar
    15     5    33    1
    16    33    34    1
    17    34    35   ar
    18    35    36   ar
    19    36    37    1
    20    36    38   ar
    21    38    42    1
    22    42    43    1
    23    43    44    2
    24    43    45    1
    25    45    46    1
    26    46    47    1
    27    47    48    1
    28    48    58    1
    29    58    59    2
    30    58    60    1
    31    48    49    1
    32    49    50    1
    33    49    51    1
    34    51    52    1
    35    51    53    1
    36    53    54    1
    37    38    39   ar
    38    39    40   ar
    39    40    41    1
    40     5     6   ar
    41     6    18    1
    42    18    20    1
    43    20    21    2
    44    20    22    2
    45    20    23    1
    46    23    24   ar
    47    24    25   ar
    48    25    26   ar
    49    26    30    1
    50    30    31    1
    51    31    32    1
    52    26    27   ar
    53    27    28   ar
    54    28    29    1
    55     6     1   ar
    56    28    23   ar
    57    40    34   ar
    58    32    30    1
    59    53    46    1
    60     9    10    1
    61    60    61    1
    62    50    55    1
    63    52    56    1
    64    54    57    1
    65    18    19    1
@<TRIPOS>MOLECULE
*****
 61 65 0 0 0
SMALL
GASTEIGER

@<TRIPOS>ATOM
      1 C         -23.6746  -10.0727  -15.6691 C.ar    1  UNL1       -0.0005
      2 C         -24.4327  -11.1857  -15.1986 C.ar    1  UNL1        0.0508
      3 C         -25.4110  -11.0007  -14.2133 C.ar    1  UNL1        0.0074
      4 C         -25.6814   -9.7374  -13.7052 C.ar    1  UNL1        0.0389
      5 C         -24.9783   -8.6213  -14.1725 C.ar    1  UNL1        0.1595
      6 C         -23.9997   -8.7781  -15.1688 C.ar    1  UNL1        0.0953
      7 C         -24.2636  -12.5557  -15.7302 C.2     1  UNL1        0.2455
      8 O         -25.0336  -12.9642  -16.6402 O.2     1  UNL1       -0.2702
      9 N         -23.2501  -13.4187  -15.1813 N.am    1  UNL1       -0.3040
     10 H         -22.6363  -13.0076  -14.4406 H       1  UNL1        0.1496
     11 C         -23.0002  -14.8096  -15.6074 C.3     1  UNL1        0.0572
     12 C         -22.5860  -15.6443  -14.3779 C.3     1  UNL1        0.0196
     13 C         -24.2820  -15.4225  -16.2044 C.3     1  UNL1        0.0196
     14 C         -21.8539  -14.8542  -16.6369 C.3     1  UNL1        0.0196
     15 C         -22.9425  -11.2481  -17.8452 C.3     1  UNL1        0.0047
     16 C         -22.5646  -10.2800  -16.7114 C.3     1  UNL1        0.0239
     17 C         -21.2516  -10.6926  -16.0403 C.3     1  UNL1        0.0047
     18 N         -23.3076   -7.6109  -15.6211 N.pl3   1  UNL1       -0.2123
     19 H         -22.8924   -6.9842  -14.8976 H       1  UNL1        0.1738
     20 S         -23.6082   -6.9418  -17.1918 S.O2    1  UNL1        0.0745
     21 O         -23.9378   -8.0439  -18.1586 O.2     1  UNL1       -0.1499
     22 O         -22.3697   -6.2381  -17.6746 O.2     1  UNL1       -0.1499
     23 C         -24.9542   -5.7985  -17.1025 C.ar    1  UNL1        0.1356
     24 C         -25.4215   -5.3784  -15.8472 C.ar    1  UNL1        0.0207
     25 C         -26.5039   -4.5019  -15.7495 C.ar    1  UNL1       -0.0028
     26 C         -27.1469   -4.0410  -16.9055 C.ar    1  UNL1       -0.0216
     27 C         -26.6622   -4.4281  -18.1626 C.ar    1  UNL1        0.0085
     28 C         -25.5780   -5.3074  -18.2686 C.ar    1  UNL1        0.0762
     29 CL        -25.0301   -5.7546  -19.8802 Cl      1  UNL1       -0.0809
     30 C         -28.2890   -3.0672  -16.8002 C.3     1  UNL1        0.0224
     31 C         -29.6770   -3.6943  -16.8317 C.3     1  UNL1        0.0047
     32 C         -29.1556   -2.9512  -18.0477 C.3     1  UNL1        0.0047
     33 O         -25.2428   -7.3325  -13.6804 O.3     1  UNL1       -0.4513
     34 C         -24.3607   -6.5807  -12.8958 C.ar    1  UNL1        0.1580
     35 C         -23.0059   -6.9270  -12.8904 C.ar    1  UNL1        0.0677
     36 C         -22.0895   -6.1959  -12.1301 C.ar    1  UNL1        0.1398
     37 F         -20.7759   -6.5357  -12.1694 F       1  UNL1       -0.2044
     38 C         -22.5275   -5.1181  -11.3405 C.ar    1  UNL1        0.0175
     39 C         -23.8903   -4.7799  -11.3346 C.ar    1  UNL1        0.0130
     40 C         -24.8084   -5.5109  -12.0967 C.ar    1  UNL1        0.0919
     41 CL        -26.5159   -5.1052  -11.9825 Cl      1  UNL1       -0.0791
     42 C         -21.5463   -4.2948  -10.5505 C.3     1  UNL1        0.1382
     43 C         -21.3782   -4.8769   -9.1845 C.2     1  UNL1        0.3234
     44 O         -21.9690   -4.3500   -8.2028 O.2     1  UNL1       -0.2497
     45 O         -20.5168   -5.9653   -9.0054 O.3     1  UNL1       -0.4215
     46 C         -20.9179   -7.3267   -9.1538 C.3     1  UNL1        0.3207
     47 O         -22.3304   -7.3694   -9.1834 O.3     1  UNL1       -0.3070
     48 C         -22.7852   -8.6380   -9.6331 C.3     1  UNL1        0.2456
     49 C         -22.1024   -9.8325   -8.8933 C.3     1  UNL1        0.1781
     50 O         -21.2063  -10.4653   -9.7725 O.3     1  UNL1       -0.3790
     51 C         -21.3517   -9.3518   -7.6327 C.3     1  UNL1        0.1733
     52 O         -22.2975   -8.9608   -6.6688 O.3     1  UNL1       -0.3793
     53 C         -20.4036   -8.1641   -7.9553 C.3     1  UNL1        0.2106
     54 O         -19.0905   -8.6140   -8.1815 O.3     1  UNL1       -0.3766
     55 H         -20.9948  -11.3539   -9.3830 H       1  UNL1        0.2106
     56 H         -21.8341   -8.9658   -5.7906 H       1  UNL1        0.2105
     57 H         -19.1070   -9.2176   -8.9685 H       1  UNL1        0.2107
     58 C         -24.2737   -8.6929   -9.4473 C.2     1  UNL1        0.3439
     59 O         -25.0397   -8.2739  -10.3563 O.2     1  UNL1       -0.2475
     60 O         -24.8109   -9.2495   -8.2903 O.3     1  UNL1       -0.4785
     61 H         -25.8136   -9.3089   -8.1595 H       1  UNL1        0.2951
@<TRIPOS>BOND
     1    15    16    1
     2    16    17    1
     3    16     1    1
     4     1     2   ar
     5     2     7    1
     6     7     8    2
     7     7     9   am
     8     9    11    1
     9    11    12    1
    10    11    13    1
    11    11    14    1
    12     2     3   ar
    13     3     4   ar
    14     4     5   ar
    15     5    33    1
    16    33    34    1
    17    34    35   ar
    18    35    36   ar
    19    36    37    1
    20    36    38   ar
    21    38    42    1
    22    42    43    1
    23    43    44    2
    24    43    45    1
    25    45    46    1
    26    46    47    1
    27    47    48    1
    28    48    58    1
    29    58    59    2
    30    58    60    1
    31    48    49    1
    32    49    50    1
    33    49    51    1
    34    51    52    1
    35    51    53    1
    36    53    54    1
    37    38    39   ar
    38    39    40   ar
    39    40    41    1
    40     5     6   ar
    41     6    18    1
    42    18    20    1
    43    20    21    2
    44    20    22    2
    45    20    23    1
    46    23    24   ar
    47    24    25   ar
    48    25    26   ar
    49    26    30    1
    50    30    31    1
    51    31    32    1
    52    26    27   ar
    53    27    28   ar
    54    28    29    1
    55     6     1   ar
    56    28    23   ar
    57    40    34   ar
    58    32    30    1
    59    53    46    1
    60     9    10    1
    61    60    61    1
    62    50    55    1
    63    52    56    1
    64    54    57    1
    65    18    19    1
@<TRIPOS>MOLECULE
*****
 61 65 0 0 0
SMALL
GASTEIGER

@<TRIPOS>ATOM
      1 C         -21.9229   -8.2814   -9.1099 C.ar    1  UNL1       -0.0005
      2 C         -22.2402   -9.0014   -7.9200 C.ar    1  UNL1        0.0508
      3 C         -23.3424   -9.8655   -7.8968 C.ar    1  UNL1        0.0074
      4 C         -24.1194  -10.0608   -9.0306 C.ar    1  UNL1        0.0389
      5 C         -23.8118   -9.3951  -10.2225 C.ar    1  UNL1        0.1595
      6 C         -22.7044   -8.5314  -10.2755 C.ar    1  UNL1        0.0953
      7 C         -21.4300   -8.9109   -6.6857 C.2     1  UNL1        0.2455
      8 O         -22.0110   -8.8166   -5.5715 O.2     1  UNL1       -0.2702
      9 N         -19.9927   -8.8947   -6.7698 N.am    1  UNL1       -0.3040
     10 H         -19.5787   -8.9939   -7.7255 H       1  UNL1        0.1496
     11 C         -19.0778   -8.7825   -5.6171 C.3     1  UNL1        0.0572
     12 C         -18.4028   -7.3957   -5.6453 C.3     1  UNL1        0.0196
     13 C         -19.8636   -8.9165   -4.2981 C.3     1  UNL1        0.0196
     14 C         -17.9805   -9.8619   -5.7002 C.3     1  UNL1        0.0196
     15 C         -21.0660   -5.9479   -9.7978 C.3     1  UNL1        0.0047
     16 C         -20.7465   -7.2929   -9.1236 C.3     1  UNL1        0.0239
     17 C         -19.4958   -7.9366   -9.7284 C.3     1  UNL1        0.0047
     18 N         -22.4230   -7.8744  -11.5144 N.pl3   1  UNL1       -0.2123
     19 H         -23.0903   -7.1390  -11.8344 H       1  UNL1        0.1738
     20 S         -21.3966   -8.6057  -12.7049 S.O2    1  UNL1        0.0745
     21 O         -20.1289   -9.0857  -12.0565 O.2     1  UNL1       -0.1499
     22 O         -21.0413   -7.5816  -13.7475 O.2     1  UNL1       -0.1499
     23 C         -22.2380   -9.9659  -13.4592 C.ar    1  UNL1        0.1356
     24 C         -22.9689   -9.7574  -14.6394 C.ar    1  UNL1        0.0207
     25 C         -23.6686  -10.8078  -15.2361 C.ar    1  UNL1       -0.0028
     26 C         -23.6610  -12.0825  -14.6553 C.ar    1  UNL1       -0.0216
     27 C         -22.9036  -12.3057  -13.4970 C.ar    1  UNL1        0.0085
     28 C         -22.2001  -11.2572  -12.8923 C.ar    1  UNL1        0.0762
     29 CL        -21.2776  -11.6114  -11.4360 Cl      1  UNL1       -0.0809
     30 C         -24.3844  -13.2224  -15.3196 C.3     1  UNL1        0.0224
     31 C         -25.5127  -13.8358  -14.5002 C.3     1  UNL1        0.0047
     32 C         -24.1992  -14.5800  -14.6538 C.3     1  UNL1        0.0047
     33 O         -24.5776   -9.5858  -11.3845 O.3     1  UNL1       -0.4513
     34 C         -25.4028   -8.6159  -11.9652 C.ar    1  UNL1        0.1580
     35 C         -25.0196   -8.0529  -13.1865 C.ar    1  UNL1        0.0677
     36 C         -25.8200   -7.0897  -13.8062 C.ar    1  UNL1        0.1398
     37 F         -25.4383   -6.5842  -15.0067 F       1  UNL1       -0.2044
     38 C         -27.0087   -6.6577  -13.1921 C.ar    1  UNL1        0.0175
     39 C         -27.3858   -7.2125  -11.9585 C.ar    1  UNL1        0.0130
     40 C         -26.5853   -8.1780  -11.3379 C.ar    1  UNL1        0.0919
     41 CL        -27.0545   -8.7731   -9.7507 Cl      1  UNL1       -0.0791
     42 C         -27.9025   -5.6532  -13.8680 C.3     1  UNL1        0.1382
     43 C         -29.0145   -6.3573  -14.5754 C.2     1  UNL1        0.3234
     44 O         -29.0855   -7.6157  -14.5332 O.2     1  UNL1       -0.2497
     45 O         -29.9292   -5.6107  -15.3269 O.3     1  UNL1       -0.4215
     46 C         -30.4578   -4.3524  -14.9099 C.3     1  UNL1        0.3207
     47 O         -31.7594   -4.5674  -14.4026 O.3     1  UNL1       -0.3070
     48 C         -32.2180   -3.4237  -13.6954 C.3     1  UNL1        0.2456
     49 C         -32.0296   -2.0931  -14.4918 C.3     1  UNL1        0.1781
     50 O         -30.9917   -1.3491  -13.9039 O.3     1  UNL1       -0.3790
     51 C         -31.7024   -2.3724  -15.9745 C.3     1  UNL1        0.1733
     52 O         -32.8531   -2.8840  -16.5996 O.3     1  UNL1       -0.3793
     53 C         -30.5304   -3.3823  -16.1165 C.3     1  UNL1        0.2106
     54 O         -29.3072   -2.7130  -16.2992 O.3     1  UNL1       -0.3766
     55 H         -31.0692   -0.4202  -14.2461 H       1  UNL1        0.2106
     56 H         -32.7326   -2.7554  -17.5768 H       1  UNL1        0.2105
     57 H         -29.1403   -2.1587  -15.4938 H       1  UNL1        0.2107
     58 C         -33.6670   -3.6307  -13.3627 C.2     1  UNL1        0.3439
     59 O         -34.5593   -3.2830  -14.1820 O.2     1  UNL1       -0.2475
     60 O         -34.0257   -4.2495  -12.1686 O.3     1  UNL1       -0.4785
     61 H         -34.9989   -4.4114  -11.9393 H       1  UNL1        0.2951
@<TRIPOS>BOND
     1    15    16    1
     2    16    17    1
     3    16     1    1
     4     1     2   ar
     5     2     7    1
     6     7     8    2
     7     7     9   am
     8     9    11    1
     9    11    12    1
    10    11    13    1
    11    11    14    1
    12     2     3   ar
    13     3     4   ar
    14     4     5   ar
    15     5    33    1
    16    33    34    1
    17    34    35   ar
    18    35    36   ar
    19    36    37    1
    20    36    38   ar
    21    38    42    1
    22    42    43    1
    23    43    44    2
    24    43    45    1
    25    45    46    1
    26    46    47    1
    27    47    48    1
    28    48    58    1
    29    58    59    2
    30    58    60    1
    31    48    49    1
    32    49    50    1
    33    49    51    1
    34    51    52    1
    35    51    53    1
    36    53    54    1
    37    38    39   ar
    38    39    40   ar
    39    40    41    1
    40     5     6   ar
    41     6    18    1
    42    18    20    1
    43    20    21    2
    44    20    22    2
    45    20    23    1
    46    23    24   ar
    47    24    25   ar
    48    25    26   ar
    49    26    30    1
    50    30    31    1
    51    31    32    1
    52    26    27   ar
    53    27    28   ar
    54    28    29    1
    55     6     1   ar
    56    28    23   ar
    57    40    34   ar
    58    32    30    1
    59    53    46    1
    60     9    10    1
    61    60    61    1
    62    50    55    1
    63    52    56    1
    64    54    57    1
    65    18    19    1
