@<TRIPOS>MOLECULE
*****
 37 41 0 0 0
SMALL
GASTEIGER

@<TRIPOS>ATOM
      1 C          49.7301   12.4428  -23.9624 C.2     1  UNL1        0.2490
      2 O          49.6904   11.8979  -22.8250 O.2     1  UNL1       -0.2699
      3 N          48.7853   13.4912  -24.2696 N.am    1  UNL1       -0.2751
      4 C          47.4533   13.4270  -23.6467 C.3     1  UNL1        0.0954
      5 C          46.4696   14.4372  -24.2621 C.3     1  UNL1        0.0399
      6 C          46.7179   14.6493  -25.7725 C.3     1  UNL1        0.0645
      7 C          46.4987   13.2859  -26.5276 C.3     1  UNL1        0.0477
      8 C          46.3144   13.5035  -27.9978 C.ar    1  UNL1        0.0220
      9 C          46.3412   12.6078  -29.0419 C.ar    1  UNL1        0.0923
     10 N          45.8644   13.2384  -30.1469 N.ar    1  UNL1       -0.2534
     11 N          45.4940   14.4743  -29.8228 N.ar    1  UNL1       -0.1651
     12 C          45.7722   14.6366  -28.5182 C.ar    1  UNL1        0.1515
     13 C          45.4307   15.7645  -27.6651 C.2     1  UNL1        0.2650
     14 O          44.8364   16.7760  -28.1228 O.2     1  UNL1       -0.2684
     15 N          45.7639   15.6703  -26.2708 N.am    1  UNL1       -0.3023
     16 C          48.1656   15.1884  -25.9981 C.3     1  UNL1        0.0408
     17 C          49.2212   14.7209  -24.9575 C.3     1  UNL1        0.1064
     18 H          45.4706   16.4524  -25.6419 H       1  UNL1        0.1497
     19 C          51.0072    9.6856  -27.8960 C.ar    1  UNL1        0.2248
     20 N          51.9594    9.2897  -28.7871 N.ar    1  UNL1       -0.2101
     21 C          53.2393    9.7414  -28.7266 C.ar    1  UNL1        0.1021
     22 C          53.6181   10.6477  -27.7358 C.ar    1  UNL1        0.0209
     23 C          52.6691   11.0817  -26.8020 C.ar    1  UNL1        0.0060
     24 C          53.0159   12.0027  -25.8044 C.ar    1  UNL1        0.0003
     25 C          52.0568   12.4432  -24.8886 C.ar    1  UNL1        0.0045
     26 C          50.7353   11.9680  -24.9491 C.ar    1  UNL1        0.0537
     27 C          50.3979   11.0179  -25.9292 C.ar    1  UNL1        0.0092
     28 C          51.3467   10.5886  -26.8709 C.ar    1  UNL1        0.0534
     29 C          49.3076    8.2250  -28.9575 C.3     1  UNL1        0.2542
     30 O          49.6949    9.2091  -28.0071 O.3     1  UNL1       -0.4561
     31 C          45.6044   12.6512  -31.4778 C.3     1  UNL1        0.0867
     32 C          45.9598   13.6323  -32.6172 C.3     1  UNL1        0.0244
     33 C          46.4513   11.3762  -31.6325 C.3     1  UNL1        0.0244
     34 C          44.1100   12.2913  -31.5896 C.3     1  UNL1        0.0244
     35 C          49.5607   15.8202  -23.9295 C.3     1  UNL1        0.1569
     36 O          50.9024   15.7277  -23.5317 O.3     1  UNL1       -0.3802
     37 H          51.4485   16.0602  -24.2911 H       1  UNL1        0.2105
@<TRIPOS>BOND
     1    29    30    1
     2    30    19    1
     3    19    20   ar
     4    20    21   ar
     5    21    22   ar
     6    22    23   ar
     7    23    24   ar
     8    24    25   ar
     9    25    26   ar
    10    26     1    1
    11     1     2    2
    12     1     3   am
    13     3     4    1
    14     4     5    1
    15     5     6    1
    16     6     7    1
    17     7     8    1
    18     8     9   ar
    19     9    10   ar
    20    10    31    1
    21    31    32    1
    22    31    33    1
    23    31    34    1
    24    10    11   ar
    25    11    12   ar
    26    12    13    1
    27    13    14    2
    28    13    15   am
    29     6    16    1
    30    16    17    1
    31    17    35    1
    32    35    36    1
    33    26    27   ar
    34    27    28   ar
    35    28    19   ar
    36    28    23   ar
    37    17     3    1
    38    15     6    1
    39    12     8   ar
    40    15    18    1
    41    36    37    1
@<TRIPOS>MOLECULE
*****
 37 41 0 0 0
SMALL
GASTEIGER

@<TRIPOS>ATOM
      1 C          49.1786    8.4385  -27.9837 C.2     1  UNL1        0.2490
      2 O          48.9451    7.1992  -27.9409 O.2     1  UNL1       -0.2699
      3 N          50.2361    8.9802  -27.1625 N.am    1  UNL1       -0.2751
      4 C          50.5117    8.3302  -25.8710 C.3     1  UNL1        0.0954
      5 C          51.4611    9.1592  -24.9888 C.3     1  UNL1        0.0399
      6 C          51.2540   10.6793  -25.1748 C.3     1  UNL1        0.0645
      7 C          49.7886   11.0568  -24.7426 C.3     1  UNL1        0.0477
      8 C          49.6558   12.5292  -24.5031 C.ar    1  UNL1        0.0220
      9 C          48.5331   13.3110  -24.3568 C.ar    1  UNL1        0.0923
     10 N          48.9274   14.5286  -23.9006 N.ar    1  UNL1       -0.2534
     11 N          50.2436   14.5213  -23.7082 N.ar    1  UNL1       -0.1651
     12 C          50.6865   13.3081  -24.0791 C.ar    1  UNL1        0.1515
     13 C          52.0271   12.7625  -23.9320 C.2     1  UNL1        0.2650
     14 O          52.9639   13.4486  -23.4447 O.2     1  UNL1       -0.2684
     15 N          52.2389   11.3986  -24.3301 N.am    1  UNL1       -0.3023
     16 C          51.5171   11.0688  -26.6636 C.3     1  UNL1        0.0408
     17 C          51.1842    9.9686  -27.7098 C.3     1  UNL1        0.1064
     18 H          53.1856   10.9828  -24.1743 H       1  UNL1        0.1497
     19 C          46.4323   12.5072  -28.7643 C.ar    1  UNL1        0.2248
     20 N          45.6817   13.2667  -29.6112 N.ar    1  UNL1       -0.2101
     21 C          45.4385   12.8935  -30.8947 C.ar    1  UNL1        0.1021
     22 C          45.9688   11.7027  -31.3922 C.ar    1  UNL1        0.0209
     23 C          46.7478   10.8944  -30.5552 C.ar    1  UNL1        0.0060
     24 C          47.3061    9.7003  -31.0307 C.ar    1  UNL1        0.0003
     25 C          48.0968    8.9099  -30.1925 C.ar    1  UNL1        0.0045
     26 C          48.3402    9.2951  -28.8627 C.ar    1  UNL1        0.0537
     27 C          47.7509   10.4758  -28.3775 C.ar    1  UNL1        0.0092
     28 C          46.9766   11.2911  -29.2185 C.ar    1  UNL1        0.0534
     29 C          46.4600   14.2802  -27.0310 C.3     1  UNL1        0.2542
     30 O          46.6734   12.9397  -27.4543 O.3     1  UNL1       -0.4561
     31 C          48.0681   15.6595  -23.4928 C.3     1  UNL1        0.0867
     32 C          48.2507   16.8822  -24.4194 C.3     1  UNL1        0.0244
     33 C          46.5977   15.2094  -23.5416 C.3     1  UNL1        0.0244
     34 C          48.4292   16.0770  -22.0539 C.3     1  UNL1        0.0244
     35 C          52.4481    9.2629  -28.2436 C.3     1  UNL1        0.1569
     36 O          53.3552   10.1986  -28.7617 O.3     1  UNL1       -0.3802
     37 H          53.7613   10.6629  -27.9838 H       1  UNL1        0.2105
@<TRIPOS>BOND
     1    29    30    1
     2    30    19    1
     3    19    20   ar
     4    20    21   ar
     5    21    22   ar
     6    22    23   ar
     7    23    24   ar
     8    24    25   ar
     9    25    26   ar
    10    26     1    1
    11     1     2    2
    12     1     3   am
    13     3     4    1
    14     4     5    1
    15     5     6    1
    16     6     7    1
    17     7     8    1
    18     8     9   ar
    19     9    10   ar
    20    10    31    1
    21    31    32    1
    22    31    33    1
    23    31    34    1
    24    10    11   ar
    25    11    12   ar
    26    12    13    1
    27    13    14    2
    28    13    15   am
    29     6    16    1
    30    16    17    1
    31    17    35    1
    32    35    36    1
    33    26    27   ar
    34    27    28   ar
    35    28    19   ar
    36    28    23   ar
    37    17     3    1
    38    15     6    1
    39    12     8   ar
    40    15    18    1
    41    36    37    1
@<TRIPOS>MOLECULE
*****
 37 41 0 0 0
SMALL
GASTEIGER

@<TRIPOS>ATOM
      1 C          47.5644   14.5909  -25.5373 C.2     1  UNL1        0.2490
      2 O          47.5141   15.7723  -25.0968 O.2     1  UNL1       -0.2699
      3 N          48.2318   13.5789  -24.7520 N.am    1  UNL1       -0.2751
      4 C          49.3724   13.9906  -23.9177 C.3     1  UNL1        0.0954
      5 C          50.1505   12.7885  -23.3551 C.3     1  UNL1        0.0399
      6 C          50.1721   11.5950  -24.3364 C.3     1  UNL1        0.0645
      7 C          50.9041   12.0290  -25.6603 C.3     1  UNL1        0.0477
      8 C          51.3226   10.8370  -26.4647 C.ar    1  UNL1        0.0220
      9 C          51.7564   10.7482  -27.7674 C.ar    1  UNL1        0.0923
     10 N          52.2623    9.5014  -27.9561 N.ar    1  UNL1       -0.2534
     11 N          52.2083    8.8266  -26.8110 N.ar    1  UNL1       -0.1651
     12 C          51.6327    9.6366  -25.9064 C.ar    1  UNL1        0.1515
     13 C          51.4714    9.4099  -24.4784 C.2     1  UNL1        0.2650
     14 O          51.8504    8.3374  -23.9383 O.2     1  UNL1       -0.2684
     15 N          50.8952   10.4685  -23.6966 N.am    1  UNL1       -0.3023
     16 C          48.7117   11.1280  -24.6307 C.3     1  UNL1        0.0408
     17 C          47.6309   12.2436  -24.5758 C.3     1  UNL1        0.1064
     18 H          50.8286   10.3345  -22.6618 H       1  UNL1        0.1497
     19 C          46.6123   11.4780  -29.2936 C.ar    1  UNL1        0.2248
     20 N          46.0222   11.2472  -30.5002 N.ar    1  UNL1       -0.2101
     21 C          45.3302   12.2103  -31.1632 C.ar    1  UNL1        0.1021
     22 C          45.1954   13.4843  -30.6108 C.ar    1  UNL1        0.0209
     23 C          45.7847   13.7621  -29.3712 C.ar    1  UNL1        0.0060
     24 C          45.6540   15.0278  -28.7842 C.ar    1  UNL1        0.0003
     25 C          46.2306   15.2892  -27.5385 C.ar    1  UNL1        0.0045
     26 C          46.9524   14.2928  -26.8587 C.ar    1  UNL1        0.0537
     27 C          47.1116   13.0343  -27.4650 C.ar    1  UNL1        0.0092
     28 C          46.5141   12.7525  -28.7040 C.ar    1  UNL1        0.0534
     29 C          47.9119    9.3664  -29.3238 C.3     1  UNL1        0.2542
     30 O          47.3003   10.4504  -28.6363 O.3     1  UNL1       -0.4561
     31 C          52.9413    8.9772  -29.1593 C.3     1  UNL1        0.0867
     32 C          54.1731    8.1187  -28.7949 C.3     1  UNL1        0.0244
     33 C          51.9470    8.1138  -29.9548 C.3     1  UNL1        0.0244
     34 C          53.4084   10.1580  -30.0326 C.3     1  UNL1        0.0244
     35 C          46.8009   12.1949  -23.2762 C.3     1  UNL1        0.1569
     36 O          45.4328   12.0904  -23.5668 O.3     1  UNL1       -0.3802
     37 H          45.2776   11.1604  -23.8775 H       1  UNL1        0.2105
@<TRIPOS>BOND
     1    29    30    1
     2    30    19    1
     3    19    20   ar
     4    20    21   ar
     5    21    22   ar
     6    22    23   ar
     7    23    24   ar
     8    24    25   ar
     9    25    26   ar
    10    26     1    1
    11     1     2    2
    12     1     3   am
    13     3     4    1
    14     4     5    1
    15     5     6    1
    16     6     7    1
    17     7     8    1
    18     8     9   ar
    19     9    10   ar
    20    10    31    1
    21    31    32    1
    22    31    33    1
    23    31    34    1
    24    10    11   ar
    25    11    12   ar
    26    12    13    1
    27    13    14    2
    28    13    15   am
    29     6    16    1
    30    16    17    1
    31    17    35    1
    32    35    36    1
    33    26    27   ar
    34    27    28   ar
    35    28    19   ar
    36    28    23   ar
    37    17     3    1
    38    15     6    1
    39    12     8   ar
    40    15    18    1
    41    36    37    1
@<TRIPOS>MOLECULE
*****
 37 41 0 0 0
SMALL
GASTEIGER

@<TRIPOS>ATOM
      1 C          46.1154   15.4959  -26.2931 C.2     1  UNL1        0.2490
      2 O          45.0564   16.0709  -26.6672 O.2     1  UNL1       -0.2699
      3 N          46.0431   14.1318  -25.8240 N.am    1  UNL1       -0.2751
      4 C          44.8144   13.6999  -25.1382 C.3     1  UNL1        0.0954
      5 C          44.9739   12.3288  -24.4589 C.3     1  UNL1        0.0399
      6 C          46.4024   12.1101  -23.9115 C.3     1  UNL1        0.0645
      7 C          46.7064   13.1971  -22.8148 C.3     1  UNL1        0.0477
      8 C          47.8759   12.8006  -21.9674 C.ar    1  UNL1        0.0220
      9 C          48.6240   13.5382  -21.0789 C.ar    1  UNL1        0.0923
     10 N          49.3992   12.6776  -20.3688 N.ar    1  UNL1       -0.2534
     11 N          49.1278   11.4301  -20.7425 N.ar    1  UNL1       -0.1651
     12 C          48.2059   11.5055  -21.7172 C.ar    1  UNL1        0.1515
     13 C          47.4895   10.4124  -22.3563 C.2     1  UNL1        0.2650
     14 O          47.7208    9.2120  -22.0542 O.2     1  UNL1       -0.2684
     15 N          46.4810   10.7511  -23.3218 N.am    1  UNL1       -0.3023
     16 C          47.4332   12.1906  -25.0813 C.3     1  UNL1        0.0408
     17 C          47.0402   13.1333  -26.2529 C.3     1  UNL1        0.1064
     18 H          45.9234    9.9732  -23.7429 H       1  UNL1        0.1497
     19 C          50.5754   16.6105  -24.4029 C.ar    1  UNL1        0.2248
     20 N          51.7373   17.3180  -24.4863 N.ar    1  UNL1       -0.2101
     21 C          51.9710   18.2102  -25.4839 C.ar    1  UNL1        0.1021
     22 C          51.0117   18.4235  -26.4742 C.ar    1  UNL1        0.0209
     23 C          49.8050   17.7147  -26.4265 C.ar    1  UNL1        0.0060
     24 C          48.8286   17.8966  -27.4151 C.ar    1  UNL1        0.0003
     25 C          47.6353   17.1710  -27.3681 C.ar    1  UNL1        0.0045
     26 C          47.3933   16.2542  -26.3303 C.ar    1  UNL1        0.0537
     27 C          48.3595   16.0986  -25.3207 C.ar    1  UNL1        0.0092
     28 C          49.5731   16.8027  -25.3724 C.ar    1  UNL1        0.0534
     29 C          51.0397   14.4258  -23.3257 C.3     1  UNL1        0.2542
     30 O          50.3842   15.6869  -23.3676 O.3     1  UNL1       -0.4561
     31 C          50.2860   12.9938  -19.2298 C.3     1  UNL1        0.0867
     32 C          51.2736   14.1321  -19.5703 C.3     1  UNL1        0.0244
     33 C          49.4221   13.4223  -18.0311 C.3     1  UNL1        0.0244
     34 C          51.0967   11.7378  -18.8549 C.3     1  UNL1        0.0244
     35 C          46.5291   12.3584  -27.4853 C.3     1  UNL1        0.1569
     36 O          46.3809   13.2180  -28.5834 O.3     1  UNL1       -0.3802
     37 H          47.2958   13.4265  -28.9076 H       1  UNL1        0.2105
@<TRIPOS>BOND
     1    29    30    1
     2    30    19    1
     3    19    20   ar
     4    20    21   ar
     5    21    22   ar
     6    22    23   ar
     7    23    24   ar
     8    24    25   ar
     9    25    26   ar
    10    26     1    1
    11     1     2    2
    12     1     3   am
    13     3     4    1
    14     4     5    1
    15     5     6    1
    16     6     7    1
    17     7     8    1
    18     8     9   ar
    19     9    10   ar
    20    10    31    1
    21    31    32    1
    22    31    33    1
    23    31    34    1
    24    10    11   ar
    25    11    12   ar
    26    12    13    1
    27    13    14    2
    28    13    15   am
    29     6    16    1
    30    16    17    1
    31    17    35    1
    32    35    36    1
    33    26    27   ar
    34    27    28   ar
    35    28    19   ar
    36    28    23   ar
    37    17     3    1
    38    15     6    1
    39    12     8   ar
    40    15    18    1
    41    36    37    1
@<TRIPOS>MOLECULE
*****
 37 41 0 0 0
SMALL
GASTEIGER

@<TRIPOS>ATOM
      1 C          48.1209   15.1101  -22.9346 C.2     1  UNL1        0.2490
      2 O          48.3552   16.0951  -22.1815 O.2     1  UNL1       -0.2699
      3 N          48.4815   13.7852  -22.4867 N.am    1  UNL1       -0.2751
      4 C          49.6581   13.6461  -21.6133 C.3     1  UNL1        0.0954
      5 C          50.0858   12.1789  -21.4361 C.3     1  UNL1        0.0399
      6 C          49.8403   11.3403  -22.7106 C.3     1  UNL1        0.0645
      7 C          50.7059   11.9255  -23.8876 C.3     1  UNL1        0.0477
      8 C          50.8380   10.9388  -25.0065 C.ar    1  UNL1        0.0220
      9 C          51.2823   11.1090  -26.2976 C.ar    1  UNL1        0.0923
     10 N          51.4627    9.8782  -26.8439 N.ar    1  UNL1       -0.2534
     11 N          51.1982    8.9481  -25.9304 N.ar    1  UNL1       -0.1651
     12 C          50.8139    9.5927  -24.8158 C.ar    1  UNL1        0.1515
     13 C          50.5487    9.0264  -23.5022 C.2     1  UNL1        0.2650
     14 O          50.6241    7.7865  -23.2958 O.2     1  UNL1       -0.2684
     15 N          50.2311    9.9357  -22.4363 N.am    1  UNL1       -0.3023
     16 C          48.3210   11.3589  -23.0694 C.3     1  UNL1        0.0408
     17 C          47.5563   12.6509  -22.6668 C.3     1  UNL1        0.1064
     18 H          50.0952    9.5405  -21.4778 H       1  UNL1        0.1497
     19 C          46.6333   13.5301  -27.4063 C.ar    1  UNL1        0.2248
     20 N          46.0465   13.8001  -28.6064 N.ar    1  UNL1       -0.2101
     21 C          45.6040   15.0427  -28.9321 C.ar    1  UNL1        0.1021
     22 C          45.7334   16.0945  -28.0246 C.ar    1  UNL1        0.0209
     23 C          46.3286   15.8585  -26.7791 C.ar    1  UNL1        0.0060
     24 C          46.4590   16.8914  -25.8412 C.ar    1  UNL1        0.0003
     25 C          47.0380   16.6412  -24.5943 C.ar    1  UNL1        0.0045
     26 C          47.5019   15.3562  -24.2633 C.ar    1  UNL1        0.0537
     27 C          47.4014   14.3295  -25.2187 C.ar    1  UNL1        0.0092
     28 C          46.7973   14.5632  -26.4644 C.ar    1  UNL1        0.0534
     29 C          46.7733   11.1116  -27.9356 C.3     1  UNL1        0.2542
     30 O          47.0579   12.2300  -27.1049 O.3     1  UNL1       -0.4561
     31 C          52.0303    9.5553  -28.1696 C.3     1  UNL1        0.0867
     32 C          53.1068    8.4508  -28.0792 C.3     1  UNL1        0.0244
     33 C          50.8965    9.0751  -29.0921 C.3     1  UNL1        0.0244
     34 C          52.6759   10.8210  -28.7663 C.3     1  UNL1        0.0244
     35 C          46.6944   12.4543  -21.4023 C.3     1  UNL1        0.1569
     36 O          46.1484   11.1628  -21.3721 O.3     1  UNL1       -0.3802
     37 H          46.8909   10.5447  -21.1436 H       1  UNL1        0.2105
@<TRIPOS>BOND
     1    29    30    1
     2    30    19    1
     3    19    20   ar
     4    20    21   ar
     5    21    22   ar
     6    22    23   ar
     7    23    24   ar
     8    24    25   ar
     9    25    26   ar
    10    26     1    1
    11     1     2    2
    12     1     3   am
    13     3     4    1
    14     4     5    1
    15     5     6    1
    16     6     7    1
    17     7     8    1
    18     8     9   ar
    19     9    10   ar
    20    10    31    1
    21    31    32    1
    22    31    33    1
    23    31    34    1
    24    10    11   ar
    25    11    12   ar
    26    12    13    1
    27    13    14    2
    28    13    15   am
    29     6    16    1
    30    16    17    1
    31    17    35    1
    32    35    36    1
    33    26    27   ar
    34    27    28   ar
    35    28    19   ar
    36    28    23   ar
    37    17     3    1
    38    15     6    1
    39    12     8   ar
    40    15    18    1
    41    36    37    1
@<TRIPOS>MOLECULE
*****
 37 41 0 0 0
SMALL
GASTEIGER

@<TRIPOS>ATOM
      1 C          50.1580   15.8413  -24.3909 C.2     1  UNL1        0.2490
      2 O          50.9276   16.8093  -24.1403 O.2     1  UNL1       -0.2699
      3 N          50.3598   14.5894  -23.6994 N.am    1  UNL1       -0.2751
      4 C          51.7337   14.2217  -23.3203 C.3     1  UNL1        0.0954
      5 C          51.8389   12.7629  -22.8429 C.3     1  UNL1        0.0399
      6 C          50.8606   11.8305  -23.5922 C.3     1  UNL1        0.0645
      7 C          51.2178   11.8325  -25.1248 C.3     1  UNL1        0.0477
      8 C          50.6004   10.6628  -25.8274 C.ar    1  UNL1        0.0220
      9 C          50.4460   10.4098  -27.1711 C.ar    1  UNL1        0.0923
     10 N          50.0693    9.1120  -27.3121 N.ar    1  UNL1       -0.2534
     11 N          50.0322    8.5320  -26.1155 N.ar    1  UNL1       -0.1651
     12 C          50.3500    9.4758  -25.2134 C.ar    1  UNL1        0.1515
     13 C          50.5765    9.3077  -23.7861 C.2     1  UNL1        0.2650
     14 O          50.4439    8.1861  -23.2292 O.2     1  UNL1       -0.2684
     15 N          50.9921   10.4610  -23.0370 N.am    1  UNL1       -0.3023
     16 C          49.3929   12.3088  -23.3582 C.3     1  UNL1        0.0408
     17 C          49.2152   13.8389  -23.1499 C.3     1  UNL1        0.1064
     18 H          51.2113   10.3348  -22.0224 H       1  UNL1        0.1497
     19 C          46.7677   13.9958  -27.5224 C.ar    1  UNL1        0.2248
     20 N          45.7814   14.2115  -28.4380 N.ar    1  UNL1       -0.2101
     21 C          45.4147   15.4609  -28.8255 C.ar    1  UNL1        0.1021
     22 C          46.0449   16.5791  -28.2787 C.ar    1  UNL1        0.0209
     23 C          47.0618   16.4011  -27.3326 C.ar    1  UNL1        0.0060
     24 C          47.7030   17.5050  -26.7548 C.ar    1  UNL1        0.0003
     25 C          48.7040   17.3167  -25.7983 C.ar    1  UNL1        0.0045
     26 C          49.0866   16.0225  -25.4051 C.ar    1  UNL1        0.0537
     27 C          48.4661   14.9158  -26.0113 C.ar    1  UNL1        0.0092
     28 C          47.4407   15.0936  -26.9538 C.ar    1  UNL1        0.0534
     29 C          46.5111   11.5377  -27.7245 C.3     1  UNL1        0.2542
     30 O          47.1007   12.6909  -27.1378 O.3     1  UNL1       -0.4561
     31 C          49.8904    8.3574  -28.5699 C.3     1  UNL1        0.0867
     32 C          48.7138    8.9073  -29.4066 C.3     1  UNL1        0.0244
     33 C          51.1833    8.4574  -29.3978 C.3     1  UNL1        0.0244
     34 C          49.6069    6.8793  -28.2381 C.3     1  UNL1        0.0244
     35 C          48.9911   14.2087  -21.6689 C.3     1  UNL1        0.1569
     36 O          48.8593   13.0531  -20.8852 O.3     1  UNL1       -0.3802
     37 H          49.7667   12.6584  -20.8044 H       1  UNL1        0.2105
@<TRIPOS>BOND
     1    29    30    1
     2    30    19    1
     3    19    20   ar
     4    20    21   ar
     5    21    22   ar
     6    22    23   ar
     7    23    24   ar
     8    24    25   ar
     9    25    26   ar
    10    26     1    1
    11     1     2    2
    12     1     3   am
    13     3     4    1
    14     4     5    1
    15     5     6    1
    16     6     7    1
    17     7     8    1
    18     8     9   ar
    19     9    10   ar
    20    10    31    1
    21    31    32    1
    22    31    33    1
    23    31    34    1
    24    10    11   ar
    25    11    12   ar
    26    12    13    1
    27    13    14    2
    28    13    15   am
    29     6    16    1
    30    16    17    1
    31    17    35    1
    32    35    36    1
    33    26    27   ar
    34    27    28   ar
    35    28    19   ar
    36    28    23   ar
    37    17     3    1
    38    15     6    1
    39    12     8   ar
    40    15    18    1
    41    36    37    1
@<TRIPOS>MOLECULE
*****
 37 41 0 0 0
SMALL
GASTEIGER

@<TRIPOS>ATOM
      1 C          48.9690   11.4676  -24.8163 C.2     1  UNL1        0.2490
      2 O          49.4576   10.6242  -25.6177 O.2     1  UNL1       -0.2699
      3 N          49.3373   11.4027  -23.4213 N.am    1  UNL1       -0.2751
      4 C          49.6328   10.0813  -22.8441 C.3     1  UNL1        0.0954
      5 C          49.7419   10.1233  -21.3101 C.3     1  UNL1        0.0399
      6 C          48.7757   11.1536  -20.6833 C.3     1  UNL1        0.0645
      7 C          47.2944   10.7436  -21.0211 C.3     1  UNL1        0.0477
      8 C          46.3203   11.4374  -20.1196 C.ar    1  UNL1        0.0220
      9 C          44.9536   11.5661  -20.2142 C.ar    1  UNL1        0.0923
     10 N          44.4960   12.0516  -19.0306 N.ar    1  UNL1       -0.2534
     11 N          45.5147   12.1825  -18.1852 N.ar    1  UNL1       -0.1651
     12 C          46.6235   11.8141  -18.8488 C.ar    1  UNL1        0.1515
     13 C          47.9697   11.6541  -18.3206 C.2     1  UNL1        0.2650
     14 O          48.2348   11.9056  -17.1156 O.2     1  UNL1       -0.2684
     15 N          48.9823   11.1643  -19.2142 N.am    1  UNL1       -0.3023
     16 C          49.1005   12.5802  -21.2282 C.3     1  UNL1        0.0408
     17 C          49.6729   12.6282  -22.6725 C.3     1  UNL1        0.1064
     18 H          49.9382   10.9932  -18.8267 H       1  UNL1        0.1497
     19 C          48.0126   15.7602  -27.1327 C.ar    1  UNL1        0.2248
     20 N          47.1008   16.6554  -27.6065 N.ar    1  UNL1       -0.2101
     21 C          45.7627   16.4731  -27.4572 C.ar    1  UNL1        0.1021
     22 C          45.2768   15.3371  -26.8092 C.ar    1  UNL1        0.0209
     23 C          46.1805   14.3912  -26.3096 C.ar    1  UNL1        0.0060
     24 C          45.7222   13.2331  -25.6673 C.ar    1  UNL1        0.0003
     25 C          46.6319   12.2867  -25.1885 C.ar    1  UNL1        0.0045
     26 C          48.0160   12.4821  -25.3378 C.ar    1  UNL1        0.0537
     27 C          48.4745   13.6610  -25.9517 C.ar    1  UNL1        0.0092
     28 C          47.5690   14.6058  -26.4602 C.ar    1  UNL1        0.0534
     29 C          50.1183   16.9577  -26.6031 C.3     1  UNL1        0.2542
     30 O          49.3824   15.9787  -27.3255 O.3     1  UNL1       -0.4561
     31 C          43.0901   12.2524  -18.6222 C.3     1  UNL1        0.0867
     32 C          42.9089   13.5537  -17.8095 C.3     1  UNL1        0.0244
     33 C          42.2115   12.3231  -19.8832 C.3     1  UNL1        0.0244
     34 C          42.6411   11.0637  -17.7502 C.3     1  UNL1        0.0244
     35 C          51.1964   12.8708  -22.6935 C.3     1  UNL1        0.1569
     36 O          51.7069   12.9224  -21.3883 O.3     1  UNL1       -0.3802
     37 H          51.7093   11.9905  -21.0461 H       1  UNL1        0.2105
@<TRIPOS>BOND
     1    29    30    1
     2    30    19    1
     3    19    20   ar
     4    20    21   ar
     5    21    22   ar
     6    22    23   ar
     7    23    24   ar
     8    24    25   ar
     9    25    26   ar
    10    26     1    1
    11     1     2    2
    12     1     3   am
    13     3     4    1
    14     4     5    1
    15     5     6    1
    16     6     7    1
    17     7     8    1
    18     8     9   ar
    19     9    10   ar
    20    10    31    1
    21    31    32    1
    22    31    33    1
    23    31    34    1
    24    10    11   ar
    25    11    12   ar
    26    12    13    1
    27    13    14    2
    28    13    15   am
    29     6    16    1
    30    16    17    1
    31    17    35    1
    32    35    36    1
    33    26    27   ar
    34    27    28   ar
    35    28    19   ar
    36    28    23   ar
    37    17     3    1
    38    15     6    1
    39    12     8   ar
    40    15    18    1
    41    36    37    1
@<TRIPOS>MOLECULE
*****
 37 41 0 0 0
SMALL
GASTEIGER

@<TRIPOS>ATOM
      1 C          50.7743   10.9597  -23.3296 C.2     1  UNL1        0.2490
      2 O          50.7551    9.8892  -22.6618 O.2     1  UNL1       -0.2699
      3 N          50.1711   12.1458  -22.7681 N.am    1  UNL1       -0.2751
      4 C          49.0104   11.9774  -21.8787 C.3     1  UNL1        0.0954
      5 C          48.3074   13.3116  -21.5743 C.3     1  UNL1        0.0399
      6 C          48.3542   14.2842  -22.7742 C.3     1  UNL1        0.0645
      7 C          47.5935   13.6387  -23.9914 C.3     1  UNL1        0.0477
      8 C          47.2447   14.6686  -25.0212 C.ar    1  UNL1        0.0220
      9 C          46.8130   14.5209  -26.3193 C.ar    1  UNL1        0.0923
     10 N          46.3820   15.7326  -26.7575 N.ar    1  UNL1       -0.2534
     11 N          46.4798   16.6182  -25.7697 N.ar    1  UNL1       -0.1651
     12 C          47.0086   15.9725  -24.7166 C.ar    1  UNL1        0.1515
     13 C          47.1876   16.4699  -23.3611 C.2     1  UNL1        0.2650
     14 O          46.8751   17.6492  -23.0493 O.2     1  UNL1       -0.2684
     15 N          47.7018   15.5566  -22.3786 N.am    1  UNL1       -0.3023
     16 C          49.8390   14.5956  -23.1427 C.3     1  UNL1        0.0408
     17 C          50.8513   13.4514  -22.8566 C.3     1  UNL1        0.1064
     18 H          47.7795   15.8905  -21.3908 H       1  UNL1        0.1497
     19 C          51.1134    9.1879  -27.9612 C.ar    1  UNL1        0.2248
     20 N          51.7074    9.2260  -29.1873 N.ar    1  UNL1       -0.2101
     21 C          52.7266   10.0782  -29.4713 C.ar    1  UNL1        0.1021
     22 C          53.1958   10.9609  -28.4981 C.ar    1  UNL1        0.0209
     23 C          52.6110   10.9555  -27.2257 C.ar    1  UNL1        0.0060
     24 C          53.0507   11.8405  -26.2322 C.ar    1  UNL1        0.0003
     25 C          52.4482   11.8394  -24.9714 C.ar    1  UNL1        0.0045
     26 C          51.3989   10.9510  -24.6784 C.ar    1  UNL1        0.0537
     27 C          50.9825   10.0404  -25.6654 C.ar    1  UNL1        0.0092
     28 C          51.5627   10.0509  -26.9439 C.ar    1  UNL1        0.0534
     29 C          49.2884    7.7105  -28.7581 C.3     1  UNL1        0.2542
     30 O          50.0529    8.3062  -27.7178 O.3     1  UNL1       -0.4561
     31 C          45.7319   16.0453  -28.0472 C.3     1  UNL1        0.0867
     32 C          44.3337   16.6716  -27.8480 C.3     1  UNL1        0.0244
     33 C          46.6179   17.0349  -28.8235 C.3     1  UNL1        0.0244
     34 C          45.5755   14.7475  -28.8635 C.3     1  UNL1        0.0244
     35 C          51.6867   13.7095  -21.5854 C.3     1  UNL1        0.1569
     36 O          52.9708   13.1613  -21.7179 O.3     1  UNL1       -0.3802
     37 H          53.4683   13.7488  -22.3447 H       1  UNL1        0.2105
@<TRIPOS>BOND
     1    29    30    1
     2    30    19    1
     3    19    20   ar
     4    20    21   ar
     5    21    22   ar
     6    22    23   ar
     7    23    24   ar
     8    24    25   ar
     9    25    26   ar
    10    26     1    1
    11     1     2    2
    12     1     3   am
    13     3     4    1
    14     4     5    1
    15     5     6    1
    16     6     7    1
    17     7     8    1
    18     8     9   ar
    19     9    10   ar
    20    10    31    1
    21    31    32    1
    22    31    33    1
    23    31    34    1
    24    10    11   ar
    25    11    12   ar
    26    12    13    1
    27    13    14    2
    28    13    15   am
    29     6    16    1
    30    16    17    1
    31    17    35    1
    32    35    36    1
    33    26    27   ar
    34    27    28   ar
    35    28    19   ar
    36    28    23   ar
    37    17     3    1
    38    15     6    1
    39    12     8   ar
    40    15    18    1
    41    36    37    1
@<TRIPOS>MOLECULE
*****
 37 41 0 0 0
SMALL
GASTEIGER

@<TRIPOS>ATOM
      1 C          51.2189    9.5476  -25.1002 C.2     1  UNL1        0.2490
      2 O          51.2808    8.6445  -24.2211 O.2     1  UNL1       -0.2699
      3 N          51.3387   10.9286  -24.6946 N.am    1  UNL1       -0.2751
      4 C          50.8321   11.3061  -23.3652 C.3     1  UNL1        0.0954
      5 C          50.7731   12.8313  -23.1722 C.3     1  UNL1        0.0399
      6 C          50.4251   13.5733  -24.4823 C.3     1  UNL1        0.0645
      7 C          48.9973   13.1224  -24.9668 C.3     1  UNL1        0.0477
      8 C          48.4356   14.0837  -25.9686 C.ar    1  UNL1        0.0220
      9 C          47.3591   13.9600  -26.8165 C.ar    1  UNL1        0.0923
     10 N          47.0929   15.1867  -27.3366 N.ar    1  UNL1       -0.2534
     11 N          47.9267   16.0788  -26.8089 N.ar    1  UNL1       -0.1651
     12 C          48.7455   15.4075  -25.9816 C.ar    1  UNL1        0.1515
     13 C          49.7395   15.9537  -25.0704 C.2     1  UNL1        0.2650
     14 O          49.9591   17.1920  -25.0062 O.2     1  UNL1       -0.2684
     15 N          50.4395   15.0331  -24.2182 N.am    1  UNL1       -0.3023
     16 C          51.5072   13.2666  -25.5652 C.3     1  UNL1        0.0408
     17 C          52.1787   11.8688  -25.4599 C.3     1  UNL1        0.1064
     18 H          51.1139   15.4244  -23.5215 H       1  UNL1        0.1497
     19 C          52.8976    8.8142  -29.7208 C.ar    1  UNL1        0.2248
     20 N          52.6551    8.4312  -31.0062 N.ar    1  UNL1       -0.2101
     21 C          51.4217    8.0459  -31.4258 C.ar    1  UNL1        0.1021
     22 C          50.3510    8.0234  -30.5317 C.ar    1  UNL1        0.0209
     23 C          50.5584    8.4071  -29.2010 C.ar    1  UNL1        0.0060
     24 C          49.5059    8.3807  -28.2762 C.ar    1  UNL1        0.0003
     25 C          49.7275    8.7483  -26.9465 C.ar    1  UNL1        0.0045
     26 C          51.0032    9.1539  -26.5172 C.ar    1  UNL1        0.0537
     27 C          52.0497    9.2127  -27.4543 C.ar    1  UNL1        0.0092
     28 C          51.8446    8.8201  -28.7867 C.ar    1  UNL1        0.0534
     29 C          55.3622    8.5694  -29.8422 C.3     1  UNL1        0.2542
     30 O          54.1891    9.1859  -29.3268 O.3     1  UNL1       -0.4561
     31 C          45.9642   15.5693  -28.2102 C.3     1  UNL1        0.0867
     32 C          44.7515   16.0704  -27.3945 C.3     1  UNL1        0.0244
     33 C          46.4269   16.6889  -29.1585 C.3     1  UNL1        0.0244
     34 C          45.5259   14.3450  -29.0373 C.3     1  UNL1        0.0244
     35 C          53.5951   11.9411  -24.8522 C.3     1  UNL1        0.1569
     36 O          53.7811   10.9199  -23.9091 O.3     1  UNL1       -0.3802
     37 H          53.8814   10.0747  -24.4201 H       1  UNL1        0.2105
@<TRIPOS>BOND
     1    29    30    1
     2    30    19    1
     3    19    20   ar
     4    20    21   ar
     5    21    22   ar
     6    22    23   ar
     7    23    24   ar
     8    24    25   ar
     9    25    26   ar
    10    26     1    1
    11     1     2    2
    12     1     3   am
    13     3     4    1
    14     4     5    1
    15     5     6    1
    16     6     7    1
    17     7     8    1
    18     8     9   ar
    19     9    10   ar
    20    10    31    1
    21    31    32    1
    22    31    33    1
    23    31    34    1
    24    10    11   ar
    25    11    12   ar
    26    12    13    1
    27    13    14    2
    28    13    15   am
    29     6    16    1
    30    16    17    1
    31    17    35    1
    32    35    36    1
    33    26    27   ar
    34    27    28   ar
    35    28    19   ar
    36    28    23   ar
    37    17     3    1
    38    15     6    1
    39    12     8   ar
    40    15    18    1
    41    36    37    1
