@<TRIPOS>MOLECULE
*****
 35 39 0 0 0
SMALL
GASTEIGER

@<TRIPOS>ATOM
      1 C         -22.2790   -8.1379   -8.7853 C.2     1  UNL1        0.2491
      2 O         -23.3584   -8.2387   -8.1401 O.2     1  UNL1       -0.2699
      3 N         -22.3034   -7.5882  -10.1159 N.am    1  UNL1       -0.2760
      4 C         -21.3413   -6.5546  -10.5141 C.3     1  UNL1        0.0954
      5 C         -20.7933   -6.8121  -11.9317 C.3     1  UNL1        0.0399
      6 C         -21.7567   -7.6201  -12.8626 C.3     1  UNL1        0.0645
      7 C         -23.2268   -7.3957  -12.4164 C.3     1  UNL1        0.0399
      8 C         -23.4792   -7.8273  -10.9616 C.3     1  UNL1        0.0954
      9 C         -21.3873   -9.1497  -12.8040 C.3     1  UNL1        0.0482
     10 C         -22.0303   -9.8977  -13.9323 C.ar    1  UNL1        0.0268
     11 C         -22.2665   -9.3369  -15.1453 C.ar    1  UNL1        0.1520
     12 N         -22.6794  -10.2629  -16.0251 N.ar    1  UNL1       -0.1646
     13 N         -22.7041  -11.4323  -15.3885 N.ar    1  UNL1       -0.2486
     14 C         -22.2890  -11.2399  -14.1020 C.ar    1  UNL1        0.1094
     15 BR        -22.0226  -12.5599  -12.7359 Br      1  UNL1       -0.0287
     16 C         -22.0277   -7.9207  -15.3777 C.2     1  UNL1        0.2650
     17 O         -22.1551   -7.4146  -16.5238 O.2     1  UNL1       -0.2684
     18 N         -21.6273   -7.1181  -14.2544 N.am    1  UNL1       -0.3023
     19 H         -21.4667   -6.0994  -14.4250 H       1  UNL1        0.1497
     20 C         -18.3220   -9.2387   -4.2251 C.ar    1  UNL1        0.2249
     21 C         -17.3083   -9.8402   -4.9775 C.ar    1  UNL1        0.0577
     22 C         -17.4694   -9.9934   -6.3561 C.ar    1  UNL1        0.0063
     23 C         -18.6427   -9.5434   -6.9742 C.ar    1  UNL1        0.0179
     24 C         -18.8391   -9.6838   -8.3538 C.ar    1  UNL1        0.0016
     25 C         -20.0207   -9.2250   -8.9430 C.ar    1  UNL1        0.0046
     26 C         -21.0189   -8.6113   -8.1645 C.ar    1  UNL1        0.0551
     27 C         -20.8249   -8.4841   -6.7774 C.ar    1  UNL1        0.0237
     28 C         -19.6439   -8.9413   -6.1826 C.ar    1  UNL1        0.0845
     29 N         -19.4582   -8.8065   -4.8419 N.ar    1  UNL1       -0.2117
     30 C         -18.6988   -7.9920   -2.1199 C.3     1  UNL1        0.2542
     31 O         -18.1551   -9.0884   -2.8454 O.3     1  UNL1       -0.4561
     32 C         -23.0972  -12.7002  -16.0503 C.3     1  UNL1        0.0872
     33 C         -24.3534  -13.2874  -15.3763 C.3     1  UNL1        0.0244
     34 C         -23.4352  -12.4436  -17.5385 C.3     1  UNL1        0.0244
     35 C         -21.9349  -13.7107  -15.9953 C.3     1  UNL1        0.0244
@<TRIPOS>BOND
     1    30    31    1
     2    31    20    1
     3    20    21   ar
     4    21    22   ar
     5    22    23   ar
     6    23    24   ar
     7    24    25   ar
     8    25    26   ar
     9    26     1    1
    10     1     2    2
    11     1     3   am
    12     3     4    1
    13     4     5    1
    14     5     6    1
    15     6     7    1
    16     7     8    1
    17     6     9    1
    18     9    10    1
    19    10    11   ar
    20    11    12   ar
    21    12    13   ar
    22    13    32    1
    23    32    33    1
    24    32    34    1
    25    32    35    1
    26    13    14   ar
    27    14    15    1
    28    11    16    1
    29    16    17    2
    30    16    18   am
    31    26    27   ar
    32    27    28   ar
    33    28    29   ar
    34    29    20   ar
    35    28    23   ar
    36     8     3    1
    37    14    10   ar
    38    18     6    1
    39    18    19    1
@<TRIPOS>MOLECULE
*****
 35 39 0 0 0
SMALL
GASTEIGER

@<TRIPOS>ATOM
      1 C         -22.0251   -7.9363   -8.9700 C.2     1  UNL1        0.2491
      2 O         -23.0988   -7.8327   -8.3157 O.2     1  UNL1       -0.2699
      3 N         -21.9785   -7.4552  -10.3263 N.am    1  UNL1       -0.2760
      4 C         -20.8696   -6.6083  -10.7801 C.3     1  UNL1        0.0954
      5 C         -20.3869   -7.0184  -12.1855 C.3     1  UNL1        0.0399
      6 C         -21.4778   -7.7073  -13.0704 C.3     1  UNL1        0.0645
      7 C         -22.8881   -7.2305  -12.6294 C.3     1  UNL1        0.0399
      8 C         -23.1876   -7.5452  -11.1538 C.3     1  UNL1        0.0954
      9 C         -21.3550   -9.2715  -12.9370 C.3     1  UNL1        0.0482
     10 C         -22.1224   -9.9618  -14.0235 C.ar    1  UNL1        0.0268
     11 C         -22.2815   -9.4303  -15.2620 C.ar    1  UNL1        0.1520
     12 N         -22.8470  -10.3205  -16.0925 N.ar    1  UNL1       -0.1646
     13 N         -23.0490  -11.4388  -15.3981 N.ar    1  UNL1       -0.2486
     14 C         -22.5927  -11.2524  -14.1248 C.ar    1  UNL1        0.1094
     15 BR        -22.5222  -12.5299  -12.6955 Br      1  UNL1       -0.0287
     16 C         -21.8240   -8.0831  -15.5661 C.2     1  UNL1        0.2650
     17 O         -21.8837   -7.6196  -16.7355 O.2     1  UNL1       -0.2684
     18 N         -21.2876   -7.3007  -14.4862 N.am    1  UNL1       -0.3023
     19 H         -20.9696   -6.3300  -14.7082 H       1  UNL1        0.1497
     20 C         -17.0874  -11.5651   -8.6301 C.ar    1  UNL1        0.2249
     21 C         -16.7112  -11.2724   -7.3155 C.ar    1  UNL1        0.0577
     22 C         -17.4645  -10.3656   -6.5669 C.ar    1  UNL1        0.0063
     23 C         -18.5900   -9.7578   -7.1370 C.ar    1  UNL1        0.0179
     24 C         -19.3664   -8.8416   -6.4165 C.ar    1  UNL1        0.0016
     25 C         -20.4845   -8.2507   -7.0119 C.ar    1  UNL1        0.0046
     26 C         -20.8485   -8.5733   -8.3319 C.ar    1  UNL1        0.0551
     27 C         -20.0591   -9.4833   -9.0576 C.ar    1  UNL1        0.0237
     28 C         -18.9392  -10.0778   -8.4663 C.ar    1  UNL1        0.0845
     29 N         -18.1854  -10.9645   -9.1704 N.ar    1  UNL1       -0.2117
     30 C         -14.9112  -12.4004   -9.4635 C.3     1  UNL1        0.2542
     31 O         -16.3292  -12.4733   -9.3745 O.3     1  UNL1       -0.4561
     32 C         -23.6463  -12.6587  -15.9939 C.3     1  UNL1        0.0872
     33 C         -25.0036  -12.9673  -15.3308 C.3     1  UNL1        0.0244
     34 C         -23.8961  -12.4473  -17.5064 C.3     1  UNL1        0.0244
     35 C         -22.6855  -13.8531  -15.8342 C.3     1  UNL1        0.0244
@<TRIPOS>BOND
     1    30    31    1
     2    31    20    1
     3    20    21   ar
     4    21    22   ar
     5    22    23   ar
     6    23    24   ar
     7    24    25   ar
     8    25    26   ar
     9    26     1    1
    10     1     2    2
    11     1     3   am
    12     3     4    1
    13     4     5    1
    14     5     6    1
    15     6     7    1
    16     7     8    1
    17     6     9    1
    18     9    10    1
    19    10    11   ar
    20    11    12   ar
    21    12    13   ar
    22    13    32    1
    23    32    33    1
    24    32    34    1
    25    32    35    1
    26    13    14   ar
    27    14    15    1
    28    11    16    1
    29    16    17    2
    30    16    18   am
    31    26    27   ar
    32    27    28   ar
    33    28    29   ar
    34    29    20   ar
    35    28    23   ar
    36     8     3    1
    37    14    10   ar
    38    18     6    1
    39    18    19    1
@<TRIPOS>MOLECULE
*****
 35 39 0 0 0
SMALL
GASTEIGER

@<TRIPOS>ATOM
      1 C         -22.2200   -8.4607  -13.8514 C.2     1  UNL1        0.2491
      2 O         -21.5571   -8.0882  -14.8581 O.2     1  UNL1       -0.2699
      3 N         -21.9107   -7.9039  -12.5601 N.am    1  UNL1       -0.2760
      4 C         -22.9791   -7.4033  -11.6879 C.3     1  UNL1        0.0954
      5 C         -22.7506   -7.8209  -10.2217 C.3     1  UNL1        0.0399
      6 C         -21.2524   -8.0637   -9.8425 C.3     1  UNL1        0.0645
      7 C         -20.3346   -7.2160  -10.7643 C.3     1  UNL1        0.0399
      8 C         -20.5198   -7.5475  -12.2550 C.3     1  UNL1        0.0954
      9 C         -20.9143   -9.5954   -9.9814 C.3     1  UNL1        0.0482
     10 C         -19.6235   -9.9216   -9.2935 C.ar    1  UNL1        0.0268
     11 C         -19.1940   -9.2638   -8.1870 C.ar    1  UNL1        0.1520
     12 N         -18.1111   -9.8634   -7.6675 N.ar    1  UNL1       -0.1646
     13 N         -17.8381  -10.9202   -8.4304 N.ar    1  UNL1       -0.2486
     14 C         -18.7671  -10.9918   -9.4286 C.ar    1  UNL1        0.1094
     15 BR        -18.9537  -12.3457  -10.7747 Br      1  UNL1       -0.0287
     16 C         -19.9071   -8.1016   -7.6795 C.2     1  UNL1        0.2650
     17 O         -19.5685   -7.5447   -6.6020 O.2     1  UNL1       -0.2684
     18 N         -21.0229   -7.6165   -8.4449 N.am    1  UNL1       -0.3023
     19 H         -21.5254   -6.7753   -8.0809 H       1  UNL1        0.1497
     20 C         -24.5437  -14.0360  -14.9390 C.ar    1  UNL1        0.2249
     21 C         -25.8978  -13.7253  -14.7806 C.ar    1  UNL1        0.0577
     22 C         -26.2745  -12.4180  -14.4652 C.ar    1  UNL1        0.0063
     23 C         -25.2948  -11.4292  -14.3111 C.ar    1  UNL1        0.0179
     24 C         -25.6364  -10.1090  -13.9918 C.ar    1  UNL1        0.0016
     25 C         -24.6367   -9.1434  -13.8442 C.ar    1  UNL1        0.0046
     26 C         -23.2825   -9.4801  -14.0223 C.ar    1  UNL1        0.0551
     27 C         -22.9415  -10.8096  -14.3294 C.ar    1  UNL1        0.0237
     28 C         -23.9382  -11.7800  -14.4785 C.ar    1  UNL1        0.0845
     29 N         -23.6024  -13.0619  -14.7851 N.ar    1  UNL1       -0.2117
     30 C         -22.8818  -15.6823  -15.7489 C.3     1  UNL1        0.2542
     31 O         -24.1727  -15.3462  -15.2543 O.3     1  UNL1       -0.4561
     32 C         -16.7100  -11.8425   -8.1532 C.3     1  UNL1        0.0872
     33 C         -16.1040  -11.5436   -6.7674 C.3     1  UNL1        0.0244
     34 C         -17.2075  -13.3079   -8.1457 C.3     1  UNL1        0.0244
     35 C         -15.6353  -11.7120   -9.2501 C.3     1  UNL1        0.0244
@<TRIPOS>BOND
     1    30    31    1
     2    31    20    1
     3    20    21   ar
     4    21    22   ar
     5    22    23   ar
     6    23    24   ar
     7    24    25   ar
     8    25    26   ar
     9    26     1    1
    10     1     2    2
    11     1     3   am
    12     3     4    1
    13     4     5    1
    14     5     6    1
    15     6     7    1
    16     7     8    1
    17     6     9    1
    18     9    10    1
    19    10    11   ar
    20    11    12   ar
    21    12    13   ar
    22    13    32    1
    23    32    33    1
    24    32    34    1
    25    32    35    1
    26    13    14   ar
    27    14    15    1
    28    11    16    1
    29    16    17    2
    30    16    18   am
    31    26    27   ar
    32    27    28   ar
    33    28    29   ar
    34    29    20   ar
    35    28    23   ar
    36     8     3    1
    37    14    10   ar
    38    18     6    1
    39    18    19    1
@<TRIPOS>MOLECULE
*****
 35 39 0 0 0
SMALL
GASTEIGER

@<TRIPOS>ATOM
      1 C         -26.9112   -8.1709  -12.5814 C.2     1  UNL1        0.2491
      2 O         -27.8841   -8.2528  -11.7825 O.2     1  UNL1       -0.2699
      3 N         -25.9545   -9.2455  -12.6375 N.am    1  UNL1       -0.2760
      4 C         -25.5288   -9.7991  -13.9278 C.3     1  UNL1        0.0954
      5 C         -24.0090  -10.0558  -13.9561 C.3     1  UNL1        0.0399
      6 C         -23.3699  -10.3213  -12.5530 C.3     1  UNL1        0.0645
      7 C         -24.4371  -10.9170  -11.5954 C.3     1  UNL1        0.0399
      8 C         -25.6523   -9.9921  -11.4103 C.3     1  UNL1        0.0954
      9 C         -22.7941   -8.9756  -11.9724 C.3     1  UNL1        0.0482
     10 C         -21.8704   -9.2423  -10.8227 C.ar    1  UNL1        0.0268
     11 C         -21.1065  -10.3608  -10.7384 C.ar    1  UNL1        0.1520
     12 N         -20.2436  -10.2712   -9.7140 N.ar    1  UNL1       -0.1646
     13 N         -20.4375   -9.0883   -9.1338 N.ar    1  UNL1       -0.2486
     14 C         -21.4209   -8.4246   -9.8097 C.ar    1  UNL1        0.1094
     15 BR        -22.0692   -6.6449   -9.5066 Br      1  UNL1       -0.0287
     16 C         -21.2437  -11.4392  -11.7053 C.2     1  UNL1        0.2650
     17 O         -20.4743  -12.4361  -11.6879 O.2     1  UNL1       -0.2684
     18 N         -22.2817  -11.3224  -12.6927 N.am    1  UNL1       -0.3023
     19 H         -22.3823  -12.1047  -13.3786 H       1  UNL1        0.1497
     20 C         -28.7474   -3.6809  -16.3409 C.ar    1  UNL1        0.2249
     21 C         -27.5289   -3.0055  -16.4598 C.ar    1  UNL1        0.0577
     22 C         -26.4050   -3.4835  -15.7827 C.ar    1  UNL1        0.0063
     23 C         -26.5062   -4.6345  -14.9914 C.ar    1  UNL1        0.0179
     24 C         -25.4006   -5.1399  -14.2960 C.ar    1  UNL1        0.0016
     25 C         -25.5318   -6.2908  -13.5139 C.ar    1  UNL1        0.0046
     26 C         -26.7665   -6.9588  -13.4224 C.ar    1  UNL1        0.0551
     27 C         -27.8784   -6.4412  -14.1108 C.ar    1  UNL1        0.0237
     28 C         -27.7524   -5.2897  -14.8953 C.ar    1  UNL1        0.0845
     29 N         -28.8293   -4.7997  -15.5664 N.ar    1  UNL1       -0.2117
     30 C         -29.7756   -2.4788  -18.2451 C.3     1  UNL1        0.2542
     31 O         -29.8690   -3.1975  -17.0209 O.3     1  UNL1       -0.4561
     32 C         -19.6471   -8.6255   -7.9671 C.3     1  UNL1        0.0872
     33 C         -19.1004   -7.2065   -8.2215 C.3     1  UNL1        0.0244
     34 C         -20.5409   -8.5687   -6.7050 C.3     1  UNL1        0.0244
     35 C         -18.4912   -9.6053   -7.6861 C.3     1  UNL1        0.0244
@<TRIPOS>BOND
     1    30    31    1
     2    31    20    1
     3    20    21   ar
     4    21    22   ar
     5    22    23   ar
     6    23    24   ar
     7    24    25   ar
     8    25    26   ar
     9    26     1    1
    10     1     2    2
    11     1     3   am
    12     3     4    1
    13     4     5    1
    14     5     6    1
    15     6     7    1
    16     7     8    1
    17     6     9    1
    18     9    10    1
    19    10    11   ar
    20    11    12   ar
    21    12    13   ar
    22    13    32    1
    23    32    33    1
    24    32    34    1
    25    32    35    1
    26    13    14   ar
    27    14    15    1
    28    11    16    1
    29    16    17    2
    30    16    18   am
    31    26    27   ar
    32    27    28   ar
    33    28    29   ar
    34    29    20   ar
    35    28    23   ar
    36     8     3    1
    37    14    10   ar
    38    18     6    1
    39    18    19    1
@<TRIPOS>MOLECULE
*****
 35 39 0 0 0
SMALL
GASTEIGER

@<TRIPOS>ATOM
      1 C         -25.9198   -4.2200  -15.9359 C.2     1  UNL1        0.2491
      2 O         -25.5094   -3.0292  -15.8627 O.2     1  UNL1       -0.2699
      3 N         -26.5412   -4.8220  -14.7850 N.am    1  UNL1       -0.2760
      4 C         -27.8062   -5.5535  -14.9171 C.3     1  UNL1        0.0954
      5 C         -27.7951   -6.8515  -14.0856 C.3     1  UNL1        0.0399
      6 C         -26.8441   -6.8181  -12.8438 C.3     1  UNL1        0.0645
      7 C         -26.6662   -5.3537  -12.3593 C.3     1  UNL1        0.0399
      8 C         -26.0816   -4.4349  -13.4457 C.3     1  UNL1        0.0954
      9 C         -25.4527   -7.4475  -13.2277 C.3     1  UNL1        0.0482
     10 C         -24.6530   -7.7636  -12.0003 C.ar    1  UNL1        0.0268
     11 C         -25.2246   -8.1295  -10.8252 C.ar    1  UNL1        0.1520
     12 N         -24.2916   -8.5290   -9.9465 N.ar    1  UNL1       -0.1646
     13 N         -23.1092   -8.4328  -10.5517 N.ar    1  UNL1       -0.2486
     14 C         -23.3044   -7.9828  -11.8259 C.ar    1  UNL1        0.1094
     15 BR        -21.9954   -7.7384  -13.2067 Br      1  UNL1       -0.0287
     16 C         -26.6689   -8.1049  -10.6522 C.2     1  UNL1        0.2650
     17 O         -27.2096   -8.5317   -9.5980 O.2     1  UNL1       -0.2684
     18 N         -27.4619   -7.5874  -11.7337 N.am    1  UNL1       -0.3023
     19 H         -28.4984   -7.5628  -11.6002 H       1  UNL1        0.1497
     20 C         -24.0145   -8.8474  -19.4888 C.ar    1  UNL1        0.2249
     21 C         -24.5160   -8.3851  -20.7094 C.ar    1  UNL1        0.0577
     22 C         -25.2079   -7.1730  -20.7576 C.ar    1  UNL1        0.0063
     23 C         -25.3933   -6.4301  -19.5850 C.ar    1  UNL1        0.0179
     24 C         -26.0849   -5.2123  -19.5961 C.ar    1  UNL1        0.0016
     25 C         -26.2544   -4.4927  -18.4098 C.ar    1  UNL1        0.0046
     26 C         -25.7279   -4.9743  -17.1974 C.ar    1  UNL1        0.0551
     27 C         -25.0458   -6.2042  -17.1870 C.ar    1  UNL1        0.0237
     28 C         -24.8730   -6.9283  -18.3715 C.ar    1  UNL1        0.0845
     29 N         -24.2039   -8.1125  -18.3564 N.ar    1  UNL1       -0.2117
     30 C         -23.3404  -10.9176  -18.3107 C.3     1  UNL1        0.2542
     31 O         -23.3231  -10.0614  -19.4468 O.3     1  UNL1       -0.4561
     32 C         -21.8349   -8.8074   -9.8914 C.3     1  UNL1        0.0872
     33 C         -20.8049   -7.6690  -10.0338 C.3     1  UNL1        0.0244
     34 C         -22.0669   -9.0490   -8.3806 C.3     1  UNL1        0.0244
     35 C         -21.2839  -10.1111  -10.5011 C.3     1  UNL1        0.0244
@<TRIPOS>BOND
     1    30    31    1
     2    31    20    1
     3    20    21   ar
     4    21    22   ar
     5    22    23   ar
     6    23    24   ar
     7    24    25   ar
     8    25    26   ar
     9    26     1    1
    10     1     2    2
    11     1     3   am
    12     3     4    1
    13     4     5    1
    14     5     6    1
    15     6     7    1
    16     7     8    1
    17     6     9    1
    18     9    10    1
    19    10    11   ar
    20    11    12   ar
    21    12    13   ar
    22    13    32    1
    23    32    33    1
    24    32    34    1
    25    32    35    1
    26    13    14   ar
    27    14    15    1
    28    11    16    1
    29    16    17    2
    30    16    18   am
    31    26    27   ar
    32    27    28   ar
    33    28    29   ar
    34    29    20   ar
    35    28    23   ar
    36     8     3    1
    37    14    10   ar
    38    18     6    1
    39    18    19    1
@<TRIPOS>MOLECULE
*****
 35 39 0 0 0
SMALL
GASTEIGER

@<TRIPOS>ATOM
      1 C         -22.0212   -9.3569  -14.7986 C.2     1  UNL1        0.2491
      2 O         -21.2779   -9.1235  -15.7909 O.2     1  UNL1       -0.2699
      3 N         -21.8209   -8.6167  -13.5800 N.am    1  UNL1       -0.2760
      4 C         -22.9587   -8.0109  -12.8792 C.3     1  UNL1        0.0954
      5 C         -22.8517   -8.2110  -11.3544 C.3     1  UNL1        0.0399
      6 C         -21.3896   -8.3765  -10.8230 C.3     1  UNL1        0.0645
      7 C         -20.4001   -7.6571  -11.7792 C.3     1  UNL1        0.0399
      8 C         -20.4606   -8.2013  -13.2167 C.3     1  UNL1        0.0954
      9 C         -21.0386   -9.9075  -10.7120 C.3     1  UNL1        0.0482
     10 C         -19.8085  -10.1142   -9.8812 C.ar    1  UNL1        0.0268
     11 C         -19.4733   -9.2988   -8.8495 C.ar    1  UNL1        0.1520
     12 N         -18.4361   -9.8030   -8.1624 N.ar    1  UNL1       -0.1646
     13 N         -18.0991  -10.9544   -8.7404 N.ar    1  UNL1       -0.2486
     14 C         -18.9420  -11.1810   -9.7904 C.ar    1  UNL1        0.1094
     15 BR        -19.0142  -12.7162  -10.9383 Br      1  UNL1       -0.0287
     16 C         -20.2280   -8.0858   -8.5746 C.2     1  UNL1        0.2650
     17 O         -19.9808   -7.3756   -7.5643 O.2     1  UNL1       -0.2684
     18 N         -21.2774   -7.7305   -9.4903 N.am    1  UNL1       -0.3023
     19 H         -21.8098   -6.8528   -9.2935 H       1  UNL1        0.1497
     20 C         -25.7288  -13.8298  -12.8206 C.ar    1  UNL1        0.2249
     21 C         -26.3920  -14.0899  -14.0239 C.ar    1  UNL1        0.0577
     22 C         -26.0627  -13.3578  -15.1666 C.ar    1  UNL1        0.0063
     23 C         -25.0716  -12.3707  -15.0993 C.ar    1  UNL1        0.0179
     24 C         -24.7183  -11.6155  -16.2246 C.ar    1  UNL1        0.0016
     25 C         -23.7251  -10.6368  -16.1273 C.ar    1  UNL1        0.0046
     26 C         -23.0641  -10.4047  -14.9073 C.ar    1  UNL1        0.0551
     27 C         -23.4306  -11.1551  -13.7757 C.ar    1  UNL1        0.0237
     28 C         -24.4238  -12.1362  -13.8677 C.ar    1  UNL1        0.0845
     29 N         -24.7668  -12.8653  -12.7719 N.ar    1  UNL1       -0.2117
     30 C         -27.3906  -14.6395  -11.1740 C.3     1  UNL1        0.2542
     31 O         -26.0630  -14.5657  -11.6801 O.3     1  UNL1       -0.4561
     32 C         -16.9962  -11.8120   -8.2422 C.3     1  UNL1        0.0872
     33 C         -16.6020  -11.3970   -6.8106 C.3     1  UNL1        0.0244
     34 C         -17.4480  -13.2915   -8.1982 C.3     1  UNL1        0.0244
     35 C         -15.7806  -11.7151   -9.1846 C.3     1  UNL1        0.0244
@<TRIPOS>BOND
     1    30    31    1
     2    31    20    1
     3    20    21   ar
     4    21    22   ar
     5    22    23   ar
     6    23    24   ar
     7    24    25   ar
     8    25    26   ar
     9    26     1    1
    10     1     2    2
    11     1     3   am
    12     3     4    1
    13     4     5    1
    14     5     6    1
    15     6     7    1
    16     7     8    1
    17     6     9    1
    18     9    10    1
    19    10    11   ar
    20    11    12   ar
    21    12    13   ar
    22    13    32    1
    23    32    33    1
    24    32    34    1
    25    32    35    1
    26    13    14   ar
    27    14    15    1
    28    11    16    1
    29    16    17    2
    30    16    18   am
    31    26    27   ar
    32    27    28   ar
    33    28    29   ar
    34    29    20   ar
    35    28    23   ar
    36     8     3    1
    37    14    10   ar
    38    18     6    1
    39    18    19    1
@<TRIPOS>MOLECULE
*****
 35 39 0 0 0
SMALL
GASTEIGER

@<TRIPOS>ATOM
      1 C         -19.5532   -8.9841  -11.1199 C.2     1  UNL1        0.2491
      2 O         -18.6604   -8.3610  -11.7573 O.2     1  UNL1       -0.2699
      3 N         -20.5187   -9.7677  -11.8457 N.am    1  UNL1       -0.2760
      4 C         -20.8318  -11.1392  -11.4290 C.3     1  UNL1        0.0954
      5 C         -22.3464  -11.4169  -11.4997 C.3     1  UNL1        0.0399
      6 C         -23.1180  -10.5434  -12.5434 C.3     1  UNL1        0.0645
      7 C         -22.1550  -10.1182  -13.6847 C.3     1  UNL1        0.0399
      8 C         -20.9466   -9.3144  -13.1747 C.3     1  UNL1        0.0954
      9 C         -23.7222   -9.2774  -11.8281 C.3     1  UNL1        0.0482
     10 C         -24.7535   -8.6174  -12.6924 C.ar    1  UNL1        0.0268
     11 C         -25.5410   -9.3088  -13.5546 C.ar    1  UNL1        0.1520
     12 N         -26.4939   -8.5155  -14.0690 N.ar    1  UNL1       -0.1646
     13 N         -26.3347   -7.3060  -13.5348 N.ar    1  UNL1       -0.2486
     14 C         -25.2813   -7.3455  -12.6669 C.ar    1  UNL1        0.1094
     15 BR        -24.6337   -5.9430  -11.5296 Br      1  UNL1       -0.0287
     16 C         -25.3328  -10.7296  -13.7881 C.2     1  UNL1        0.2650
     17 O         -26.1173  -11.3958  -14.5138 O.2     1  UNL1       -0.2684
     18 N         -24.2054  -11.3528  -13.1503 N.am    1  UNL1       -0.3023
     19 H         -24.0548  -12.3715  -13.3295 H       1  UNL1        0.1497
     20 C         -17.7700  -10.0338   -5.3420 C.ar    1  UNL1        0.2249
     21 C         -18.7176   -9.2387   -4.6901 C.ar    1  UNL1        0.0577
     22 C         -19.6628   -8.5354   -5.4398 C.ar    1  UNL1        0.0063
     23 C         -19.6552   -8.6321   -6.8369 C.ar    1  UNL1        0.0179
     24 C         -20.5860   -7.9382   -7.6201 C.ar    1  UNL1        0.0016
     25 C         -20.5540   -8.0541   -9.0126 C.ar    1  UNL1        0.0046
     26 C         -19.5981   -8.8718   -9.6424 C.ar    1  UNL1        0.0551
     27 C         -18.6560   -9.5566   -8.8542 C.ar    1  UNL1        0.0237
     28 C         -18.6837   -9.4443   -7.4599 C.ar    1  UNL1        0.0845
     29 N         -17.7758  -10.1170   -6.7026 N.ar    1  UNL1       -0.2117
     30 C         -15.4818  -10.9196   -5.0134 C.3     1  UNL1        0.2542
     31 O         -16.8263  -10.7353   -4.5862 O.3     1  UNL1       -0.4561
     32 C         -27.2222   -6.1618  -13.8558 C.3     1  UNL1        0.0872
     33 C         -28.6188   -6.6684  -14.2679 C.3     1  UNL1        0.0244
     34 C         -27.3956   -5.2553  -12.6135 C.3     1  UNL1        0.0244
     35 C         -26.6048   -5.3101  -14.9820 C.3     1  UNL1        0.0244
@<TRIPOS>BOND
     1    30    31    1
     2    31    20    1
     3    20    21   ar
     4    21    22   ar
     5    22    23   ar
     6    23    24   ar
     7    24    25   ar
     8    25    26   ar
     9    26     1    1
    10     1     2    2
    11     1     3   am
    12     3     4    1
    13     4     5    1
    14     5     6    1
    15     6     7    1
    16     7     8    1
    17     6     9    1
    18     9    10    1
    19    10    11   ar
    20    11    12   ar
    21    12    13   ar
    22    13    32    1
    23    32    33    1
    24    32    34    1
    25    32    35    1
    26    13    14   ar
    27    14    15    1
    28    11    16    1
    29    16    17    2
    30    16    18   am
    31    26    27   ar
    32    27    28   ar
    33    28    29   ar
    34    29    20   ar
    35    28    23   ar
    36     8     3    1
    37    14    10   ar
    38    18     6    1
    39    18    19    1
@<TRIPOS>MOLECULE
*****
 35 39 0 0 0
SMALL
GASTEIGER

@<TRIPOS>ATOM
      1 C         -22.0740   -9.0106  -14.7137 C.2     1  UNL1        0.2491
      2 O         -21.0995   -9.0672  -15.5130 O.2     1  UNL1       -0.2699
      3 N         -22.1888   -7.8852  -13.8229 N.am    1  UNL1       -0.2760
      4 C         -23.4648   -7.1756  -13.6776 C.3     1  UNL1        0.0954
      5 C         -23.7541   -6.8344  -12.2024 C.3     1  UNL1        0.0399
      6 C         -22.4784   -6.6843  -11.3093 C.3     1  UNL1        0.0645
      7 C         -21.2723   -6.2527  -12.1868 C.3     1  UNL1        0.0399
      8 C         -20.9650   -7.2572  -13.3105 C.3     1  UNL1        0.0954
      9 C         -22.1767   -8.0502  -10.5863 C.3     1  UNL1        0.0482
     10 C         -21.2025   -7.8564   -9.4641 C.ar    1  UNL1        0.0268
     11 C         -21.1385   -6.7129   -8.7360 C.ar    1  UNL1        0.1520
     12 N         -20.3155   -6.8630   -7.6862 N.ar    1  UNL1       -0.1646
     13 N         -19.8482   -8.1095   -7.7230 N.ar    1  UNL1       -0.2486
     14 C         -20.3947   -8.7508   -8.7974 C.ar    1  UNL1        0.1094
     15 BR        -20.1789  -10.5856   -9.3141 Br      1  UNL1       -0.0287
     16 C         -21.9312   -5.5474   -9.0962 C.2     1  UNL1        0.2650
     17 O         -21.9475   -4.5173   -8.3720 O.2     1  UNL1       -0.2684
     18 N         -22.7083   -5.6158  -10.3036 N.am    1  UNL1       -0.3023
     19 H         -23.2681   -4.7720  -10.5628 H       1  UNL1        0.1497
     20 C         -24.1584  -14.7029  -15.6717 C.ar    1  UNL1        0.2249
     21 C         -25.4415  -14.5408  -15.1402 C.ar    1  UNL1        0.0577
     22 C         -25.8220  -13.3023  -14.6189 C.ar    1  UNL1        0.0063
     23 C         -24.9174  -12.2334  -14.6332 C.ar    1  UNL1        0.0179
     24 C         -25.2642  -10.9788  -14.1161 C.ar    1  UNL1        0.0016
     25 C         -24.3403   -9.9304  -14.1440 C.ar    1  UNL1        0.0046
     26 C         -23.0602  -10.1171  -14.6970 C.ar    1  UNL1        0.0551
     27 C         -22.7101  -11.3817  -15.2030 C.ar    1  UNL1        0.0237
     28 C         -23.6312  -12.4344  -15.1778 C.ar    1  UNL1        0.0845
     29 N         -23.2896  -13.6525  -15.6777 N.ar    1  UNL1       -0.2117
     30 C         -22.4381  -16.2632  -16.5286 C.3     1  UNL1        0.2542
     31 O         -23.7832  -15.9450  -16.1918 O.3     1  UNL1       -0.4561
     32 C         -18.9153   -8.6491   -6.7039 C.3     1  UNL1        0.0872
     33 C         -17.8952   -7.5701   -6.2891 C.3     1  UNL1        0.0244
     34 C         -19.6958   -9.0741   -5.4369 C.3     1  UNL1        0.0244
     35 C         -18.1898   -9.8928   -7.2535 C.3     1  UNL1        0.0244
@<TRIPOS>BOND
     1    30    31    1
     2    31    20    1
     3    20    21   ar
     4    21    22   ar
     5    22    23   ar
     6    23    24   ar
     7    24    25   ar
     8    25    26   ar
     9    26     1    1
    10     1     2    2
    11     1     3   am
    12     3     4    1
    13     4     5    1
    14     5     6    1
    15     6     7    1
    16     7     8    1
    17     6     9    1
    18     9    10    1
    19    10    11   ar
    20    11    12   ar
    21    12    13   ar
    22    13    32    1
    23    32    33    1
    24    32    34    1
    25    32    35    1
    26    13    14   ar
    27    14    15    1
    28    11    16    1
    29    16    17    2
    30    16    18   am
    31    26    27   ar
    32    27    28   ar
    33    28    29   ar
    34    29    20   ar
    35    28    23   ar
    36     8     3    1
    37    14    10   ar
    38    18     6    1
    39    18    19    1
@<TRIPOS>MOLECULE
*****
 35 39 0 0 0
SMALL
GASTEIGER

@<TRIPOS>ATOM
      1 C         -21.4011   -9.2394  -15.2364 C.2     1  UNL1        0.2491
      2 O         -20.3910   -9.0151  -15.9583 O.2     1  UNL1       -0.2699
      3 N         -21.8294   -8.2378  -14.2949 N.am    1  UNL1       -0.2760
      4 C         -23.2415   -7.8481  -14.2106 C.3     1  UNL1        0.0954
      5 C         -23.6951   -7.6905  -12.7458 C.3     1  UNL1        0.0399
      6 C         -22.5482   -7.3214  -11.7478 C.3     1  UNL1        0.0645
      7 C         -21.4212   -6.5647  -12.5015 C.3     1  UNL1        0.0399
      8 C         -20.8191   -7.3883  -13.6528 C.3     1  UNL1        0.0954
      9 C         -21.9857   -8.6328  -11.0820 C.3     1  UNL1        0.0482
     10 C         -21.1562   -8.3064   -9.8774 C.ar    1  UNL1        0.0268
     11 C         -21.4047   -7.2348   -9.0827 C.ar    1  UNL1        0.1520
     12 N         -20.6379   -7.2711   -7.9815 N.ar    1  UNL1       -0.1646
     13 N         -19.8938   -8.3733   -8.0521 N.ar    1  UNL1       -0.2486
     14 C         -20.2076   -9.0411   -9.2010 C.ar    1  UNL1        0.1094
     15 BR        -19.5411  -10.7363   -9.8025 Br      1  UNL1       -0.0287
     16 C         -22.4208   -6.2558   -9.4374 C.2     1  UNL1        0.2650
     17 O         -22.7208   -5.3121   -8.6594 O.2     1  UNL1       -0.2684
     18 N         -23.0825   -6.4095  -10.7042 N.am    1  UNL1       -0.3023
     19 H         -23.8045   -5.6977  -10.9584 H       1  UNL1        0.1497
     20 C         -25.5707  -13.5317  -13.8742 C.ar    1  UNL1        0.2249
     21 C         -25.2146  -14.4746  -14.8434 C.ar    1  UNL1        0.0577
     22 C         -24.1599  -14.2026  -15.7173 C.ar    1  UNL1        0.0063
     23 C         -23.4671  -12.9898  -15.6162 C.ar    1  UNL1        0.0179
     24 C         -22.4067  -12.6827  -16.4780 C.ar    1  UNL1        0.0016
     25 C         -21.7337  -11.4640  -16.3533 C.ar    1  UNL1        0.0046
     26 C         -22.1039  -10.5386  -15.3604 C.ar    1  UNL1        0.0551
     27 C         -23.1780  -10.8439  -14.5054 C.ar    1  UNL1        0.0237
     28 C         -23.8548  -12.0624  -14.6257 C.ar    1  UNL1        0.0845
     29 N         -24.8865  -12.3557  -13.7892 N.ar    1  UNL1       -0.2117
     30 C         -26.4414  -14.4602  -11.7510 C.3     1  UNL1        0.2542
     31 O         -26.6274  -13.8095  -13.0024 O.3     1  UNL1       -0.4561
     32 C         -18.9283   -8.7611   -6.9950 C.3     1  UNL1        0.0872
     33 C         -17.9677   -7.5931   -6.6946 C.3     1  UNL1        0.0244
     34 C         -19.6788   -9.1047   -5.6860 C.3     1  UNL1        0.0244
     35 C         -18.1373  -10.0101   -7.4301 C.3     1  UNL1        0.0244
@<TRIPOS>BOND
     1    30    31    1
     2    31    20    1
     3    20    21   ar
     4    21    22   ar
     5    22    23   ar
     6    23    24   ar
     7    24    25   ar
     8    25    26   ar
     9    26     1    1
    10     1     2    2
    11     1     3   am
    12     3     4    1
    13     4     5    1
    14     5     6    1
    15     6     7    1
    16     7     8    1
    17     6     9    1
    18     9    10    1
    19    10    11   ar
    20    11    12   ar
    21    12    13   ar
    22    13    32    1
    23    32    33    1
    24    32    34    1
    25    32    35    1
    26    13    14   ar
    27    14    15    1
    28    11    16    1
    29    16    17    2
    30    16    18   am
    31    26    27   ar
    32    27    28   ar
    33    28    29   ar
    34    29    20   ar
    35    28    23   ar
    36     8     3    1
    37    14    10   ar
    38    18     6    1
    39    18    19    1
