@<TRIPOS>MOLECULE
*****
 30 32 0 0 0
SMALL
GASTEIGER

@<TRIPOS>ATOM
      1 C         -22.2121   -8.6603  -12.6054 C.2     1  UNL1       -0.0222
      2 C         -21.6313   -9.5737  -11.7759 C.2     1  UNL1       -0.0039
      3 C         -21.3277   -9.2575  -10.3557 C.ar    1  UNL1        0.0029
      4 C         -19.9969   -9.1799   -9.9229 C.ar    1  UNL1        0.0033
      5 C         -19.7025   -8.8898   -8.5891 C.ar    1  UNL1        0.0400
      6 C         -20.7389   -8.6849   -7.6566 C.ar    1  UNL1        0.1720
      7 C         -22.0749   -8.7772   -8.0890 C.ar    1  UNL1        0.1677
      8 O         -23.1336   -8.5856   -7.2012 O.3     1  UNL1       -0.5029
      9 C         -22.3624   -9.0685   -9.4262 C.ar    1  UNL1        0.0398
     10 H         -22.9859   -8.3738   -6.2218 H       1  UNL1        0.2923
     11 O         -20.4865   -8.3860   -6.3061 O.3     1  UNL1       -0.4709
     12 C         -19.1967   -8.2069   -5.7208 C.3     1  UNL1        0.2228
     13 C         -19.1897   -8.7292   -4.2699 C.3     1  UNL1        0.1201
     14 N         -20.3568   -8.3074   -3.4632 N.3     1  UNL1       -0.2672
     15 C         -19.9823   -7.5172   -2.2802 C.3     1  UNL1        0.0898
     16 C         -21.2346   -9.4304   -3.0979 C.3     1  UNL1        0.0898
     17 C         -21.2987  -10.9444  -12.2294 C.ar    1  UNL1       -0.0003
     18 C         -21.6814  -11.3867  -13.5066 C.ar    1  UNL1       -0.0000
     19 C         -21.3283  -12.6673  -13.9426 C.ar    1  UNL1       -0.0000
     20 C         -20.5775  -13.5067  -13.1148 C.ar    1  UNL1       -0.0000
     21 C         -20.1721  -13.0639  -11.8526 C.ar    1  UNL1       -0.0000
     22 C         -20.5231  -11.7839  -11.4132 C.ar    1  UNL1       -0.0000
     23 C         -22.3491   -7.2356  -12.1971 C.ar    1  UNL1       -0.0040
     24 C         -23.6192   -6.6476  -12.0662 C.ar    1  UNL1       -0.0003
     25 C         -23.7408   -5.3093  -11.6802 C.ar    1  UNL1       -0.0000
     26 C         -22.5983   -4.5449  -11.4303 C.ar    1  UNL1       -0.0000
     27 C         -21.3312   -5.1159  -11.5707 C.ar    1  UNL1       -0.0000
     28 C         -21.2046   -6.4532  -11.9574 C.ar    1  UNL1       -0.0003
     29 C         -22.0416   -8.2408  -15.0901 C.3     1  UNL1        0.0050
     30 C         -22.7300   -9.0378  -13.9826 C.3     1  UNL1        0.0264
@<TRIPOS>BOND
     1    29    30    1
     2    30     1    1
     3     1     2    2
     4     2    17    1
     5    17    18   ar
     6    18    19   ar
     7    19    20   ar
     8    20    21   ar
     9    21    22   ar
    10     2     3    1
    11     3     4   ar
    12     4     5   ar
    13     5     6   ar
    14     6    11    1
    15    11    12    1
    16    12    13    1
    17    13    14    1
    18    14    15    1
    19    14    16    1
    20     6     7   ar
    21     7     8    1
    22     7     9   ar
    23     1    23    1
    24    23    24   ar
    25    24    25   ar
    26    25    26   ar
    27    26    27   ar
    28    27    28   ar
    29    22    17   ar
    30     9     3   ar
    31    28    23   ar
    32     8    10    1
@<TRIPOS>MOLECULE
*****
 30 32 0 0 0
SMALL
GASTEIGER

@<TRIPOS>ATOM
      1 C         -22.1588   -8.6291  -12.5735 C.2     1  UNL1       -0.0222
      2 C         -21.5573   -9.5226  -11.7370 C.2     1  UNL1       -0.0039
      3 C         -21.2612   -9.1886  -10.3194 C.ar    1  UNL1        0.0029
      4 C         -19.9332   -9.0444   -9.8948 C.ar    1  UNL1        0.0033
      5 C         -19.6454   -8.7372   -8.5635 C.ar    1  UNL1        0.0400
      6 C         -20.6851   -8.5815   -7.6251 C.ar    1  UNL1        0.1720
      7 C         -22.0175   -8.7407   -8.0490 C.ar    1  UNL1        0.1677
      8 O         -23.0790   -8.5996   -7.1551 O.3     1  UNL1       -0.5029
      9 C         -22.2983   -9.0489   -9.3838 C.ar    1  UNL1        0.0398
     10 H         -22.9361   -8.3786   -6.1770 H       1  UNL1        0.2923
     11 O         -20.4396   -8.2675   -6.2767 O.3     1  UNL1       -0.4709
     12 C         -19.4639   -8.8912   -5.4417 C.3     1  UNL1        0.2228
     13 C         -18.1682   -8.0554   -5.4158 C.3     1  UNL1        0.1201
     14 N         -16.9266   -8.8560   -5.3247 N.3     1  UNL1       -0.2672
     15 C         -17.1810  -10.2878   -5.1029 C.3     1  UNL1        0.0898
     16 C         -15.9754   -8.3243   -4.3359 C.3     1  UNL1        0.0898
     17 C         -21.1935  -10.8888  -12.1800 C.ar    1  UNL1       -0.0003
     18 C         -20.4365  -11.7312  -11.3489 C.ar    1  UNL1       -0.0000
     19 C         -20.1321  -13.0333  -11.7571 C.ar    1  UNL1       -0.0000
     20 C         -20.5950  -13.5078  -12.9876 C.ar    1  UNL1       -0.0000
     21 C         -21.3697  -12.6834  -13.8084 C.ar    1  UNL1       -0.0000
     22 C         -21.6763  -11.3808  -13.4035 C.ar    1  UNL1       -0.0000
     23 C         -22.3282   -7.2048  -12.1762 C.ar    1  UNL1       -0.0040
     24 C         -21.2080   -6.3955  -11.9186 C.ar    1  UNL1       -0.0003
     25 C         -21.3743   -5.0577  -11.5479 C.ar    1  UNL1       -0.0000
     26 C         -22.6573   -4.5188  -11.4229 C.ar    1  UNL1       -0.0000
     27 C         -23.7772   -5.3182  -11.6635 C.ar    1  UNL1       -0.0000
     28 C         -23.6160   -6.6566  -12.0334 C.ar    1  UNL1       -0.0003
     29 C         -21.9853   -8.2369  -15.0625 C.3     1  UNL1        0.0050
     30 C         -22.6678   -9.0289  -13.9477 C.3     1  UNL1        0.0264
@<TRIPOS>BOND
     1    29    30    1
     2    30     1    1
     3     1     2    2
     4     2    17    1
     5    17    18   ar
     6    18    19   ar
     7    19    20   ar
     8    20    21   ar
     9    21    22   ar
    10     2     3    1
    11     3     4   ar
    12     4     5   ar
    13     5     6   ar
    14     6    11    1
    15    11    12    1
    16    12    13    1
    17    13    14    1
    18    14    15    1
    19    14    16    1
    20     6     7   ar
    21     7     8    1
    22     7     9   ar
    23     1    23    1
    24    23    24   ar
    25    24    25   ar
    26    25    26   ar
    27    26    27   ar
    28    27    28   ar
    29    22    17   ar
    30     9     3   ar
    31    28    23   ar
    32     8    10    1
@<TRIPOS>MOLECULE
*****
 30 32 0 0 0
SMALL
GASTEIGER

@<TRIPOS>ATOM
      1 C         -24.3957  -11.0559  -13.8130 C.2     1  UNL1       -0.0222
      2 C         -23.0539  -11.2515  -13.9584 C.2     1  UNL1       -0.0039
      3 C         -22.0742  -10.7020  -12.9851 C.ar    1  UNL1        0.0029
      4 C         -21.6328  -11.4894  -11.9129 C.ar    1  UNL1        0.0033
      5 C         -20.7176  -10.9791  -10.9900 C.ar    1  UNL1        0.0400
      6 C         -20.2355   -9.6610  -11.1156 C.ar    1  UNL1        0.1720
      7 C         -20.6902   -8.8662  -12.1842 C.ar    1  UNL1        0.1677
      8 O         -20.2435   -7.5548  -12.3467 O.3     1  UNL1       -0.5029
      9 C         -21.6072   -9.3836  -13.1044 C.ar    1  UNL1        0.0398
     10 H         -19.5813   -7.1268  -11.7109 H       1  UNL1        0.2923
     11 O         -19.3101   -9.1100  -10.2117 O.3     1  UNL1       -0.4709
     12 C         -19.4796   -9.0240   -8.7967 C.3     1  UNL1        0.2228
     13 C         -19.9481   -7.6098   -8.3983 C.3     1  UNL1        0.1201
     14 N         -21.4179   -7.4368   -8.3767 N.3     1  UNL1       -0.2672
     15 C         -22.1460   -8.7135   -8.3141 C.3     1  UNL1        0.0898
     16 C         -21.9103   -6.5960   -9.4793 C.3     1  UNL1        0.0898
     17 C         -22.4944  -12.0497  -15.0742 C.ar    1  UNL1       -0.0003
     18 C         -22.1248  -13.3906  -14.8780 C.ar    1  UNL1       -0.0000
     19 C         -21.6359  -14.1490  -15.9459 C.ar    1  UNL1       -0.0000
     20 C         -21.5292  -13.5799  -17.2181 C.ar    1  UNL1       -0.0000
     21 C         -21.9186  -12.2537  -17.4258 C.ar    1  UNL1       -0.0000
     22 C         -22.4081  -11.4923  -16.3603 C.ar    1  UNL1       -0.0000
     23 C         -24.9230  -10.0880  -12.8129 C.ar    1  UNL1       -0.0040
     24 C         -24.7567  -10.3193  -11.4363 C.ar    1  UNL1       -0.0003
     25 C         -25.2526   -9.4048  -10.5021 C.ar    1  UNL1       -0.0000
     26 C         -25.9250   -8.2580  -10.9321 C.ar    1  UNL1       -0.0000
     27 C         -26.1073   -8.0257  -12.2973 C.ar    1  UNL1       -0.0000
     28 C         -25.6142   -8.9376  -13.2350 C.ar    1  UNL1       -0.0003
     29 C         -25.7810  -13.1521  -14.0690 C.3     1  UNL1        0.0050
     30 C         -25.4141  -11.7935  -14.6651 C.3     1  UNL1        0.0264
@<TRIPOS>BOND
     1    29    30    1
     2    30     1    1
     3     1     2    2
     4     2    17    1
     5    17    18   ar
     6    18    19   ar
     7    19    20   ar
     8    20    21   ar
     9    21    22   ar
    10     2     3    1
    11     3     4   ar
    12     4     5   ar
    13     5     6   ar
    14     6    11    1
    15    11    12    1
    16    12    13    1
    17    13    14    1
    18    14    15    1
    19    14    16    1
    20     6     7   ar
    21     7     8    1
    22     7     9   ar
    23     1    23    1
    24    23    24   ar
    25    24    25   ar
    26    25    26   ar
    27    26    27   ar
    28    27    28   ar
    29    22    17   ar
    30     9     3   ar
    31    28    23   ar
    32     8    10    1
@<TRIPOS>MOLECULE
*****
 30 32 0 0 0
SMALL
GASTEIGER

@<TRIPOS>ATOM
      1 C         -22.7435   -9.9144  -12.8751 C.2     1  UNL1       -0.0222
      2 C         -24.0044  -10.0648  -13.3723 C.2     1  UNL1       -0.0039
      3 C         -24.9498   -8.9216  -13.4635 C.ar    1  UNL1        0.0029
      4 C         -24.5811   -7.7592  -14.1546 C.ar    1  UNL1        0.0033
      5 C         -25.4604   -6.6779  -14.2399 C.ar    1  UNL1        0.0400
      6 C         -26.7250   -6.7344  -13.6207 C.ar    1  UNL1        0.1720
      7 C         -27.0887   -7.8962  -12.9149 C.ar    1  UNL1        0.1677
      8 O         -28.3283   -7.9961  -12.2832 O.3     1  UNL1       -0.5029
      9 C         -26.2029   -8.9752  -12.8332 C.ar    1  UNL1        0.0398
     10 H         -29.0091   -7.2466  -12.3073 H       1  UNL1        0.2923
     11 O         -27.6420   -5.6705  -13.6862 O.3     1  UNL1       -0.4709
     12 C         -28.1385   -5.0729  -14.8838 C.3     1  UNL1        0.2228
     13 C         -29.6634   -5.2762  -14.9915 C.3     1  UNL1        0.1201
     14 N         -30.3684   -4.2193  -15.7509 N.3     1  UNL1       -0.2672
     15 C         -29.4562   -3.3573  -16.5184 C.3     1  UNL1        0.0898
     16 C         -31.2754   -3.4210  -14.9111 C.3     1  UNL1        0.0898
     17 C         -24.4963  -11.3664  -13.8813 C.ar    1  UNL1       -0.0003
     18 C         -24.4849  -11.6453  -15.2579 C.ar    1  UNL1       -0.0000
     19 C         -24.9125  -12.8911  -15.7268 C.ar    1  UNL1       -0.0000
     20 C         -25.3372  -13.8707  -14.8249 C.ar    1  UNL1       -0.0000
     21 C         -25.3275  -13.6087  -13.4520 C.ar    1  UNL1       -0.0000
     22 C         -24.9004  -12.3642  -12.9794 C.ar    1  UNL1       -0.0000
     23 C         -22.3392   -8.6600  -12.1835 C.ar    1  UNL1       -0.0040
     24 C         -21.3933   -7.7963  -12.7628 C.ar    1  UNL1       -0.0003
     25 C         -21.0196   -6.6184  -12.1088 C.ar    1  UNL1       -0.0000
     26 C         -21.5788   -6.2967  -10.8695 C.ar    1  UNL1       -0.0000
     27 C         -22.5094   -7.1549  -10.2791 C.ar    1  UNL1       -0.0000
     28 C         -22.8854   -8.3342  -10.9286 C.ar    1  UNL1       -0.0003
     29 C         -21.1941  -11.4570  -11.6108 C.3     1  UNL1        0.0050
     30 C         -21.6990  -11.0120  -12.9830 C.3     1  UNL1        0.0264
@<TRIPOS>BOND
     1    29    30    1
     2    30     1    1
     3     1     2    2
     4     2    17    1
     5    17    18   ar
     6    18    19   ar
     7    19    20   ar
     8    20    21   ar
     9    21    22   ar
    10     2     3    1
    11     3     4   ar
    12     4     5   ar
    13     5     6   ar
    14     6    11    1
    15    11    12    1
    16    12    13    1
    17    13    14    1
    18    14    15    1
    19    14    16    1
    20     6     7   ar
    21     7     8    1
    22     7     9   ar
    23     1    23    1
    24    23    24   ar
    25    24    25   ar
    26    25    26   ar
    27    26    27   ar
    28    27    28   ar
    29    22    17   ar
    30     9     3   ar
    31    28    23   ar
    32     8    10    1
@<TRIPOS>MOLECULE
*****
 30 32 0 0 0
SMALL
GASTEIGER

@<TRIPOS>ATOM
      1 C         -24.1699   -9.6950  -12.6047 C.2     1  UNL1       -0.0222
      2 C         -22.8915   -9.2347  -12.7209 C.2     1  UNL1       -0.0039
      3 C         -22.0854   -8.8580  -11.5304 C.ar    1  UNL1        0.0029
      4 C         -21.0500   -9.6940  -11.0906 C.ar    1  UNL1        0.0033
      5 C         -20.2918   -9.3513   -9.9692 C.ar    1  UNL1        0.0400
      6 C         -20.5660   -8.1673   -9.2558 C.ar    1  UNL1        0.1720
      7 C         -21.6151   -7.3358   -9.6895 C.ar    1  UNL1        0.1677
      8 O         -21.9252   -6.1561   -9.0129 O.3     1  UNL1       -0.5029
      9 C         -22.3706   -7.6856  -10.8131 C.ar    1  UNL1        0.0398
     10 H         -21.4138   -5.8531   -8.1928 H       1  UNL1        0.2923
     11 O         -19.8242   -7.7826   -8.1249 O.3     1  UNL1       -0.4709
     12 C         -19.5320   -8.6119   -7.0002 C.3     1  UNL1        0.2228
     13 C         -18.6412   -7.8555   -5.9940 C.3     1  UNL1        0.1201
     14 N         -17.3696   -8.5397   -5.6692 N.3     1  UNL1       -0.2672
     15 C         -17.5613   -9.9301   -5.2284 C.3     1  UNL1        0.0898
     16 C         -16.5439   -7.7864   -4.7123 C.3     1  UNL1        0.0898
     17 C         -22.2183   -9.1139  -14.0352 C.ar    1  UNL1       -0.0003
     18 C         -21.7708  -10.2581  -14.7163 C.ar    1  UNL1       -0.0000
     19 C         -21.1732  -10.1390  -15.9746 C.ar    1  UNL1       -0.0000
     20 C         -21.0343   -8.8810  -16.5676 C.ar    1  UNL1       -0.0000
     21 C         -21.4998   -7.7409  -15.9065 C.ar    1  UNL1       -0.0000
     22 C         -22.0981   -7.8561  -14.6482 C.ar    1  UNL1       -0.0000
     23 C         -24.8959   -9.6155  -11.3079 C.ar    1  UNL1       -0.0040
     24 C         -25.8483   -8.6066  -11.0816 C.ar    1  UNL1       -0.0003
     25 C         -26.5283   -8.5389   -9.8618 C.ar    1  UNL1       -0.0000
     26 C         -26.2585   -9.4701   -8.8558 C.ar    1  UNL1       -0.0000
     27 C         -25.3042  -10.4684   -9.0657 C.ar    1  UNL1       -0.0000
     28 C         -24.6210  -10.5395  -10.2831 C.ar    1  UNL1       -0.0003
     29 C         -24.9416  -11.8192  -13.7323 C.3     1  UNL1        0.0050
     30 C         -24.9213  -10.2918  -13.7823 C.3     1  UNL1        0.0264
@<TRIPOS>BOND
     1    29    30    1
     2    30     1    1
     3     1     2    2
     4     2    17    1
     5    17    18   ar
     6    18    19   ar
     7    19    20   ar
     8    20    21   ar
     9    21    22   ar
    10     2     3    1
    11     3     4   ar
    12     4     5   ar
    13     5     6   ar
    14     6    11    1
    15    11    12    1
    16    12    13    1
    17    13    14    1
    18    14    15    1
    19    14    16    1
    20     6     7   ar
    21     7     8    1
    22     7     9   ar
    23     1    23    1
    24    23    24   ar
    25    24    25   ar
    26    25    26   ar
    27    26    27   ar
    28    27    28   ar
    29    22    17   ar
    30     9     3   ar
    31    28    23   ar
    32     8    10    1
@<TRIPOS>MOLECULE
*****
 30 32 0 0 0
SMALL
GASTEIGER

@<TRIPOS>ATOM
      1 C         -22.5850  -10.5342  -12.6632 C.2     1  UNL1       -0.0222
      2 C         -23.8318  -10.5402  -13.2157 C.2     1  UNL1       -0.0039
      3 C         -24.6507   -9.3034  -13.3097 C.ar    1  UNL1        0.0029
      4 C         -24.2573   -8.2643  -14.1642 C.ar    1  UNL1        0.0033
      5 C         -25.0169   -7.0961  -14.2540 C.ar    1  UNL1        0.0400
      6 C         -26.1818   -6.9396  -13.4766 C.ar    1  UNL1        0.1720
      7 C         -26.5682   -7.9774  -12.6082 C.ar    1  UNL1        0.1677
      8 O         -27.7115   -7.8656  -11.8169 O.3     1  UNL1       -0.5029
      9 C         -25.8023   -9.1443  -12.5231 C.ar    1  UNL1        0.0398
     10 H         -28.3033   -7.0439  -11.8355 H       1  UNL1        0.2923
     11 O         -26.9778   -5.7822  -13.5401 O.3     1  UNL1       -0.4709
     12 C         -27.9180   -5.4749  -14.5695 C.3     1  UNL1        0.2228
     13 C         -27.2821   -4.5330  -15.6119 C.3     1  UNL1        0.1201
     14 N         -28.2270   -3.5714  -16.2230 N.3     1  UNL1       -0.2672
     15 C         -29.6360   -3.9403  -16.0169 C.3     1  UNL1        0.0898
     16 C         -27.9448   -3.3187  -17.6449 C.3     1  UNL1        0.0898
     17 C         -24.4313  -11.7699  -13.7847 C.ar    1  UNL1       -0.0003
     18 C         -24.3436  -12.0363  -15.1611 C.ar    1  UNL1       -0.0000
     19 C         -24.8761  -13.2185  -15.6841 C.ar    1  UNL1       -0.0000
     20 C         -25.4831  -14.1486  -14.8356 C.ar    1  UNL1       -0.0000
     21 C         -25.5516  -13.9014  -13.4617 C.ar    1  UNL1       -0.0000
     22 C         -25.0201  -12.7204  -12.9350 C.ar    1  UNL1       -0.0000
     23 C         -22.0854   -9.3474  -11.9170 C.ar    1  UNL1       -0.0040
     24 C         -22.5232   -9.0898  -10.6062 C.ar    1  UNL1       -0.0003
     25 C         -22.0482   -7.9742   -9.9100 C.ar    1  UNL1       -0.0000
     26 C         -21.1406   -7.1027  -10.5174 C.ar    1  UNL1       -0.0000
     27 C         -20.7098   -7.3423  -11.8243 C.ar    1  UNL1       -0.0000
     28 C         -21.1827   -8.4557  -12.5247 C.ar    1  UNL1       -0.0003
     29 C         -20.8397  -11.9284  -11.4848 C.3     1  UNL1        0.0050
     30 C         -21.6543  -11.7306  -12.7627 C.3     1  UNL1        0.0264
@<TRIPOS>BOND
     1    29    30    1
     2    30     1    1
     3     1     2    2
     4     2    17    1
     5    17    18   ar
     6    18    19   ar
     7    19    20   ar
     8    20    21   ar
     9    21    22   ar
    10     2     3    1
    11     3     4   ar
    12     4     5   ar
    13     5     6   ar
    14     6    11    1
    15    11    12    1
    16    12    13    1
    17    13    14    1
    18    14    15    1
    19    14    16    1
    20     6     7   ar
    21     7     8    1
    22     7     9   ar
    23     1    23    1
    24    23    24   ar
    25    24    25   ar
    26    25    26   ar
    27    26    27   ar
    28    27    28   ar
    29    22    17   ar
    30     9     3   ar
    31    28    23   ar
    32     8    10    1
@<TRIPOS>MOLECULE
*****
 30 32 0 0 0
SMALL
GASTEIGER

@<TRIPOS>ATOM
      1 C         -22.8326   -9.1822  -12.8711 C.2     1  UNL1       -0.0222
      2 C         -23.3820   -7.9919  -12.4955 C.2     1  UNL1       -0.0039
      3 C         -24.7400   -7.5832  -12.9400 C.ar    1  UNL1        0.0029
      4 C         -24.8913   -6.7391  -14.0487 C.ar    1  UNL1        0.0033
      5 C         -26.1630   -6.3448  -14.4694 C.ar    1  UNL1        0.0400
      6 C         -27.3113   -6.7785  -13.7772 C.ar    1  UNL1        0.1720
      7 C         -27.1578   -7.6143  -12.6555 C.ar    1  UNL1        0.1677
      8 O         -28.2650   -8.0655  -11.9371 O.3     1  UNL1       -0.5029
      9 C         -25.8810   -8.0049  -12.2395 C.ar    1  UNL1        0.0398
     10 H         -29.2128   -7.8141  -12.1909 H       1  UNL1        0.2923
     11 O         -28.6099   -6.4092  -14.1700 O.3     1  UNL1       -0.4709
     12 C         -28.9667   -5.1898  -14.8211 C.3     1  UNL1        0.2228
     13 C         -30.4698   -5.1867  -15.1658 C.3     1  UNL1        0.1201
     14 N         -31.1852   -3.9535  -14.7678 N.3     1  UNL1       -0.2672
     15 C         -32.5662   -4.2065  -14.3289 C.3     1  UNL1        0.0898
     16 C         -31.1376   -2.9069  -15.8011 C.3     1  UNL1        0.0898
     17 C         -22.6739   -7.0506  -11.5966 C.ar    1  UNL1       -0.0003
     18 C         -22.0139   -5.9254  -12.1177 C.ar    1  UNL1       -0.0000
     19 C         -21.3828   -5.0200  -11.2593 C.ar    1  UNL1       -0.0000
     20 C         -21.4212   -5.2224   -9.8769 C.ar    1  UNL1       -0.0000
     21 C         -22.0974   -6.3264   -9.3503 C.ar    1  UNL1       -0.0000
     22 C         -22.7298   -7.2339  -10.2054 C.ar    1  UNL1       -0.0000
     23 C         -23.4646  -10.0153  -13.9303 C.ar    1  UNL1       -0.0040
     24 C         -24.4989  -10.9128  -13.6129 C.ar    1  UNL1       -0.0003
     25 C         -25.0897  -11.6908  -14.6132 C.ar    1  UNL1       -0.0000
     26 C         -24.6488  -11.5867  -15.9348 C.ar    1  UNL1       -0.0000
     27 C         -23.6125  -10.7077  -16.2583 C.ar    1  UNL1       -0.0000
     28 C         -23.0181   -9.9286  -15.2616 C.ar    1  UNL1       -0.0003
     29 C         -21.8278  -10.7718  -11.1851 C.3     1  UNL1        0.0050
     30 C         -21.5513   -9.7099  -12.2490 C.3     1  UNL1        0.0264
@<TRIPOS>BOND
     1    29    30    1
     2    30     1    1
     3     1     2    2
     4     2    17    1
     5    17    18   ar
     6    18    19   ar
     7    19    20   ar
     8    20    21   ar
     9    21    22   ar
    10     2     3    1
    11     3     4   ar
    12     4     5   ar
    13     5     6   ar
    14     6    11    1
    15    11    12    1
    16    12    13    1
    17    13    14    1
    18    14    15    1
    19    14    16    1
    20     6     7   ar
    21     7     8    1
    22     7     9   ar
    23     1    23    1
    24    23    24   ar
    25    24    25   ar
    26    25    26   ar
    27    26    27   ar
    28    27    28   ar
    29    22    17   ar
    30     9     3   ar
    31    28    23   ar
    32     8    10    1
@<TRIPOS>MOLECULE
*****
 30 32 0 0 0
SMALL
GASTEIGER

@<TRIPOS>ATOM
      1 C         -24.1092   -9.7367  -12.7133 C.2     1  UNL1       -0.0222
      2 C         -22.8228   -9.3123  -12.8707 C.2     1  UNL1       -0.0039
      3 C         -21.9720   -8.9491  -11.7075 C.ar    1  UNL1        0.0029
      4 C         -22.1536   -7.7183  -11.0620 C.ar    1  UNL1        0.0033
      5 C         -21.3544   -7.3661   -9.9725 C.ar    1  UNL1        0.0400
      6 C         -20.3450   -8.2367   -9.5154 C.ar    1  UNL1        0.1720
      7 C         -20.1538   -9.4660  -10.1731 C.ar    1  UNL1        0.1677
      8 O         -19.1649  -10.3580   -9.7583 O.3     1  UNL1       -0.5029
      9 C         -20.9576   -9.8120  -11.2639 C.ar    1  UNL1        0.0398
     10 H         -18.5525  -10.1604   -8.9761 H       1  UNL1        0.2923
     11 O         -19.5218   -7.9232   -8.4195 O.3     1  UNL1       -0.4709
     12 C         -19.6506   -8.4586   -7.1024 C.3     1  UNL1        0.2228
     13 C         -18.5945   -7.8373   -6.1660 C.3     1  UNL1        0.1201
     14 N         -17.5047   -8.7602   -5.7769 N.3     1  UNL1       -0.2672
     15 C         -17.8233  -10.1711   -6.0448 C.3     1  UNL1        0.0898
     16 C         -17.0630   -8.5684   -4.3864 C.3     1  UNL1        0.0898
     17 C         -22.1859   -9.2193  -14.2052 C.ar    1  UNL1       -0.0003
     18 C         -21.9418   -7.9677  -14.7944 C.ar    1  UNL1       -0.0000
     19 C         -21.3033   -7.8870  -16.0356 C.ar    1  UNL1       -0.0000
     20 C         -20.8897   -9.0521  -16.6874 C.ar    1  UNL1       -0.0000
     21 C         -21.1071  -10.2994  -16.0953 C.ar    1  UNL1       -0.0000
     22 C         -21.7450  -10.3841  -14.8541 C.ar    1  UNL1       -0.0000
     23 C         -24.7941   -9.6282  -11.3963 C.ar    1  UNL1       -0.0040
     24 C         -24.5176  -10.5460  -10.3681 C.ar    1  UNL1       -0.0003
     25 C         -25.1628  -10.4370   -9.1325 C.ar    1  UNL1       -0.0000
     26 C         -26.0942   -9.4184   -8.9152 C.ar    1  UNL1       -0.0000
     27 C         -26.3860   -8.5095   -9.9349 C.ar    1  UNL1       -0.0000
     28 C         -25.7442   -8.6151  -11.1722 C.ar    1  UNL1       -0.0003
     29 C         -24.9563  -11.8480  -13.8106 C.3     1  UNL1        0.0050
     30 C         -24.9110  -10.3212  -13.8634 C.3     1  UNL1        0.0264
@<TRIPOS>BOND
     1    29    30    1
     2    30     1    1
     3     1     2    2
     4     2    17    1
     5    17    18   ar
     6    18    19   ar
     7    19    20   ar
     8    20    21   ar
     9    21    22   ar
    10     2     3    1
    11     3     4   ar
    12     4     5   ar
    13     5     6   ar
    14     6    11    1
    15    11    12    1
    16    12    13    1
    17    13    14    1
    18    14    15    1
    19    14    16    1
    20     6     7   ar
    21     7     8    1
    22     7     9   ar
    23     1    23    1
    24    23    24   ar
    25    24    25   ar
    26    25    26   ar
    27    26    27   ar
    28    27    28   ar
    29    22    17   ar
    30     9     3   ar
    31    28    23   ar
    32     8    10    1
@<TRIPOS>MOLECULE
*****
 30 32 0 0 0
SMALL
GASTEIGER

@<TRIPOS>ATOM
      1 C         -22.9373   -8.1262  -12.7857 C.2     1  UNL1       -0.0222
      2 C         -22.4583   -9.2617  -12.2016 C.2     1  UNL1       -0.0039
      3 C         -21.7632   -9.2313  -10.8883 C.ar    1  UNL1        0.0029
      4 C         -20.3867   -9.4859  -10.8166 C.ar    1  UNL1        0.0033
      5 C         -19.7267   -9.4660   -9.5862 C.ar    1  UNL1        0.0400
      6 C         -20.4374   -9.2035   -8.3981 C.ar    1  UNL1        0.1720
      7 C         -21.8219   -8.9621   -8.4693 C.ar    1  UNL1        0.1677
      8 O         -22.5672   -8.7013   -7.3194 O.3     1  UNL1       -0.5029
      9 C         -22.4766   -8.9842   -9.7049 C.ar    1  UNL1        0.0398
     10 H         -22.1475   -8.6743   -6.3980 H       1  UNL1        0.2923
     11 O         -19.8110   -9.1692   -7.1397 O.3     1  UNL1       -0.4709
     12 C         -18.9975   -8.1057   -6.6442 C.3     1  UNL1        0.2228
     13 C         -19.3038   -7.8462   -5.1552 C.3     1  UNL1        0.1201
     14 N         -19.5841   -9.0675   -4.3674 N.3     1  UNL1       -0.2672
     15 C         -20.8775   -9.0163   -3.6685 C.3     1  UNL1        0.0898
     16 C         -18.4925   -9.4143   -3.4436 C.3     1  UNL1        0.0898
     17 C         -22.6306  -10.5956  -12.8232 C.ar    1  UNL1       -0.0003
     18 C         -23.8191  -11.3212  -12.6390 C.ar    1  UNL1       -0.0000
     19 C         -23.9901  -12.5610  -13.2622 C.ar    1  UNL1       -0.0000
     20 C         -22.9847  -13.0756  -14.0856 C.ar    1  UNL1       -0.0000
     21 C         -21.8099  -12.3474  -14.2931 C.ar    1  UNL1       -0.0000
     22 C         -21.6354  -11.1072  -13.6718 C.ar    1  UNL1       -0.0000
     23 C         -22.5778   -6.7833  -12.2541 C.ar    1  UNL1       -0.0040
     24 C         -21.2316   -6.3934  -12.1456 C.ar    1  UNL1       -0.0003
     25 C         -20.9009   -5.1295  -11.6475 C.ar    1  UNL1       -0.0000
     26 C         -21.9082   -4.2485  -11.2459 C.ar    1  UNL1       -0.0000
     27 C         -23.2484   -4.6314  -11.3371 C.ar    1  UNL1       -0.0000
     28 C         -23.5839   -5.8943  -11.8335 C.ar    1  UNL1       -0.0003
     29 C         -23.0635   -7.9179  -15.2995 C.3     1  UNL1        0.0050
     30 C         -23.8397   -8.1677  -14.0069 C.3     1  UNL1        0.0264
@<TRIPOS>BOND
     1    29    30    1
     2    30     1    1
     3     1     2    2
     4     2    17    1
     5    17    18   ar
     6    18    19   ar
     7    19    20   ar
     8    20    21   ar
     9    21    22   ar
    10     2     3    1
    11     3     4   ar
    12     4     5   ar
    13     5     6   ar
    14     6    11    1
    15    11    12    1
    16    12    13    1
    17    13    14    1
    18    14    15    1
    19    14    16    1
    20     6     7   ar
    21     7     8    1
    22     7     9   ar
    23     1    23    1
    24    23    24   ar
    25    24    25   ar
    26    25    26   ar
    27    26    27   ar
    28    27    28   ar
    29    22    17   ar
    30     9     3   ar
    31    28    23   ar
    32     8    10    1
