@<TRIPOS>MOLECULE
*****
 40 44 0 0 0
SMALL
GASTEIGER

@<TRIPOS>ATOM
      1 N          47.8032   12.3455  -23.8557 N.3     1  UNL1       -0.2679
      2 C          48.4536   11.0014  -23.6337 C.3     1  UNL1        0.0978
      3 C          49.7845   10.7556  -24.4149 C.3     1  UNL1        0.0224
      4 C          50.5739    9.4837  -23.9920 C.3     1  UNL1        0.0065
      5 C          49.9184    8.6750  -22.8635 C.3     1  UNL1        0.0277
      6 C          49.4443    9.6035  -21.7872 C.ar    1  UNL1       -0.0073
      7 C          49.7058    9.3607  -20.4328 C.ar    1  UNL1       -0.0015
      8 C          49.2858   10.2810  -19.4719 C.ar    1  UNL1        0.0203
      9 C          48.6113   11.4330  -19.8791 C.ar    1  UNL1        0.0985
     10 N          48.3571   11.6429  -21.1979 N.ar    1  UNL1       -0.2471
     11 C          48.7423   10.7604  -22.1589 C.ar    1  UNL1        0.0695
     12 C          48.7412   13.3558  -24.4326 C.3     1  UNL1        0.0725
     13 C          49.3319   14.3178  -23.3771 C.3     1  UNL1        0.0188
     14 C          48.2663   15.1655  -22.6471 C.3     1  UNL1        0.0185
     15 C          47.1024   15.5705  -23.5648 C.3     1  UNL1        0.0686
     16 N          46.9903   17.0350  -23.6426 N.3     1  UNL1       -0.2985
     17 H          47.8432   17.4255  -23.1750 H       1  UNL1        0.1232
     18 C          49.2864   19.6718  -27.7748 C.3     1  UNL1        0.0000
     19 C          49.3100   18.5669  -26.6971 C.3     1  UNL1        0.0001
     20 C          50.7593   18.0509  -26.5660 C.3     1  UNL1        0.0000
     21 C          48.3734   17.4010  -27.1473 C.3     1  UNL1        0.0014
     22 C          47.8084   16.6261  -25.9505 C.3     1  UNL1        0.0157
     23 C          46.9240   17.5207  -25.0357 C.3     1  UNL1        0.0540
     24 C          47.3488   19.0137  -25.1045 C.3     1  UNL1        0.0157
     25 C          48.8580   19.1627  -25.3271 C.3     1  UNL1        0.0014
     26 C          46.5997   12.1692  -24.7362 C.3     1  UNL1        0.0886
     27 C          46.7704   12.6513  -26.2127 C.3     1  UNL1        0.0748
     28 C          46.8283   11.4896  -27.2374 C.3     1  UNL1        0.0432
     29 C          46.4972   11.9001  -28.6490 C.ar    1  UNL1       -0.0235
     30 C          46.5670   10.9413  -29.6707 C.ar    1  UNL1       -0.0047
     31 C          46.2403   11.2819  -30.9849 C.ar    1  UNL1       -0.0022
     32 C          45.8515   12.5914  -31.2999 C.ar    1  UNL1        0.0067
     33 C          45.7613   13.5484  -30.2781 C.ar    1  UNL1       -0.0051
     34 C          46.0692   13.2053  -28.9522 C.ar    1  UNL1       -0.0105
     35 C          46.0173   14.2488  -27.8740 C.3     1  UNL1        0.0953
     36 N          45.7369   13.6369  -26.5712 N.3     1  UNL1       -0.2934
     37 H          45.7564   14.4117  -25.8668 H       1  UNL1        0.1236
     38 C          45.4723   12.9514  -32.7099 C.3     1  UNL1        0.1636
     39 O          44.1208   12.6583  -32.9341 O.3     1  UNL1       -0.3772
     40 H          44.0582   11.6731  -33.0407 H       1  UNL1        0.2109
@<TRIPOS>BOND
     1    18    19    1
     2    19    20    1
     3    19    21    1
     4    21    22    1
     5    22    23    1
     6    23    16    1
     7    16    15    1
     8    15    14    1
     9    14    13    1
    10    13    12    1
    11    12     1    1
    12     1    26    1
    13    26    27    1
    14    27    28    1
    15    28    29    1
    16    29    30   ar
    17    30    31   ar
    18    31    32   ar
    19    32    38    1
    20    38    39    1
    21    32    33   ar
    22    33    34   ar
    23    34    35    1
    24    35    36    1
    25     1     2    1
    26     2     3    1
    27     3     4    1
    28     4     5    1
    29     5     6    1
    30     6     7   ar
    31     7     8   ar
    32     8     9   ar
    33     9    10   ar
    34    10    11   ar
    35    23    24    1
    36    24    25    1
    37    25    19    1
    38    36    27    1
    39    11     2    1
    40    34    29   ar
    41    11     6   ar
    42    16    17    1
    43    39    40    1
    44    36    37    1
@<TRIPOS>MOLECULE
*****
 40 44 0 0 0
SMALL
GASTEIGER

@<TRIPOS>ATOM
      1 N          47.1356   12.3604  -23.7362 N.3     1  UNL1       -0.2679
      2 C          47.9883   11.1207  -23.6141 C.3     1  UNL1        0.0978
      3 C          49.3486   11.1558  -24.3823 C.3     1  UNL1        0.0224
      4 C          50.3252    9.9913  -24.0507 C.3     1  UNL1        0.0065
      5 C          49.7951    8.9942  -23.0105 C.3     1  UNL1        0.0277
      6 C          49.1699    9.7391  -21.8705 C.ar    1  UNL1       -0.0073
      7 C          49.4536    9.4226  -20.5360 C.ar    1  UNL1       -0.0015
      8 C          48.8842   10.1781  -19.5104 C.ar    1  UNL1        0.0203
      9 C          48.0400   11.2412  -19.8338 C.ar    1  UNL1        0.0985
     10 N          47.7683   11.5234  -21.1356 N.ar    1  UNL1       -0.2471
     11 C          48.2974   10.7997  -22.1588 C.ar    1  UNL1        0.0695
     12 C          47.9323   13.5833  -24.0577 C.3     1  UNL1        0.0725
     13 C          48.1633   14.5035  -22.8378 C.3     1  UNL1        0.0188
     14 C          49.6404   14.5800  -22.3912 C.3     1  UNL1        0.0185
     15 C          50.5056   15.4131  -23.3494 C.3     1  UNL1        0.0686
     16 N          50.3177   14.9656  -24.7379 N.3     1  UNL1       -0.2985
     17 H          49.3025   14.7258  -24.8401 H       1  UNL1        0.1232
     18 C          48.9506   19.3509  -27.6015 C.3     1  UNL1        0.0000
     19 C          49.0998   18.6081  -26.2565 C.3     1  UNL1        0.0001
     20 C          48.3052   19.3854  -25.1848 C.3     1  UNL1        0.0000
     21 C          50.6115   18.5670  -25.8662 C.3     1  UNL1        0.0014
     22 C          50.9427   17.3553  -24.9865 C.3     1  UNL1        0.0157
     23 C          50.6807   16.0083  -25.7188 C.3     1  UNL1        0.0540
     24 C          49.5679   16.1438  -26.7948 C.3     1  UNL1        0.0157
     25 C          48.5062   17.1703  -26.3844 C.3     1  UNL1        0.0014
     26 C          46.0740   12.1263  -24.7720 C.3     1  UNL1        0.0886
     27 C          46.4212   12.6183  -26.2139 C.3     1  UNL1        0.0748
     28 C          46.4963   11.4720  -27.2547 C.3     1  UNL1        0.0432
     29 C          46.3341   11.9280  -28.6818 C.ar    1  UNL1       -0.0235
     30 C          46.4350   10.9831  -29.7137 C.ar    1  UNL1       -0.0047
     31 C          46.2627   11.3675  -31.0451 C.ar    1  UNL1       -0.0022
     32 C          46.0000   12.7066  -31.3657 C.ar    1  UNL1        0.0067
     33 C          45.8787   13.6512  -30.3357 C.ar    1  UNL1       -0.0051
     34 C          46.0310   13.2655  -28.9946 C.ar    1  UNL1       -0.0105
     35 C          45.9483   14.2926  -27.9026 C.3     1  UNL1        0.0953
     36 N          45.4999   13.6820  -26.6472 N.3     1  UNL1       -0.2934
     37 H          45.5055   14.4419  -25.9265 H       1  UNL1        0.1236
     38 C          45.7863   13.1157  -32.7970 C.3     1  UNL1        0.1636
     39 O          44.4560   13.5103  -32.9909 O.3     1  UNL1       -0.3772
     40 H          43.9151   12.6782  -33.0218 H       1  UNL1        0.2109
@<TRIPOS>BOND
     1    18    19    1
     2    19    20    1
     3    19    21    1
     4    21    22    1
     5    22    23    1
     6    23    16    1
     7    16    15    1
     8    15    14    1
     9    14    13    1
    10    13    12    1
    11    12     1    1
    12     1    26    1
    13    26    27    1
    14    27    28    1
    15    28    29    1
    16    29    30   ar
    17    30    31   ar
    18    31    32   ar
    19    32    38    1
    20    38    39    1
    21    32    33   ar
    22    33    34   ar
    23    34    35    1
    24    35    36    1
    25     1     2    1
    26     2     3    1
    27     3     4    1
    28     4     5    1
    29     5     6    1
    30     6     7   ar
    31     7     8   ar
    32     8     9   ar
    33     9    10   ar
    34    10    11   ar
    35    23    24    1
    36    24    25    1
    37    25    19    1
    38    36    27    1
    39    11     2    1
    40    34    29   ar
    41    11     6   ar
    42    16    17    1
    43    39    40    1
    44    36    37    1
@<TRIPOS>MOLECULE
*****
 40 44 0 0 0
SMALL
GASTEIGER

@<TRIPOS>ATOM
      1 N          47.7079   12.6792  -23.6684 N.3     1  UNL1       -0.2679
      2 C          48.3073   11.6018  -22.7972 C.3     1  UNL1        0.0978
      3 C          47.2839   10.6930  -22.0431 C.3     1  UNL1        0.0224
      4 C          47.8953    9.4389  -21.3550 C.3     1  UNL1        0.0065
      5 C          49.4128    9.2915  -21.5357 C.3     1  UNL1        0.0277
      6 C          49.7798    9.5648  -22.9626 C.ar    1  UNL1       -0.0073
      7 C          50.6359    8.7204  -23.6808 C.ar    1  UNL1       -0.0015
      8 C          50.9080    8.9908  -25.0223 C.ar    1  UNL1        0.0203
      9 C          50.3185   10.1014  -25.6278 C.ar    1  UNL1        0.0985
     10 N          49.5004   10.9148  -24.9087 N.ar    1  UNL1       -0.2471
     11 C          49.2237   10.6864  -23.5965 C.ar    1  UNL1        0.0695
     12 C          48.7413   13.5001  -24.3696 C.3     1  UNL1        0.0725
     13 C          49.4691   14.4963  -23.4387 C.3     1  UNL1        0.0188
     14 C          48.5428   15.5845  -22.8516 C.3     1  UNL1        0.0185
     15 C          47.2271   15.7256  -23.6327 C.3     1  UNL1        0.0686
     16 N          46.8136   17.1356  -23.6992 N.3     1  UNL1       -0.2985
     17 H          47.5055   17.6774  -23.1280 H       1  UNL1        0.1232
     18 C          49.3669   19.6373  -27.7639 C.3     1  UNL1        0.0000
     19 C          49.2833   18.5132  -26.7092 C.3     1  UNL1        0.0001
     20 C          50.6793   17.8661  -26.5814 C.3     1  UNL1        0.0000
     21 C          48.2487   17.4458  -27.1884 C.3     1  UNL1        0.0014
     22 C          47.6078   16.7011  -26.0108 C.3     1  UNL1        0.0157
     23 C          46.8012   17.6532  -25.0823 C.3     1  UNL1        0.0540
     24 C          47.3592   19.1029  -25.1180 C.3     1  UNL1        0.0157
     25 C          48.8772   19.1197  -25.3296 C.3     1  UNL1        0.0014
     26 C          46.7679   12.0471  -24.6541 C.3     1  UNL1        0.0886
     27 C          46.8787   12.5731  -26.1213 C.3     1  UNL1        0.0748
     28 C          46.9563   11.4411  -27.1775 C.3     1  UNL1        0.0432
     29 C          46.5706   11.8731  -28.5687 C.ar    1  UNL1       -0.0235
     30 C          46.6519   10.9441  -29.6167 C.ar    1  UNL1       -0.0047
     31 C          46.2761   11.3040  -30.9126 C.ar    1  UNL1       -0.0022
     32 C          45.8257   12.6037  -31.1827 C.ar    1  UNL1        0.0067
     33 C          45.7241   13.5300  -30.1341 C.ar    1  UNL1       -0.0051
     34 C          46.0816   13.1666  -28.8261 C.ar    1  UNL1       -0.0105
     35 C          46.0163   14.1794  -27.7197 C.3     1  UNL1        0.0953
     36 N          45.7964   13.5237  -26.4268 N.3     1  UNL1       -0.2934
     37 H          45.8033   14.2805  -25.7028 H       1  UNL1        0.1236
     38 C          45.3941   12.9832  -32.5724 C.3     1  UNL1        0.1636
     39 O          44.0926   12.5243  -32.8138 O.3     1  UNL1       -0.3772
     40 H          44.1615   11.5465  -32.9723 H       1  UNL1        0.2109
@<TRIPOS>BOND
     1    18    19    1
     2    19    20    1
     3    19    21    1
     4    21    22    1
     5    22    23    1
     6    23    16    1
     7    16    15    1
     8    15    14    1
     9    14    13    1
    10    13    12    1
    11    12     1    1
    12     1    26    1
    13    26    27    1
    14    27    28    1
    15    28    29    1
    16    29    30   ar
    17    30    31   ar
    18    31    32   ar
    19    32    38    1
    20    38    39    1
    21    32    33   ar
    22    33    34   ar
    23    34    35    1
    24    35    36    1
    25     1     2    1
    26     2     3    1
    27     3     4    1
    28     4     5    1
    29     5     6    1
    30     6     7   ar
    31     7     8   ar
    32     8     9   ar
    33     9    10   ar
    34    10    11   ar
    35    23    24    1
    36    24    25    1
    37    25    19    1
    38    36    27    1
    39    11     2    1
    40    34    29   ar
    41    11     6   ar
    42    16    17    1
    43    39    40    1
    44    36    37    1
@<TRIPOS>MOLECULE
*****
 40 44 0 0 0
SMALL
GASTEIGER

@<TRIPOS>ATOM
      1 N          47.4562   12.4053  -23.6462 N.3     1  UNL1       -0.2679
      2 C          48.0470   13.7731  -23.8892 C.3     1  UNL1        0.0978
      3 C          47.2413   14.9740  -23.2971 C.3     1  UNL1        0.0224
      4 C          47.9768   16.3442  -23.3306 C.3     1  UNL1        0.0065
      5 C          49.3869   16.2936  -23.9360 C.3     1  UNL1        0.0277
      6 C          50.1258   15.1074  -23.3956 C.ar    1  UNL1       -0.0073
      7 C          51.4374   15.2090  -22.9150 C.ar    1  UNL1       -0.0015
      8 C          52.0650   14.0855  -22.3760 C.ar    1  UNL1        0.0203
      9 C          51.3714   12.8757  -22.3234 C.ar    1  UNL1        0.0985
     10 N          50.1032   12.7963  -22.8068 N.ar    1  UNL1       -0.2471
     11 C          49.4667   13.8693  -23.3491 C.ar    1  UNL1        0.0695
     12 C          46.9998   12.2126  -22.2362 C.3     1  UNL1        0.0725
     13 C          46.9808   10.7317  -21.7942 C.3     1  UNL1        0.0188
     14 C          48.3558   10.2094  -21.3214 C.3     1  UNL1        0.0185
     15 C          49.1362    9.5018  -22.4400 C.3     1  UNL1        0.0686
     16 N          49.1277   10.3108  -23.6684 N.3     1  UNL1       -0.2985
     17 H          49.5019   11.2544  -23.4076 H       1  UNL1        0.1232
     18 C          52.8587   10.9332  -27.5404 C.3     1  UNL1        0.0000
     19 C          52.3921   11.0856  -26.0768 C.3     1  UNL1        0.0001
     20 C          53.3523   12.0616  -25.3630 C.3     1  UNL1        0.0000
     21 C          52.4460    9.6886  -25.3806 C.3     1  UNL1        0.0014
     22 C          51.4316    9.5804  -24.2355 C.3     1  UNL1        0.0157
     23 C          49.9652    9.7240  -24.7339 C.3     1  UNL1        0.0540
     24 C          49.8762   10.5867  -26.0231 C.3     1  UNL1        0.0157
     25 C          50.9496   11.6806  -26.0469 C.3     1  UNL1        0.0014
     26 C          46.3265   12.1801  -24.6094 C.3     1  UNL1        0.0886
     27 C          46.5883   12.6535  -26.0753 C.3     1  UNL1        0.0748
     28 C          46.6437   11.4899  -27.0981 C.3     1  UNL1        0.0432
     29 C          46.3985   11.9139  -28.5231 C.ar    1  UNL1       -0.0235
     30 C          46.4746   10.9525  -29.5418 C.ar    1  UNL1       -0.0047
     31 C          46.2261   11.3065  -30.8696 C.ar    1  UNL1       -0.0022
     32 C          45.9107   12.6317  -31.2005 C.ar    1  UNL1        0.0067
     33 C          45.8142   13.5922  -30.1827 C.ar    1  UNL1       -0.0051
     34 C          46.0433   13.2366  -28.8442 C.ar    1  UNL1       -0.0105
     35 C          45.9862   14.2818  -27.7679 C.3     1  UNL1        0.0953
     36 N          45.6174   13.6835  -26.4810 N.3     1  UNL1       -0.2934
     37 H          45.6375   14.4570  -25.7751 H       1  UNL1        0.1236
     38 C          45.6153   13.0073  -32.6264 C.3     1  UNL1        0.1636
     39 O          44.2467   12.8615  -32.8884 O.3     1  UNL1       -0.3772
     40 H          44.0784   11.8875  -32.9835 H       1  UNL1        0.2109
@<TRIPOS>BOND
     1    18    19    1
     2    19    20    1
     3    19    21    1
     4    21    22    1
     5    22    23    1
     6    23    16    1
     7    16    15    1
     8    15    14    1
     9    14    13    1
    10    13    12    1
    11    12     1    1
    12     1    26    1
    13    26    27    1
    14    27    28    1
    15    28    29    1
    16    29    30   ar
    17    30    31   ar
    18    31    32   ar
    19    32    38    1
    20    38    39    1
    21    32    33   ar
    22    33    34   ar
    23    34    35    1
    24    35    36    1
    25     1     2    1
    26     2     3    1
    27     3     4    1
    28     4     5    1
    29     5     6    1
    30     6     7   ar
    31     7     8   ar
    32     8     9   ar
    33     9    10   ar
    34    10    11   ar
    35    23    24    1
    36    24    25    1
    37    25    19    1
    38    36    27    1
    39    11     2    1
    40    34    29   ar
    41    11     6   ar
    42    16    17    1
    43    39    40    1
    44    36    37    1
@<TRIPOS>MOLECULE
*****
 40 44 0 0 0
SMALL
GASTEIGER

@<TRIPOS>ATOM
      1 N          47.9783   14.3195  -23.9911 N.3     1  UNL1       -0.2679
      2 C          47.5178   15.7145  -24.3387 C.3     1  UNL1        0.0978
      3 C          46.9090   16.5403  -23.1599 C.3     1  UNL1        0.0224
      4 C          46.6725   18.0478  -23.4620 C.3     1  UNL1        0.0065
      5 C          47.0851   18.4851  -24.8747 C.3     1  UNL1        0.0277
      6 C          48.4205   17.8967  -25.2151 C.ar    1  UNL1       -0.0073
      7 C          49.4468   18.6670  -25.7765 C.ar    1  UNL1       -0.0015
      8 C          50.6890   18.0843  -26.0296 C.ar    1  UNL1        0.0203
      9 C          50.8884   16.7391  -25.7161 C.ar    1  UNL1        0.0985
     10 N          49.8747   16.0066  -25.1831 N.ar    1  UNL1       -0.2471
     11 C          48.6485   16.5407  -24.9348 C.ar    1  UNL1        0.0695
     12 C          47.9256   14.0397  -22.5240 C.3     1  UNL1        0.0725
     13 C          49.2162   13.3893  -21.9765 C.3     1  UNL1        0.0188
     14 C          50.4048   14.3701  -21.8662 C.3     1  UNL1        0.0185
     15 C          51.7424   13.7251  -22.2608 C.3     1  UNL1        0.0686
     16 N          51.5155   12.4651  -22.9849 N.3     1  UNL1       -0.2985
     17 H          50.4774   12.3580  -23.0807 H       1  UNL1        0.1232
     18 C          52.4541    9.9626  -27.6920 C.3     1  UNL1        0.0000
     19 C          51.4847   10.5033  -26.6192 C.3     1  UNL1        0.0001
     20 C          50.0919    9.8869  -26.8721 C.3     1  UNL1        0.0000
     21 C          51.4049   12.0578  -26.7468 C.3     1  UNL1        0.0014
     22 C          51.0555   12.7246  -25.4107 C.3     1  UNL1        0.0157
     23 C          52.1381   12.4663  -24.3241 C.3     1  UNL1        0.0540
     24 C          52.8915   11.1292  -24.5670 C.3     1  UNL1        0.0157
     25 C          51.9798   10.0737  -25.2027 C.3     1  UNL1        0.0014
     26 C          47.1522   13.3250  -24.7550 C.3     1  UNL1        0.0886
     27 C          47.1183   13.5278  -26.3040 C.3     1  UNL1        0.0748
     28 C          47.1465   12.1981  -27.1002 C.3     1  UNL1        0.0432
     29 C          46.6281   12.3166  -28.5102 C.ar    1  UNL1       -0.0235
     30 C          46.6534   11.1871  -29.3417 C.ar    1  UNL1       -0.0047
     31 C          46.1555   11.2556  -30.6445 C.ar    1  UNL1       -0.0022
     32 C          45.6368   12.4598  -31.1405 C.ar    1  UNL1        0.0067
     33 C          45.5915   13.5866  -30.3060 C.ar    1  UNL1       -0.0051
     34 C          46.0722   13.5168  -28.9889 C.ar    1  UNL1       -0.0105
     35 C          46.0648   14.7410  -28.1198 C.3     1  UNL1        0.0953
     36 N          45.9801   14.3724  -26.7031 N.3     1  UNL1       -0.2934
     37 H          46.0212   15.2663  -26.1588 H       1  UNL1        0.1236
     38 C          45.0747   12.5266  -32.5337 C.3     1  UNL1        0.1636
     39 O          43.7220   12.1618  -32.5245 O.3     1  UNL1       -0.3772
     40 H          43.6956   11.1735  -32.4315 H       1  UNL1        0.2109
@<TRIPOS>BOND
     1    18    19    1
     2    19    20    1
     3    19    21    1
     4    21    22    1
     5    22    23    1
     6    23    16    1
     7    16    15    1
     8    15    14    1
     9    14    13    1
    10    13    12    1
    11    12     1    1
    12     1    26    1
    13    26    27    1
    14    27    28    1
    15    28    29    1
    16    29    30   ar
    17    30    31   ar
    18    31    32   ar
    19    32    38    1
    20    38    39    1
    21    32    33   ar
    22    33    34   ar
    23    34    35    1
    24    35    36    1
    25     1     2    1
    26     2     3    1
    27     3     4    1
    28     4     5    1
    29     5     6    1
    30     6     7   ar
    31     7     8   ar
    32     8     9   ar
    33     9    10   ar
    34    10    11   ar
    35    23    24    1
    36    24    25    1
    37    25    19    1
    38    36    27    1
    39    11     2    1
    40    34    29   ar
    41    11     6   ar
    42    16    17    1
    43    39    40    1
    44    36    37    1
@<TRIPOS>MOLECULE
*****
 40 44 0 0 0
SMALL
GASTEIGER

@<TRIPOS>ATOM
      1 N          48.4547   11.1198  -24.5749 N.3     1  UNL1       -0.2679
      2 C          49.7958   11.7012  -24.9524 C.3     1  UNL1        0.0978
      3 C          50.8414   11.7999  -23.7953 C.3     1  UNL1        0.0224
      4 C          52.2879   12.1594  -24.2403 C.3     1  UNL1        0.0065
      5 C          52.4574   12.3524  -25.7540 C.3     1  UNL1        0.0277
      6 C          51.7444   11.2561  -26.4854 C.ar    1  UNL1       -0.0073
      7 C          52.3492   10.5512  -27.5338 C.ar    1  UNL1       -0.0015
      8 C          51.6618    9.5054  -28.1506 C.ar    1  UNL1        0.0203
      9 C          50.3791    9.1777  -27.7092 C.ar    1  UNL1        0.0985
     10 N          49.8060    9.8829  -26.6982 N.ar    1  UNL1       -0.2471
     11 C          50.4438   10.9153  -26.0833 C.ar    1  UNL1        0.0695
     12 C          48.3884   10.6957  -23.1434 C.3     1  UNL1        0.0725
     13 C          47.4029   11.5354  -22.2996 C.3     1  UNL1        0.0188
     14 C          48.0605   12.2229  -21.0822 C.3     1  UNL1        0.0185
     15 C          48.6218   13.6128  -21.4197 C.3     1  UNL1        0.0686
     16 N          47.9577   14.1637  -22.6109 N.3     1  UNL1       -0.2985
     17 H          46.9278   14.1371  -22.4184 H       1  UNL1        0.1232
     18 C          50.7747   17.6654  -25.6279 C.3     1  UNL1        0.0000
     19 C          49.7306   16.5369  -25.4887 C.3     1  UNL1        0.0001
     20 C          49.4645   15.9495  -26.8917 C.3     1  UNL1        0.0000
     21 C          48.4107   17.1375  -24.9090 C.3     1  UNL1        0.0014
     22 C          47.6001   16.0935  -24.1312 C.3     1  UNL1        0.0157
     23 C          48.3721   15.5526  -22.8939 C.3     1  UNL1        0.0540
     24 C          49.9108   15.6226  -23.0985 C.3     1  UNL1        0.0157
     25 C          50.2965   15.4117  -24.5669 C.3     1  UNL1        0.0014
     26 C          47.3801   12.1213  -24.8861 C.3     1  UNL1        0.0886
     27 C          47.3219   12.6057  -26.3706 C.3     1  UNL1        0.0748
     28 C          47.2733   11.4443  -27.3962 C.3     1  UNL1        0.0432
     29 C          46.7305   11.8398  -28.7452 C.ar    1  UNL1       -0.0235
     30 C          46.6872   10.8817  -29.7688 C.ar    1  UNL1       -0.0047
     31 C          46.1649   11.2077  -31.0222 C.ar    1  UNL1       -0.0022
     32 C          45.6901   12.5022  -31.2751 C.ar    1  UNL1        0.0067
     33 C          45.7133   13.4578  -30.2484 C.ar    1  UNL1       -0.0051
     34 C          46.2187   13.1287  -28.9808 C.ar    1  UNL1       -0.0105
     35 C          46.2848   14.1723  -27.9034 C.3     1  UNL1        0.0953
     36 N          46.2143   13.5541  -26.5756 N.3     1  UNL1       -0.2934
     37 H          46.3071   14.3307  -25.8790 H       1  UNL1        0.1236
     38 C          45.1016   12.8455  -32.6157 C.3     1  UNL1        0.1636
     39 O          43.8214   12.2892  -32.7356 O.3     1  UNL1       -0.3772
     40 H          43.9486   11.3191  -32.9052 H       1  UNL1        0.2109
@<TRIPOS>BOND
     1    18    19    1
     2    19    20    1
     3    19    21    1
     4    21    22    1
     5    22    23    1
     6    23    16    1
     7    16    15    1
     8    15    14    1
     9    14    13    1
    10    13    12    1
    11    12     1    1
    12     1    26    1
    13    26    27    1
    14    27    28    1
    15    28    29    1
    16    29    30   ar
    17    30    31   ar
    18    31    32   ar
    19    32    38    1
    20    38    39    1
    21    32    33   ar
    22    33    34   ar
    23    34    35    1
    24    35    36    1
    25     1     2    1
    26     2     3    1
    27     3     4    1
    28     4     5    1
    29     5     6    1
    30     6     7   ar
    31     7     8   ar
    32     8     9   ar
    33     9    10   ar
    34    10    11   ar
    35    23    24    1
    36    24    25    1
    37    25    19    1
    38    36    27    1
    39    11     2    1
    40    34    29   ar
    41    11     6   ar
    42    16    17    1
    43    39    40    1
    44    36    37    1
@<TRIPOS>MOLECULE
*****
 40 44 0 0 0
SMALL
GASTEIGER

@<TRIPOS>ATOM
      1 N          47.3999   12.8049  -23.2819 N.3     1  UNL1       -0.2679
      2 C          47.6232   11.4539  -22.6462 C.3     1  UNL1        0.0978
      3 C          48.7825   10.6017  -23.2558 C.3     1  UNL1        0.0224
      4 C          49.1686    9.3331  -22.4424 C.3     1  UNL1        0.0065
      5 C          48.3492    9.1265  -21.1606 C.3     1  UNL1        0.0277
      6 C          48.2248   10.4267  -20.4262 C.ar    1  UNL1       -0.0073
      7 C          48.4594   10.5236  -19.0488 C.ar    1  UNL1       -0.0015
      8 C          48.3791   11.7664  -18.4197 C.ar    1  UNL1        0.0203
      9 C          48.0669   12.8960  -19.1775 C.ar    1  UNL1        0.0985
     10 N          47.8308   12.7774  -20.5110 N.ar    1  UNL1       -0.2471
     11 C          47.8894   11.5795  -21.1529 C.ar    1  UNL1        0.0695
     12 C          48.6098   13.3186  -23.9930 C.3     1  UNL1        0.0725
     13 C          49.3480   14.4351  -23.2203 C.3     1  UNL1        0.0188
     14 C          50.4749   13.9114  -22.3023 C.3     1  UNL1        0.0185
     15 C          51.7744   13.6198  -23.0686 C.3     1  UNL1        0.0686
     16 N          51.9475   12.1720  -23.2616 N.3     1  UNL1       -0.2985
     17 H          50.9859   11.7555  -23.2786 H       1  UNL1        0.1232
     18 C          52.2689    9.2426  -27.8020 C.3     1  UNL1        0.0000
     19 C          51.4949   10.1811  -26.8516 C.3     1  UNL1        0.0001
     20 C          50.0039   10.1508  -27.2517 C.3     1  UNL1        0.0000
     21 C          52.0536   11.6312  -27.0067 C.3     1  UNL1        0.0014
     22 C          51.8693   12.4554  -25.7266 C.3     1  UNL1        0.0157
     23 C          52.6472   11.8524  -24.5223 C.3     1  UNL1        0.0540
     24 C          52.8257   10.3153  -24.6624 C.3     1  UNL1        0.0157
     25 C          51.6363    9.6711  -25.3833 C.3     1  UNL1        0.0014
     26 C          46.2267   12.7205  -24.2153 C.3     1  UNL1        0.0886
     27 C          46.5360   13.0352  -25.7142 C.3     1  UNL1        0.0748
     28 C          46.6089   11.7702  -26.6071 C.3     1  UNL1        0.0432
     29 C          46.4098   12.0438  -28.0756 C.ar    1  UNL1       -0.0235
     30 C          46.5054   10.9800  -28.9850 C.ar    1  UNL1       -0.0047
     31 C          46.2993   11.1943  -30.3494 C.ar    1  UNL1       -0.0022
     32 C          46.0078   12.4797  -30.8269 C.ar    1  UNL1        0.0067
     33 C          45.8918   13.5426  -29.9188 C.ar    1  UNL1       -0.0051
     34 C          46.0781   13.3280  -28.5441 C.ar    1  UNL1       -0.0105
     35 C          46.0006   14.4810  -27.5856 C.3     1  UNL1        0.0953
     36 N          45.5883   14.0241  -26.2547 N.3     1  UNL1       -0.2934
     37 H          45.5960   14.8673  -25.6336 H       1  UNL1        0.1236
     38 C          45.7579   12.7055  -32.2926 C.3     1  UNL1        0.1636
     39 O          44.3904   12.9057  -32.5220 O.3     1  UNL1       -0.3772
     40 H          43.9593   12.0131  -32.4628 H       1  UNL1        0.2109
@<TRIPOS>BOND
     1    18    19    1
     2    19    20    1
     3    19    21    1
     4    21    22    1
     5    22    23    1
     6    23    16    1
     7    16    15    1
     8    15    14    1
     9    14    13    1
    10    13    12    1
    11    12     1    1
    12     1    26    1
    13    26    27    1
    14    27    28    1
    15    28    29    1
    16    29    30   ar
    17    30    31   ar
    18    31    32   ar
    19    32    38    1
    20    38    39    1
    21    32    33   ar
    22    33    34   ar
    23    34    35    1
    24    35    36    1
    25     1     2    1
    26     2     3    1
    27     3     4    1
    28     4     5    1
    29     5     6    1
    30     6     7   ar
    31     7     8   ar
    32     8     9   ar
    33     9    10   ar
    34    10    11   ar
    35    23    24    1
    36    24    25    1
    37    25    19    1
    38    36    27    1
    39    11     2    1
    40    34    29   ar
    41    11     6   ar
    42    16    17    1
    43    39    40    1
    44    36    37    1
@<TRIPOS>MOLECULE
*****
 40 44 0 0 0
SMALL
GASTEIGER

@<TRIPOS>ATOM
      1 N          47.4080   11.7960  -23.7977 N.3     1  UNL1       -0.2679
      2 C          48.6462   12.2837  -24.5105 C.3     1  UNL1        0.0978
      3 C          49.2527   13.6212  -23.9765 C.3     1  UNL1        0.0224
      4 C          50.6561   13.9827  -24.5419 C.3     1  UNL1        0.0065
      5 C          51.2254   12.9572  -25.5326 C.3     1  UNL1        0.0277
      6 C          51.0117   11.5718  -25.0032 C.ar    1  UNL1       -0.0073
      7 C          52.0366   10.6172  -24.9942 C.ar    1  UNL1       -0.0015
      8 C          51.8018    9.3563  -24.4451 C.ar    1  UNL1        0.0203
      9 C          50.5453    9.0677  -23.9107 C.ar    1  UNL1        0.0985
     10 N          49.5610   10.0049  -23.9410 N.ar    1  UNL1       -0.2471
     11 C          49.7530   11.2394  -24.4792 C.ar    1  UNL1        0.0695
     12 C          47.2132   12.4428  -22.4646 C.3     1  UNL1        0.0725
     13 C          46.7170   11.4656  -21.3750 C.3     1  UNL1        0.0188
     14 C          47.1497   10.0017  -21.6131 C.3     1  UNL1        0.0185
     15 C          48.2915    9.5637  -20.6829 C.3     1  UNL1        0.0686
     16 N          48.1232   10.1512  -19.3449 N.3     1  UNL1       -0.2985
     17 H          47.8295    9.3705  -18.7103 H       1  UNL1        0.1232
     18 C          52.1995   13.6544  -19.9856 C.3     1  UNL1        0.0000
     19 C          50.6908   13.3352  -19.9168 C.3     1  UNL1        0.0001
     20 C          49.9157   14.5381  -20.4967 C.3     1  UNL1        0.0000
     21 C          50.2873   13.1174  -18.4239 C.3     1  UNL1        0.0014
     22 C          49.0772   12.1850  -18.2883 C.3     1  UNL1        0.0157
     23 C          49.3695   10.7593  -18.8370 C.3     1  UNL1        0.0540
     24 C          50.4499   10.7812  -19.9534 C.3     1  UNL1        0.0157
     25 C          50.3839   12.0709  -20.7791 C.3     1  UNL1        0.0014
     26 C          46.2135   12.0193  -24.6799 C.3     1  UNL1        0.0886
     27 C          46.5300   12.5156  -26.1274 C.3     1  UNL1        0.0748
     28 C          46.5537   11.3762  -27.1781 C.3     1  UNL1        0.0432
     29 C          46.3607   11.8462  -28.5968 C.ar    1  UNL1       -0.0235
     30 C          46.4144   10.9076  -29.6379 C.ar    1  UNL1       -0.0047
     31 C          46.2126   11.3055  -30.9611 C.ar    1  UNL1       -0.0022
     32 C          45.9673   12.6519  -31.2647 C.ar    1  UNL1        0.0067
     33 C          45.8931   13.5906  -30.2249 C.ar    1  UNL1       -0.0051
     34 C          46.0752   13.1917  -28.8913 C.ar    1  UNL1       -0.0105
     35 C          46.0431   14.2118  -27.7901 C.3     1  UNL1        0.0953
     36 N          45.6179   13.6003  -26.5271 N.3     1  UNL1       -0.2934
     37 H          45.6584   14.3543  -25.8014 H       1  UNL1        0.1236
     38 C          45.7218   13.0761  -32.6864 C.3     1  UNL1        0.1636
     39 O          44.3620   12.9481  -32.9985 O.3     1  UNL1       -0.3772
     40 H          44.1915   11.9789  -33.1312 H       1  UNL1        0.2109
@<TRIPOS>BOND
     1    18    19    1
     2    19    20    1
     3    19    21    1
     4    21    22    1
     5    22    23    1
     6    23    16    1
     7    16    15    1
     8    15    14    1
     9    14    13    1
    10    13    12    1
    11    12     1    1
    12     1    26    1
    13    26    27    1
    14    27    28    1
    15    28    29    1
    16    29    30   ar
    17    30    31   ar
    18    31    32   ar
    19    32    38    1
    20    38    39    1
    21    32    33   ar
    22    33    34   ar
    23    34    35    1
    24    35    36    1
    25     1     2    1
    26     2     3    1
    27     3     4    1
    28     4     5    1
    29     5     6    1
    30     6     7   ar
    31     7     8   ar
    32     8     9   ar
    33     9    10   ar
    34    10    11   ar
    35    23    24    1
    36    24    25    1
    37    25    19    1
    38    36    27    1
    39    11     2    1
    40    34    29   ar
    41    11     6   ar
    42    16    17    1
    43    39    40    1
    44    36    37    1
@<TRIPOS>MOLECULE
*****
 40 44 0 0 0
SMALL
GASTEIGER

@<TRIPOS>ATOM
      1 N          49.5265   12.1217  -21.8909 N.3     1  UNL1       -0.2679
      2 C          50.2294   10.9588  -22.5487 C.3     1  UNL1        0.0978
      3 C          49.4374    9.6119  -22.5686 C.3     1  UNL1        0.0224
      4 C          50.0528    8.4963  -23.4610 C.3     1  UNL1        0.0065
      5 C          51.3420    8.9036  -24.1886 C.3     1  UNL1        0.0277
      6 C          51.1776   10.2711  -24.7788 C.ar    1  UNL1       -0.0073
      7 C          51.5472   10.5561  -26.0993 C.ar    1  UNL1       -0.0015
      8 C          51.3284   11.8326  -26.6182 C.ar    1  UNL1        0.0203
      9 C          50.7410   12.8066  -25.8095 C.ar    1  UNL1        0.0985
     10 N          50.4012   12.5120  -24.5265 N.ar    1  UNL1       -0.2471
     11 C          50.6115   11.2814  -23.9862 C.ar    1  UNL1        0.0695
     12 C          48.9043   11.7582  -20.5816 C.3     1  UNL1        0.0725
     13 C          47.4782   12.3258  -20.4013 C.3     1  UNL1        0.0188
     14 C          46.4127   11.6059  -21.2577 C.3     1  UNL1        0.0185
     15 C          45.9991   12.4194  -22.4938 C.3     1  UNL1        0.0686
     16 N          46.9016   12.1419  -23.6217 N.3     1  UNL1       -0.2985
     17 H          47.2769   11.1746  -23.4733 H       1  UNL1        0.1232
     18 C          45.5263   14.9690  -28.0280 C.3     1  UNL1        0.0000
     19 C          46.5897   14.4146  -27.0560 C.3     1  UNL1        0.0001
     20 C          47.9165   15.1608  -27.3150 C.3     1  UNL1        0.0000
     21 C          46.7800   12.8890  -27.3307 C.3     1  UNL1        0.0014
     22 C          47.2497   12.1365  -26.0797 C.3     1  UNL1        0.0157
     23 C          46.2102   12.2097  -24.9249 C.3     1  UNL1        0.0540
     24 C          45.3460   13.4983  -25.0077 C.3     1  UNL1        0.0157
     25 C          46.1400   14.6758  -25.5844 C.3     1  UNL1        0.0014
     26 C          50.4995   13.2532  -21.7247 C.3     1  UNL1        0.0886
     27 C          50.0133   14.6412  -22.2527 C.3     1  UNL1        0.0748
     28 C          51.0252   15.3267  -23.2062 C.3     1  UNL1        0.0432
     29 C          50.4137   16.3771  -24.0969 C.ar    1  UNL1       -0.0235
     30 C          51.2443   17.0997  -24.9662 C.ar    1  UNL1       -0.0047
     31 C          50.7059   18.0609  -25.8242 C.ar    1  UNL1       -0.0022
     32 C          49.3290   18.3238  -25.8161 C.ar    1  UNL1        0.0067
     33 C          48.4920   17.5897  -24.9625 C.ar    1  UNL1       -0.0051
     34 C          49.0262   16.6083  -24.1128 C.ar    1  UNL1       -0.0105
     35 C          48.1291   15.8626  -23.1676 C.3     1  UNL1        0.0953
     36 N          48.6785   14.5371  -22.8658 N.3     1  UNL1       -0.2934
     37 H          48.0279   14.0941  -22.1749 H       1  UNL1        0.1236
     38 C          48.7452   19.3386  -26.7599 C.3     1  UNL1        0.1636
     39 O          49.5806   19.4960  -27.8735 O.3     1  UNL1       -0.3772
     40 H          50.3536   20.0422  -27.5731 H       1  UNL1        0.2109
@<TRIPOS>BOND
     1    18    19    1
     2    19    20    1
     3    19    21    1
     4    21    22    1
     5    22    23    1
     6    23    16    1
     7    16    15    1
     8    15    14    1
     9    14    13    1
    10    13    12    1
    11    12     1    1
    12     1    26    1
    13    26    27    1
    14    27    28    1
    15    28    29    1
    16    29    30   ar
    17    30    31   ar
    18    31    32   ar
    19    32    38    1
    20    38    39    1
    21    32    33   ar
    22    33    34   ar
    23    34    35    1
    24    35    36    1
    25     1     2    1
    26     2     3    1
    27     3     4    1
    28     4     5    1
    29     5     6    1
    30     6     7   ar
    31     7     8   ar
    32     8     9   ar
    33     9    10   ar
    34    10    11   ar
    35    23    24    1
    36    24    25    1
    37    25    19    1
    38    36    27    1
    39    11     2    1
    40    34    29   ar
    41    11     6   ar
    42    16    17    1
    43    39    40    1
    44    36    37    1
