@<TRIPOS>MOLECULE
*****
 45 50 0 0 0
SMALL
GASTEIGER

@<TRIPOS>ATOM
      1 C          59.9563   89.3558    5.6349 C.ar    1  UNL1        0.0702
      2 C          58.7277   90.0100    5.4534 C.ar    1  UNL1        0.0191
      3 C          58.5477   90.8765    4.3740 C.ar    1  UNL1        0.0356
      4 C          59.5941   91.0699    3.4584 C.ar    1  UNL1        0.1318
      5 N          60.7751   90.4197    3.6524 N.ar    1  UNL1       -0.2279
      6 C          60.9730   89.5720    4.6962 C.ar    1  UNL1        0.1149
      7 N          59.4534   91.9726    2.3452 N.pl3   1  UNL1       -0.2932
      8 C          58.7044   91.5308    1.1593 C.3     1  UNL1        0.0923
      9 C          58.8805   92.5042   -0.0164 C.3     1  UNL1        0.0252
     10 C          60.3449   92.9723   -0.1013 C.3     1  UNL1        0.0472
     11 C          60.7841   93.7129    1.1918 C.3     1  UNL1        0.0252
     12 C          59.9254   93.3625    2.4186 C.3     1  UNL1        0.0923
     13 C          60.5616   93.8472   -1.3507 C.3     1  UNL1        0.2054
     14 O          61.8221   93.5669   -1.9621 O.3     1  UNL1       -0.4755
     15 C          62.8593   92.8129   -1.3889 C.ar    1  UNL1        0.1388
     16 C          63.3934   91.6629   -2.0009 C.ar    1  UNL1        0.0369
     17 C          64.4236   90.9523   -1.3820 C.ar    1  UNL1        0.0033
     18 C          64.9344   91.3783   -0.1542 C.ar    1  UNL1        0.0066
     19 C          64.4183   92.5275    0.4695 C.ar    1  UNL1        0.0785
     20 C          63.3809   93.2378   -0.1603 C.ar    1  UNL1        0.0433
     21 C          64.9558   92.9860    1.7696 C.2     1  UNL1        0.3381
     22 O          64.2122   93.5861    2.5924 O.2     1  UNL1       -0.2451
     23 O          66.2901   92.7587    2.0972 O.3     1  UNL1       -0.4771
     24 H          66.6681   93.0685    2.9846 H       1  UNL1        0.2954
     25 C          59.1765   87.5289    7.2160 C.2     1  UNL1        0.2839
     26 O          57.9680   87.6716    6.8880 O.2     1  UNL1       -0.2665
     27 N          60.1731   88.4375    6.7199 N.am    1  UNL1       -0.2766
     28 H          61.0827   88.4945    7.2316 H       1  UNL1        0.1553
     29 C          61.5594   87.6009    9.3584 C.3     1  UNL1        0.0345
     30 C          60.6045   86.4786    9.0823 C.ar    1  UNL1        0.0202
     31 C          59.5657   86.4510    8.1450 C.ar    1  UNL1        0.1946
     32 O          58.9416   85.2876    8.1963 O.2     1  UNL1       -0.4492
     33 C          59.5225   84.5590    9.1178 C.ar    1  UNL1        0.1452
     34 C          59.1889   83.2662    9.5062 C.ar    1  UNL1        0.0375
     35 C          59.9485   82.6662   10.5253 C.ar    1  UNL1        0.0031
     36 C          61.0248   83.3632   11.1381 C.ar    1  UNL1        0.0002
     37 C          61.3317   84.6781   10.7128 C.ar    1  UNL1        0.0028
     38 C          60.5569   85.2427    9.6983 C.ar    1  UNL1        0.0337
     39 C          61.8202   82.7191   12.2140 C.ar    1  UNL1        0.0000
     40 C          63.1574   82.3421   11.9875 C.ar    1  UNL1        0.0005
     41 C          63.9040   81.7350   13.0018 C.ar    1  UNL1        0.0067
     42 C          63.3269   81.4979   14.2523 C.ar    1  UNL1        0.0346
     43 BR         64.3496   80.6688   15.6359 Br      1  UNL1       -0.0490
     44 C          62.0002   81.8682   14.4888 C.ar    1  UNL1        0.0067
     45 C          61.2494   82.4747   13.4772 C.ar    1  UNL1        0.0005
@<TRIPOS>BOND
     1    29    30    1
     2    30    31   ar
     3    31    25    1
     4    25    26    2
     5    25    27   am
     6    27     1    1
     7     1     2   ar
     8     2     3   ar
     9     3     4   ar
    10     4     7    1
    11     7     8    1
    12     8     9    1
    13     9    10    1
    14    10    13    1
    15    13    14    1
    16    14    15    1
    17    15    16   ar
    18    16    17   ar
    19    17    18   ar
    20    18    19   ar
    21    19    21    1
    22    21    22    2
    23    21    23    1
    24    19    20   ar
    25    10    11    1
    26    11    12    1
    27     4     5   ar
    28     5     6   ar
    29    31    32   ar
    30    32    33   ar
    31    33    34   ar
    32    34    35   ar
    33    35    36   ar
    34    36    39    1
    35    39    40   ar
    36    40    41   ar
    37    41    42   ar
    38    42    43    1
    39    42    44   ar
    40    44    45   ar
    41    36    37   ar
    42    37    38   ar
    43    38    30   ar
    44     6     1   ar
    45    38    33   ar
    46    12     7    1
    47    45    39   ar
    48    20    15   ar
    49    27    28    1
    50    23    24    1
