@<TRIPOS>MOLECULE
*****
 45 50 0 0 0
SMALL
GASTEIGER

@<TRIPOS>ATOM
      1 C          12.3770   80.8112   25.4126 C.ar    1  UNL1        0.0702
      2 C          11.5039   81.8681   25.1142 C.ar    1  UNL1        0.0191
      3 C          11.9885   83.0309   24.5130 C.ar    1  UNL1        0.0356
      4 C          13.3595   83.1452   24.2183 C.ar    1  UNL1        0.1318
      5 N          14.1866   82.1102   24.5388 N.ar    1  UNL1       -0.2279
      6 C          13.7375   80.9696   25.1248 C.ar    1  UNL1        0.1149
      7 N          13.8996   84.3295   23.5845 N.pl3   1  UNL1       -0.2924
      8 C          15.0870   84.2431   22.7156 C.3     1  UNL1        0.0923
      9 C          15.6783   85.6287   22.4158 C.3     1  UNL1        0.0261
     10 C          15.7474   86.4697   23.7049 C.3     1  UNL1        0.0576
     11 C          14.3445   86.6350   24.3687 C.3     1  UNL1        0.0805
     12 BR         14.4840   86.4194   26.3006 Br      1  UNL1       -0.0798
     13 C          13.2961   85.6502   23.8205 C.3     1  UNL1        0.1036
     14 C          16.3986   87.8363   23.4098 C.3     1  UNL1        0.2062
     15 O          15.4293   88.7852   22.9617 O.3     1  UNL1       -0.4754
     16 C          14.9072   88.8682   21.6604 C.ar    1  UNL1        0.1388
     17 C          15.6534   89.3507   20.5692 C.ar    1  UNL1        0.0369
     18 C          15.0757   89.4205   19.3005 C.ar    1  UNL1        0.0033
     19 C          13.7574   89.0046   19.1017 C.ar    1  UNL1        0.0066
     20 C          13.0006   88.5036   20.1752 C.ar    1  UNL1        0.0785
     21 C          13.5877   88.4473   21.4527 C.ar    1  UNL1        0.0433
     22 C          11.5975   88.0614   19.9847 C.2     1  UNL1        0.3381
     23 O          10.8026   88.7751   19.3168 O.2     1  UNL1       -0.2451
     24 O          11.1190   86.8749   20.5395 O.3     1  UNL1       -0.4771
     25 H          11.6693   86.3065   21.1699 H       1  UNL1        0.2954
     26 C          11.1535   78.5919   25.3891 C.2     1  UNL1        0.2839
     27 O          11.2444   78.4507   24.1399 O.2     1  UNL1       -0.2665
     28 N          11.9187   79.6084   26.0537 N.am    1  UNL1       -0.2766
     29 H          12.2520   79.4106   27.0236 H       1  UNL1        0.1553
     30 C           8.0678   77.7986   24.8335 C.3     1  UNL1        0.0345
     31 C           8.9801   77.3065   25.9164 C.ar    1  UNL1        0.0202
     32 C          10.3187   77.6458   26.1502 C.ar    1  UNL1        0.1946
     33 O          10.7811   76.9704   27.1878 O.2     1  UNL1       -0.4492
     34 C           9.8061   76.2282   27.6525 C.ar    1  UNL1        0.1452
     35 C           9.8468   75.3629   28.7403 C.ar    1  UNL1        0.0375
     36 C           8.6745   74.6597   29.0684 C.ar    1  UNL1        0.0031
     37 C           7.4852   74.8310   28.3091 C.ar    1  UNL1        0.0002
     38 C           7.4873   75.7215   27.2086 C.ar    1  UNL1        0.0028
     39 C           8.6687   76.4018   26.9119 C.ar    1  UNL1        0.0337
     40 C           6.2524   74.0840   28.6656 C.ar    1  UNL1        0.0000
     41 C           5.4659   74.4828   29.7632 C.ar    1  UNL1        0.0000
     42 C           4.3061   73.7769   30.0971 C.ar    1  UNL1        0.0000
     43 C           3.9180   72.6682   29.3416 C.ar    1  UNL1        0.0000
     44 C           4.6895   72.2627   28.2503 C.ar    1  UNL1        0.0000
     45 C           5.8508   72.9643   27.9123 C.ar    1  UNL1        0.0000
@<TRIPOS>BOND
     1    30    31    1
     2    31    32   ar
     3    32    26    1
     4    26    27    2
     5    26    28   am
     6    28     1    1
     7     1     2   ar
     8     2     3   ar
     9     3     4   ar
    10     4     7    1
    11     7     8    1
    12     8     9    1
    13     9    10    1
    14    10    14    1
    15    14    15    1
    16    15    16    1
    17    16    17   ar
    18    17    18   ar
    19    18    19   ar
    20    19    20   ar
    21    20    22    1
    22    22    23    2
    23    22    24    1
    24    20    21   ar
    25    10    11    1
    26    11    12    1
    27    11    13    1
    28     4     5   ar
    29     5     6   ar
    30    32    33   ar
    31    33    34   ar
    32    34    35   ar
    33    35    36   ar
    34    36    37   ar
    35    37    40    1
    36    40    41   ar
    37    41    42   ar
    38    42    43   ar
    39    43    44   ar
    40    44    45   ar
    41    37    38   ar
    42    38    39   ar
    43    39    31   ar
    44     6     1   ar
    45    39    34   ar
    46    13     7    1
    47    45    40   ar
    48    21    16   ar
    49    28    29    1
    50    24    25    1
@<TRIPOS>MOLECULE
*****
 45 50 0 0 0
SMALL
GASTEIGER

@<TRIPOS>ATOM
      1 C          12.9100   82.8133   25.3077 C.ar    1  UNL1        0.0702
      2 C          13.5016   83.8404   26.0582 C.ar    1  UNL1        0.0191
      3 C          14.0778   84.9373   25.4155 C.ar    1  UNL1        0.0356
      4 C          14.0750   85.0038   24.0101 C.ar    1  UNL1        0.1318
      5 N          13.5113   83.9809   23.3074 N.ar    1  UNL1       -0.2279
      6 C          12.9454   82.9034   23.9114 C.ar    1  UNL1        0.1149
      7 N          14.6517   86.1297   23.3061 N.pl3   1  UNL1       -0.2924
      8 C          14.0715   87.4780   23.4393 C.3     1  UNL1        0.0923
      9 C          14.6187   88.4436   22.3774 C.3     1  UNL1        0.0261
     10 C          14.6346   87.7633   20.9951 C.3     1  UNL1        0.0576
     11 C          15.4874   86.4560   20.9988 C.3     1  UNL1        0.0805
     12 BR         14.5736   85.0531   20.0014 Br      1  UNL1       -0.0798
     13 C          15.8085   85.9473   22.4157 C.3     1  UNL1        0.1036
     14 C          15.1263   88.7568   19.9229 C.3     1  UNL1        0.2062
     15 O          14.1864   88.8706   18.8532 O.3     1  UNL1       -0.4754
     16 C          14.3814   88.4094   17.5409 C.ar    1  UNL1        0.1388
     17 C          14.4548   89.2733   16.4325 C.ar    1  UNL1        0.0369
     18 C          14.6384   88.7545   15.1497 C.ar    1  UNL1        0.0033
     19 C          14.7597   87.3767   14.9567 C.ar    1  UNL1        0.0066
     20 C          14.7062   86.4980   16.0527 C.ar    1  UNL1        0.0785
     21 C          14.5097   87.0293   17.3407 C.ar    1  UNL1        0.0433
     22 C          14.8283   85.0313   15.8670 C.2     1  UNL1        0.3381
     23 O          15.6875   84.3874   16.5261 O.2     1  UNL1       -0.2451
     24 O          14.0239   84.3351   14.9653 O.3     1  UNL1       -0.4771
     25 H          13.3871   84.7993   14.3312 H       1  UNL1        0.2954
     26 C          11.0204   81.1540   25.6221 C.2     1  UNL1        0.2839
     27 O          10.5116   81.3795   24.4912 O.2     1  UNL1       -0.2665
     28 N          12.3284   81.6566   25.9334 N.am    1  UNL1       -0.2766
     29 H          12.9303   81.0866   26.5689 H       1  UNL1        0.1553
     30 C           9.1355   78.6153   24.9424 C.3     1  UNL1        0.0345
     31 C           9.4617   79.2069   26.2805 C.ar    1  UNL1        0.0202
     32 C          10.2846   80.3018   26.5729 C.ar    1  UNL1        0.1946
     33 O          10.3401   80.4887   27.8800 O.2     1  UNL1       -0.4492
     34 C           9.5785   79.5865   28.4488 C.ar    1  UNL1        0.1452
     35 C           9.3386   79.4179   29.8080 C.ar    1  UNL1        0.0375
     36 C           8.4786   78.3779   30.2023 C.ar    1  UNL1        0.0031
     37 C           7.8741   77.5269   29.2376 C.ar    1  UNL1        0.0002
     38 C           8.1459   77.7329   27.8637 C.ar    1  UNL1        0.0028
     39 C           9.0045   78.7739   27.5093 C.ar    1  UNL1        0.0337
     40 C           6.9663   76.4324   29.6656 C.ar    1  UNL1        0.0000
     41 C           6.8854   75.2383   28.9239 C.ar    1  UNL1        0.0000
     42 C           6.0290   74.2098   29.3288 C.ar    1  UNL1        0.0000
     43 C           5.2460   74.3599   30.4755 C.ar    1  UNL1        0.0000
     44 C           5.3174   75.5394   31.2198 C.ar    1  UNL1        0.0000
     45 C           6.1714   76.5716   30.8193 C.ar    1  UNL1        0.0000
@<TRIPOS>BOND
     1    30    31    1
     2    31    32   ar
     3    32    26    1
     4    26    27    2
     5    26    28   am
     6    28     1    1
     7     1     2   ar
     8     2     3   ar
     9     3     4   ar
    10     4     7    1
    11     7     8    1
    12     8     9    1
    13     9    10    1
    14    10    14    1
    15    14    15    1
    16    15    16    1
    17    16    17   ar
    18    17    18   ar
    19    18    19   ar
    20    19    20   ar
    21    20    22    1
    22    22    23    2
    23    22    24    1
    24    20    21   ar
    25    10    11    1
    26    11    12    1
    27    11    13    1
    28     4     5   ar
    29     5     6   ar
    30    32    33   ar
    31    33    34   ar
    32    34    35   ar
    33    35    36   ar
    34    36    37   ar
    35    37    40    1
    36    40    41   ar
    37    41    42   ar
    38    42    43   ar
    39    43    44   ar
    40    44    45   ar
    41    37    38   ar
    42    38    39   ar
    43    39    31   ar
    44     6     1   ar
    45    39    34   ar
    46    13     7    1
    47    45    40   ar
    48    21    16   ar
    49    28    29    1
    50    24    25    1
@<TRIPOS>MOLECULE
*****
 45 50 0 0 0
SMALL
GASTEIGER

@<TRIPOS>ATOM
      1 C          12.2240   80.9712   24.8017 C.ar    1  UNL1        0.0702
      2 C          11.5384   82.1831   24.6299 C.ar    1  UNL1        0.0191
      3 C          12.2469   83.3663   24.4144 C.ar    1  UNL1        0.0356
      4 C          13.6533   83.3420   24.3828 C.ar    1  UNL1        0.1318
      5 N          14.2921   82.1531   24.5736 N.ar    1  UNL1       -0.2279
      6 C          13.6234   80.9895   24.7856 C.ar    1  UNL1        0.1149
      7 N          14.4244   84.5451   24.1504 N.pl3   1  UNL1       -0.2924
      8 C          14.1790   85.7617   24.9452 C.3     1  UNL1        0.0923
      9 C          14.8607   86.9935   24.3310 C.3     1  UNL1        0.0261
     10 C          14.6279   87.0284   22.8083 C.3     1  UNL1        0.0576
     11 C          15.1566   85.7374   22.1082 C.3     1  UNL1        0.0805
     12 BR         13.8811   85.1285   20.7665 Br      1  UNL1       -0.0798
     13 C          15.4465   84.5906   23.0933 C.3     1  UNL1        0.1036
     14 C          15.2616   88.2989   22.2060 C.3     1  UNL1        0.2062
     15 O          14.2622   89.1847   21.6985 O.3     1  UNL1       -0.4754
     16 C          13.4132   88.9223   20.6108 C.ar    1  UNL1        0.1388
     17 C          12.0655   88.5493   20.7686 C.ar    1  UNL1        0.0369
     18 C          11.2738   88.2898   19.6487 C.ar    1  UNL1        0.0033
     19 C          11.8089   88.4066   18.3641 C.ar    1  UNL1        0.0066
     20 C          13.1481   88.7944   18.1844 C.ar    1  UNL1        0.0785
     21 C          13.9416   89.0431   19.3195 C.ar    1  UNL1        0.0433
     22 C          13.7356   88.9193   16.8280 C.2     1  UNL1        0.3381
     23 O          14.9358   89.2797   16.6976 O.2     1  UNL1       -0.2451
     24 O          12.9903   88.6624   15.6777 O.3     1  UNL1       -0.4771
     25 H          11.9975   88.4699   15.7026 H       1  UNL1        0.2954
     26 C          10.3494   79.3290   24.3415 C.2     1  UNL1        0.2839
     27 O          10.1315   79.7627   23.1783 O.2     1  UNL1       -0.2665
     28 N          11.5294   79.7368   25.0498 N.am    1  UNL1       -0.2766
     29 H          11.9670   79.0492   25.7030 H       1  UNL1        0.1553
     30 C           9.0426   79.3380   27.2999 C.3     1  UNL1        0.0345
     31 C           8.8580   78.3382   26.1984 C.ar    1  UNL1        0.0202
     32 C           9.4190   78.3406   24.9151 C.ar    1  UNL1        0.1946
     33 O           8.9831   77.2982   24.2297 O.2     1  UNL1       -0.4492
     34 C           8.1868   76.6080   25.0088 C.ar    1  UNL1        0.1452
     35 C           7.5118   75.4323   24.6995 C.ar    1  UNL1        0.0375
     36 C           6.7043   74.8537   25.6943 C.ar    1  UNL1        0.0031
     37 C           6.5843   75.4551   26.9766 C.ar    1  UNL1        0.0002
     38 C           7.2883   76.6526   27.2496 C.ar    1  UNL1        0.0028
     39 C           8.0794   77.1986   26.2385 C.ar    1  UNL1        0.0337
     40 C           5.7295   74.8343   28.0202 C.ar    1  UNL1        0.0000
     41 C           5.3587   75.5614   29.1675 C.ar    1  UNL1        0.0000
     42 C           4.5545   74.9739   30.1490 C.ar    1  UNL1        0.0000
     43 C           4.1114   73.6581   29.9973 C.ar    1  UNL1        0.0000
     44 C           4.4721   72.9266   28.8637 C.ar    1  UNL1        0.0000
     45 C           5.2769   73.5085   27.8794 C.ar    1  UNL1        0.0000
@<TRIPOS>BOND
     1    30    31    1
     2    31    32   ar
     3    32    26    1
     4    26    27    2
     5    26    28   am
     6    28     1    1
     7     1     2   ar
     8     2     3   ar
     9     3     4   ar
    10     4     7    1
    11     7     8    1
    12     8     9    1
    13     9    10    1
    14    10    14    1
    15    14    15    1
    16    15    16    1
    17    16    17   ar
    18    17    18   ar
    19    18    19   ar
    20    19    20   ar
    21    20    22    1
    22    22    23    2
    23    22    24    1
    24    20    21   ar
    25    10    11    1
    26    11    12    1
    27    11    13    1
    28     4     5   ar
    29     5     6   ar
    30    32    33   ar
    31    33    34   ar
    32    34    35   ar
    33    35    36   ar
    34    36    37   ar
    35    37    40    1
    36    40    41   ar
    37    41    42   ar
    38    42    43   ar
    39    43    44   ar
    40    44    45   ar
    41    37    38   ar
    42    38    39   ar
    43    39    31   ar
    44     6     1   ar
    45    39    34   ar
    46    13     7    1
    47    45    40   ar
    48    21    16   ar
    49    28    29    1
    50    24    25    1
@<TRIPOS>MOLECULE
*****
 45 50 0 0 0
SMALL
GASTEIGER

@<TRIPOS>ATOM
      1 C          12.5361   82.0919   25.3337 C.ar    1  UNL1        0.0702
      2 C          13.2521   82.8901   26.2384 C.ar    1  UNL1        0.0191
      3 C          13.9725   83.9952   25.7823 C.ar    1  UNL1        0.0356
      4 C          13.9889   84.2993   24.4087 C.ar    1  UNL1        0.1318
      5 N          13.3008   83.4934   23.5514 N.ar    1  UNL1       -0.2279
      6 C          12.5935   82.4125   23.9725 C.ar    1  UNL1        0.1149
      7 N          14.7141   85.4431   23.8970 N.pl3   1  UNL1       -0.2924
      8 C          14.3564   86.8101   24.3161 C.3     1  UNL1        0.0923
      9 C          15.0168   87.8728   23.4251 C.3     1  UNL1        0.0261
     10 C          14.8857   87.4811   21.9408 C.3     1  UNL1        0.0576
     11 C          15.5229   86.0867   21.6476 C.3     1  UNL1        0.0805
     12 BR         14.3720   85.0569   20.4589 Br      1  UNL1       -0.0798
     13 C          15.8016   85.2691   22.9216 C.3     1  UNL1        0.1036
     14 C          15.4954   88.5811   21.0482 C.3     1  UNL1        0.2062
     15 O          14.4980   89.5074   20.6146 O.3     1  UNL1       -0.4754
     16 C          13.5990   89.3042   19.5548 C.ar    1  UNL1        0.1388
     17 C          12.2058   89.2338   19.7401 C.ar    1  UNL1        0.0369
     18 C          11.3630   89.0182   18.6486 C.ar    1  UNL1        0.0033
     19 C          11.8935   88.8798   17.3642 C.ar    1  UNL1        0.0066
     20 C          13.2812   88.9640   17.1554 C.ar    1  UNL1        0.0785
     21 C          14.1237   89.1704   18.2632 C.ar    1  UNL1        0.0433
     22 C          13.8637   88.8148   15.7993 C.2     1  UNL1        0.3381
     23 O          15.1138   88.7419   15.6608 O.2     1  UNL1       -0.2451
     24 O          13.0647   88.7668   14.6574 O.3     1  UNL1       -0.4771
     25 H          12.0655   88.9222   14.6837 H       1  UNL1        0.2954
     26 C          10.4726   80.6207   25.3223 C.2     1  UNL1        0.2839
     27 O          10.0608   81.0495   24.2109 O.2     1  UNL1       -0.2665
     28 N          11.8027   80.9320   25.7632 N.am    1  UNL1       -0.2766
     29 H          12.3030   80.2200   26.3409 H       1  UNL1        0.1553
     30 C           9.2853   77.7426   24.4468 C.3     1  UNL1        0.0345
     31 C           9.0749   78.4910   25.7284 C.ar    1  UNL1        0.0202
     32 C           9.5966   79.7340   26.1084 C.ar    1  UNL1        0.1946
     33 O           9.1998   80.0352   27.3324 O.2     1  UNL1       -0.4492
     34 C           8.4300   79.0633   27.7572 C.ar    1  UNL1        0.1452
     35 C           7.7899   78.9681   28.9879 C.ar    1  UNL1        0.0375
     36 C           7.0039   77.8293   29.2366 C.ar    1  UNL1        0.0031
     37 C           6.8697   76.8083   28.2569 C.ar    1  UNL1        0.0002
     38 C           7.5391   76.9446   27.0170 C.ar    1  UNL1        0.0028
     39 C           8.3108   78.0875   26.8054 C.ar    1  UNL1        0.0337
     40 C           6.0357   75.6103   28.5300 C.ar    1  UNL1        0.0000
     41 C           6.1450   74.4627   27.7218 C.ar    1  UNL1        0.0000
     42 C           5.3578   73.3365   27.9808 C.ar    1  UNL1        0.0000
     43 C           4.4553   73.3419   29.0467 C.ar    1  UNL1        0.0000
     44 C           4.3378   74.4740   29.8559 C.ar    1  UNL1        0.0000
     45 C           5.1218   75.6034   29.6011 C.ar    1  UNL1        0.0000
@<TRIPOS>BOND
     1    30    31    1
     2    31    32   ar
     3    32    26    1
     4    26    27    2
     5    26    28   am
     6    28     1    1
     7     1     2   ar
     8     2     3   ar
     9     3     4   ar
    10     4     7    1
    11     7     8    1
    12     8     9    1
    13     9    10    1
    14    10    14    1
    15    14    15    1
    16    15    16    1
    17    16    17   ar
    18    17    18   ar
    19    18    19   ar
    20    19    20   ar
    21    20    22    1
    22    22    23    2
    23    22    24    1
    24    20    21   ar
    25    10    11    1
    26    11    12    1
    27    11    13    1
    28     4     5   ar
    29     5     6   ar
    30    32    33   ar
    31    33    34   ar
    32    34    35   ar
    33    35    36   ar
    34    36    37   ar
    35    37    40    1
    36    40    41   ar
    37    41    42   ar
    38    42    43   ar
    39    43    44   ar
    40    44    45   ar
    41    37    38   ar
    42    38    39   ar
    43    39    31   ar
    44     6     1   ar
    45    39    34   ar
    46    13     7    1
    47    45    40   ar
    48    21    16   ar
    49    28    29    1
    50    24    25    1
@<TRIPOS>MOLECULE
*****
 45 50 0 0 0
SMALL
GASTEIGER

@<TRIPOS>ATOM
      1 C          12.0990   81.0852   25.0108 C.ar    1  UNL1        0.0702
      2 C          13.4975   81.1850   24.9624 C.ar    1  UNL1        0.0191
      3 C          14.1043   82.4028   24.6507 C.ar    1  UNL1        0.0356
      4 C          13.3078   83.5286   24.3721 C.ar    1  UNL1        0.1318
      5 N          11.9516   83.3959   24.4065 N.ar    1  UNL1       -0.2279
      6 C          11.3392   82.2207   24.7066 C.ar    1  UNL1        0.1149
      7 N          13.8983   84.8121   24.0562 N.pl3   1  UNL1       -0.2924
      8 C          13.1467   86.0608   24.2751 C.3     1  UNL1        0.0923
      9 C          13.8139   87.2589   23.5830 C.3     1  UNL1        0.0261
     10 C          14.2424   86.8782   22.1529 C.3     1  UNL1        0.0576
     11 C          15.2189   85.6606   22.1418 C.3     1  UNL1        0.0805
     12 BR         14.7455   84.4308   20.7060 Br      1  UNL1       -0.0798
     13 C          15.2485   84.8968   23.4780 C.3     1  UNL1        0.1036
     14 C          14.8553   88.1018   21.4417 C.3     1  UNL1        0.2062
     15 O          15.3970   89.0297   22.3832 O.3     1  UNL1       -0.4754
     16 C          16.7248   89.0487   22.8410 C.ar    1  UNL1        0.1388
     17 C          17.8256   89.2109   21.9796 C.ar    1  UNL1        0.0369
     18 C          19.1238   89.2098   22.4925 C.ar    1  UNL1        0.0033
     19 C          19.3404   89.0572   23.8637 C.ar    1  UNL1        0.0066
     20 C          18.2534   88.9109   24.7431 C.ar    1  UNL1        0.0785
     21 C          16.9490   88.9020   24.2156 C.ar    1  UNL1        0.0433
     22 C          18.4637   88.7428   26.2019 C.2     1  UNL1        0.3381
     23 O          17.5277   89.0074   27.0027 O.2     1  UNL1       -0.2451
     24 O          19.6825   88.3107   26.7238 O.3     1  UNL1       -0.4771
     25 H          20.5057   88.1795   26.1507 H       1  UNL1        0.2954
     26 C          10.4059   79.2744   24.4843 C.2     1  UNL1        0.2839
     27 O          10.3508   79.5550   23.2568 O.2     1  UNL1       -0.2665
     28 N          11.4381   79.8423   25.3043 N.am    1  UNL1       -0.2766
     29 H          11.8027   79.2667   26.0960 H       1  UNL1        0.1553
     30 C           9.0513   79.2733   27.4211 C.3     1  UNL1        0.0345
     31 C           8.8670   78.2895   26.3053 C.ar    1  UNL1        0.0202
     32 C           9.4489   78.2964   25.0313 C.ar    1  UNL1        0.1946
     33 O           9.0060   77.2697   24.3269 O.2     1  UNL1       -0.4492
     34 C           8.1850   76.5850   25.0850 C.ar    1  UNL1        0.1452
     35 C           7.4945   75.4252   24.7512 C.ar    1  UNL1        0.0375
     36 C           6.6608   74.8498   25.7261 C.ar    1  UNL1        0.0031
     37 C           6.5304   75.4387   27.0132 C.ar    1  UNL1        0.0002
     38 C           7.2508   76.6203   27.3113 C.ar    1  UNL1        0.0028
     39 C           8.0680   77.1635   26.3195 C.ar    1  UNL1        0.0337
     40 C           5.6478   74.8215   28.0355 C.ar    1  UNL1        0.0000
     41 C           5.1193   75.5955   29.0862 C.ar    1  UNL1        0.0000
     42 C           4.2892   75.0114   30.0479 C.ar    1  UNL1        0.0000
     43 C           3.9771   73.6522   29.9726 C.ar    1  UNL1        0.0000
     44 C           4.4949   72.8738   28.9351 C.ar    1  UNL1        0.0000
     45 C           5.3262   73.4523   27.9710 C.ar    1  UNL1        0.0000
@<TRIPOS>BOND
     1    30    31    1
     2    31    32   ar
     3    32    26    1
     4    26    27    2
     5    26    28   am
     6    28     1    1
     7     1     2   ar
     8     2     3   ar
     9     3     4   ar
    10     4     7    1
    11     7     8    1
    12     8     9    1
    13     9    10    1
    14    10    14    1
    15    14    15    1
    16    15    16    1
    17    16    17   ar
    18    17    18   ar
    19    18    19   ar
    20    19    20   ar
    21    20    22    1
    22    22    23    2
    23    22    24    1
    24    20    21   ar
    25    10    11    1
    26    11    12    1
    27    11    13    1
    28     4     5   ar
    29     5     6   ar
    30    32    33   ar
    31    33    34   ar
    32    34    35   ar
    33    35    36   ar
    34    36    37   ar
    35    37    40    1
    36    40    41   ar
    37    41    42   ar
    38    42    43   ar
    39    43    44   ar
    40    44    45   ar
    41    37    38   ar
    42    38    39   ar
    43    39    31   ar
    44     6     1   ar
    45    39    34   ar
    46    13     7    1
    47    45    40   ar
    48    21    16   ar
    49    28    29    1
    50    24    25    1
@<TRIPOS>MOLECULE
*****
 45 50 0 0 0
SMALL
GASTEIGER

@<TRIPOS>ATOM
      1 C          12.8331   81.9746   25.5626 C.ar    1  UNL1        0.0702
      2 C          12.3338   82.2816   24.2879 C.ar    1  UNL1        0.0191
      3 C          12.7193   83.4606   23.6479 C.ar    1  UNL1        0.0356
      4 C          13.6016   84.3479   24.2913 C.ar    1  UNL1        0.1318
      5 N          14.0536   84.0327   25.5380 N.ar    1  UNL1       -0.2279
      6 C          13.6914   82.8915   26.1803 C.ar    1  UNL1        0.1149
      7 N          14.0347   85.5750   23.6568 N.pl3   1  UNL1       -0.2924
      8 C          13.1756   86.7724   23.6687 C.3     1  UNL1        0.0923
      9 C          13.6681   87.8396   22.6798 C.3     1  UNL1        0.0261
     10 C          14.0356   87.1894   21.3323 C.3     1  UNL1        0.0576
     11 C          15.1288   86.0873   21.4960 C.3     1  UNL1        0.0805
     12 BR         14.6878   84.5341   20.4046 Br      1  UNL1       -0.0798
     13 C          15.3268   85.6441   22.9568 C.3     1  UNL1        0.1036
     14 C          14.4703   88.2725   20.3241 C.3     1  UNL1        0.2062
     15 O          13.6176   88.2845   19.1780 O.3     1  UNL1       -0.4754
     16 C          14.0000   87.9414   17.8708 C.ar    1  UNL1        0.1388
     17 C          14.0472   88.8766   16.8203 C.ar    1  UNL1        0.0369
     18 C          14.4240   88.4732   15.5383 C.ar    1  UNL1        0.0033
     19 C          14.7656   87.1421   15.2896 C.ar    1  UNL1        0.0066
     20 C          14.7413   86.1959   16.3290 C.ar    1  UNL1        0.0785
     21 C          14.3494   86.6095   17.6155 C.ar    1  UNL1        0.0433
     22 C          15.0962   84.7766   16.0832 C.2     1  UNL1        0.3381
     23 O          14.2530   84.0042   15.5543 O.2     1  UNL1       -0.2451
     24 O          16.3420   84.2588   16.4361 O.3     1  UNL1       -0.4771
     25 H          17.0271   84.7918   16.9554 H       1  UNL1        0.2954
     26 C          12.1848   79.5253   25.6177 C.2     1  UNL1        0.2839
     27 O          12.7346   79.2604   24.5149 O.2     1  UNL1       -0.2665
     28 N          12.4398   80.7819   26.2629 N.am    1  UNL1       -0.2766
     29 H          12.4456   80.8004   27.3072 H       1  UNL1        0.1553
     30 C           8.9582   79.3040   25.6007 C.3     1  UNL1        0.0345
     31 C           9.9547   78.3995   26.2610 C.ar    1  UNL1        0.0202
     32 C          11.3522   78.4931   26.2604 C.ar    1  UNL1        0.1946
     33 O          11.8728   77.4815   26.9327 O.2     1  UNL1       -0.4492
     34 C          10.8857   76.7497   27.3882 C.ar    1  UNL1        0.1452
     35 C          10.9746   75.5920   28.1533 C.ar    1  UNL1        0.0375
     36 C           9.7782   74.9620   28.5383 C.ar    1  UNL1        0.0031
     37 C           8.5176   75.4955   28.1554 C.ar    1  UNL1        0.0002
     38 C           8.4722   76.6761   27.3755 C.ar    1  UNL1        0.0028
     39 C           9.6791   77.2737   27.0114 C.ar    1  UNL1        0.0337
     40 C           7.2602   74.8223   28.5689 C.ar    1  UNL1        0.0000
     41 C           6.6998   75.0687   29.8368 C.ar    1  UNL1        0.0000
     42 C           5.5163   74.4326   30.2237 C.ar    1  UNL1        0.0000
     43 C           4.8794   73.5462   29.3524 C.ar    1  UNL1        0.0000
     44 C           5.4252   73.2935   28.0920 C.ar    1  UNL1        0.0000
     45 C           6.6090   73.9261   27.7000 C.ar    1  UNL1        0.0000
@<TRIPOS>BOND
     1    30    31    1
     2    31    32   ar
     3    32    26    1
     4    26    27    2
     5    26    28   am
     6    28     1    1
     7     1     2   ar
     8     2     3   ar
     9     3     4   ar
    10     4     7    1
    11     7     8    1
    12     8     9    1
    13     9    10    1
    14    10    14    1
    15    14    15    1
    16    15    16    1
    17    16    17   ar
    18    17    18   ar
    19    18    19   ar
    20    19    20   ar
    21    20    22    1
    22    22    23    2
    23    22    24    1
    24    20    21   ar
    25    10    11    1
    26    11    12    1
    27    11    13    1
    28     4     5   ar
    29     5     6   ar
    30    32    33   ar
    31    33    34   ar
    32    34    35   ar
    33    35    36   ar
    34    36    37   ar
    35    37    40    1
    36    40    41   ar
    37    41    42   ar
    38    42    43   ar
    39    43    44   ar
    40    44    45   ar
    41    37    38   ar
    42    38    39   ar
    43    39    31   ar
    44     6     1   ar
    45    39    34   ar
    46    13     7    1
    47    45    40   ar
    48    21    16   ar
    49    28    29    1
    50    24    25    1
@<TRIPOS>MOLECULE
*****
 45 50 0 0 0
SMALL
GASTEIGER

@<TRIPOS>ATOM
      1 C          12.0628   81.3714   25.2989 C.ar    1  UNL1        0.0702
      2 C          12.2738   82.0311   24.0789 C.ar    1  UNL1        0.0191
      3 C          12.9683   83.2415   24.0460 C.ar    1  UNL1        0.0356
      4 C          13.4458   83.8052   25.2434 C.ar    1  UNL1        0.1318
      5 N          13.2074   83.1515   26.4155 N.ar    1  UNL1       -0.2279
      6 C          12.5334   81.9731   26.4717 C.ar    1  UNL1        0.1149
      7 N          14.1806   85.0525   25.2506 N.pl3   1  UNL1       -0.2924
      8 C          14.3490   85.8197   26.4977 C.3     1  UNL1        0.0923
      9 C          14.8641   87.2417   26.2294 C.3     1  UNL1        0.0261
     10 C          14.0959   87.8745   25.0532 C.3     1  UNL1        0.0576
     11 C          14.2183   87.0221   23.7514 C.3     1  UNL1        0.0805
     12 BR         12.4933   86.9176   22.8504 Br      1  UNL1       -0.0798
     13 C          14.7465   85.5991   24.0075 C.3     1  UNL1        0.1036
     14 C          14.5742   89.3233   24.8282 C.3     1  UNL1        0.2062
     15 O          15.9092   89.5069   25.3026 O.3     1  UNL1       -0.4754
     16 C          17.0758   89.3809   24.5306 C.ar    1  UNL1        0.1388
     17 C          18.3464   89.1725   25.0983 C.ar    1  UNL1        0.0369
     18 C          19.4718   89.0666   24.2794 C.ar    1  UNL1        0.0033
     19 C          19.3454   89.1575   22.8915 C.ar    1  UNL1        0.0066
     20 C          18.0827   89.3485   22.3038 C.ar    1  UNL1        0.0785
     21 C          16.9555   89.4652   23.1379 C.ar    1  UNL1        0.0433
     22 C          17.9290   89.4522   20.8320 C.2     1  UNL1        0.3381
     23 O          18.9524   89.5071   20.0992 O.2     1  UNL1       -0.2451
     24 O          16.6743   89.5066   20.2260 O.3     1  UNL1       -0.4771
     25 H          15.8149   89.5709   20.7558 H       1  UNL1        0.2954
     26 C          10.0415   79.9342   24.7780 C.2     1  UNL1        0.2839
     27 O           9.6943   80.6227   23.7810 O.2     1  UNL1       -0.2665
     28 N          11.3311   80.1358   25.3750 N.am    1  UNL1       -0.2766
     29 H          11.8092   79.3063   25.7925 H       1  UNL1        0.1553
     30 C           8.8754   79.5390   27.7686 C.3     1  UNL1        0.0345
     31 C           8.6371   78.6959   26.5523 C.ar    1  UNL1        0.0202
     32 C           9.1371   78.8736   25.2562 C.ar    1  UNL1        0.1946
     33 O           8.6673   77.9311   24.4578 O.2     1  UNL1       -0.4492
     34 C           7.9072   77.1387   25.1733 C.ar    1  UNL1        0.1452
     35 C           7.2160   76.0125   24.7404 C.ar    1  UNL1        0.0375
     36 C           6.4551   75.3016   25.6849 C.ar    1  UNL1        0.0031
     37 C           6.3968   75.7243   27.0408 C.ar    1  UNL1        0.0002
     38 C           7.1152   76.8772   27.4393 C.ar    1  UNL1        0.0028
     39 C           7.8590   77.5578   26.4750 C.ar    1  UNL1        0.0337
     40 C           5.5908   74.9649   28.0301 C.ar    1  UNL1        0.0000
     41 C           5.2740   73.6113   27.8075 C.ar    1  UNL1        0.0000
     42 C           4.5140   72.8991   28.7404 C.ar    1  UNL1        0.0000
     43 C           4.0631   73.5271   29.9035 C.ar    1  UNL1        0.0000
     44 C           4.3709   74.8693   30.1361 C.ar    1  UNL1        0.0000
     45 C           5.1298   75.5868   29.2062 C.ar    1  UNL1        0.0000
@<TRIPOS>BOND
     1    30    31    1
     2    31    32   ar
     3    32    26    1
     4    26    27    2
     5    26    28   am
     6    28     1    1
     7     1     2   ar
     8     2     3   ar
     9     3     4   ar
    10     4     7    1
    11     7     8    1
    12     8     9    1
    13     9    10    1
    14    10    14    1
    15    14    15    1
    16    15    16    1
    17    16    17   ar
    18    17    18   ar
    19    18    19   ar
    20    19    20   ar
    21    20    22    1
    22    22    23    2
    23    22    24    1
    24    20    21   ar
    25    10    11    1
    26    11    12    1
    27    11    13    1
    28     4     5   ar
    29     5     6   ar
    30    32    33   ar
    31    33    34   ar
    32    34    35   ar
    33    35    36   ar
    34    36    37   ar
    35    37    40    1
    36    40    41   ar
    37    41    42   ar
    38    42    43   ar
    39    43    44   ar
    40    44    45   ar
    41    37    38   ar
    42    38    39   ar
    43    39    31   ar
    44     6     1   ar
    45    39    34   ar
    46    13     7    1
    47    45    40   ar
    48    21    16   ar
    49    28    29    1
    50    24    25    1
@<TRIPOS>MOLECULE
*****
 45 50 0 0 0
SMALL
GASTEIGER

@<TRIPOS>ATOM
      1 C           9.8374   79.7475   24.3441 C.ar    1  UNL1        0.0702
      2 C           9.3755   78.9266   23.3045 C.ar    1  UNL1        0.0191
      3 C           8.5526   77.8345   23.5847 C.ar    1  UNL1        0.0356
      4 C           8.1976   77.5515   24.9164 C.ar    1  UNL1        0.1318
      5 N           8.6786   78.3546   25.9072 N.ar    1  UNL1       -0.2279
      6 C           9.4813   79.4222   25.6581 C.ar    1  UNL1        0.1149
      7 N           7.3369   76.4355   25.2477 N.pl3   1  UNL1       -0.2924
      8 C           5.8860   76.6291   25.4196 C.3     1  UNL1        0.0923
      9 C           5.2202   75.4107   26.0768 C.3     1  UNL1        0.0261
     10 C           6.0620   74.9223   27.2712 C.3     1  UNL1        0.0576
     11 C           7.5180   74.5538   26.8461 C.3     1  UNL1        0.0805
     12 BR          8.7925   75.2197   28.1615 Br      1  UNL1       -0.0798
     13 C           7.8956   75.0902   25.4536 C.3     1  UNL1        0.1036
     14 C           5.3580   73.7382   27.9646 C.3     1  UNL1        0.2062
     15 O           4.9701   74.0756   29.2975 O.3     1  UNL1       -0.4754
     16 C           4.8286   75.3785   29.8029 C.ar    1  UNL1        0.1388
     17 C           3.5769   75.9490   30.0996 C.ar    1  UNL1        0.0369
     18 C           3.4991   77.2539   30.5889 C.ar    1  UNL1        0.0033
     19 C           4.6612   78.0000   30.7964 C.ar    1  UNL1        0.0066
     20 C           5.9223   77.4425   30.5224 C.ar    1  UNL1        0.0785
     21 C           5.9902   76.1303   30.0189 C.ar    1  UNL1        0.0433
     22 C           7.1676   78.2209   30.7319 C.2     1  UNL1        0.3381
     23 O           7.7533   78.1747   31.8464 O.2     1  UNL1       -0.2451
     24 O           7.7101   79.0236   29.7289 O.3     1  UNL1       -0.4771
     25 H           7.2403   79.1888   28.8484 H       1  UNL1        0.2954
     26 C          12.0502   80.9578   24.5917 C.2     1  UNL1        0.2839
     27 O          12.7002   79.9085   24.8468 O.2     1  UNL1       -0.2665
     28 N          10.7060   80.8665   24.0966 N.am    1  UNL1       -0.2766
     29 H          10.3815   81.6028   23.4306 H       1  UNL1        0.1553
     30 C          13.1331   82.3334   27.3111 C.3     1  UNL1        0.0345
     31 C          13.1871   82.8619   25.9094 C.ar    1  UNL1        0.0202
     32 C          12.7243   82.2607   24.7321 C.ar    1  UNL1        0.1946
     33 O          12.9877   83.0364   23.6951 O.2     1  UNL1       -0.4492
     34 C          13.5766   84.1190   24.1410 C.ar    1  UNL1        0.1452
     35 C          14.0222   85.2063   23.3975 C.ar    1  UNL1        0.0375
     36 C          14.6300   86.2713   24.0851 C.ar    1  UNL1        0.0031
     37 C          14.7823   86.2344   25.4978 C.ar    1  UNL1        0.0002
     38 C          14.3151   85.1077   26.2164 C.ar    1  UNL1        0.0028
     39 C          13.7179   84.0694   25.5011 C.ar    1  UNL1        0.0337
     40 C          15.4247   87.3657   26.2138 C.ar    1  UNL1        0.0000
     41 C          16.3656   88.1844   25.5605 C.ar    1  UNL1        0.0000
     42 C          16.9695   89.2484   26.2376 C.ar    1  UNL1        0.0000
     43 C          16.6422   89.5076   27.5703 C.ar    1  UNL1        0.0000
     44 C          15.7103   88.7029   28.2293 C.ar    1  UNL1        0.0000
     45 C          15.1038   87.6370   27.5576 C.ar    1  UNL1        0.0000
@<TRIPOS>BOND
     1    30    31    1
     2    31    32   ar
     3    32    26    1
     4    26    27    2
     5    26    28   am
     6    28     1    1
     7     1     2   ar
     8     2     3   ar
     9     3     4   ar
    10     4     7    1
    11     7     8    1
    12     8     9    1
    13     9    10    1
    14    10    14    1
    15    14    15    1
    16    15    16    1
    17    16    17   ar
    18    17    18   ar
    19    18    19   ar
    20    19    20   ar
    21    20    22    1
    22    22    23    2
    23    22    24    1
    24    20    21   ar
    25    10    11    1
    26    11    12    1
    27    11    13    1
    28     4     5   ar
    29     5     6   ar
    30    32    33   ar
    31    33    34   ar
    32    34    35   ar
    33    35    36   ar
    34    36    37   ar
    35    37    40    1
    36    40    41   ar
    37    41    42   ar
    38    42    43   ar
    39    43    44   ar
    40    44    45   ar
    41    37    38   ar
    42    38    39   ar
    43    39    31   ar
    44     6     1   ar
    45    39    34   ar
    46    13     7    1
    47    45    40   ar
    48    21    16   ar
    49    28    29    1
    50    24    25    1
@<TRIPOS>MOLECULE
*****
 45 50 0 0 0
SMALL
GASTEIGER

@<TRIPOS>ATOM
      1 C          11.7392   80.8516   25.2095 C.ar    1  UNL1        0.0702
      2 C          13.1254   81.0067   25.0590 C.ar    1  UNL1        0.0191
      3 C          13.6674   82.2676   24.8046 C.ar    1  UNL1        0.0356
      4 C          12.8169   83.3823   24.6866 C.ar    1  UNL1        0.1318
      5 N          11.4728   83.1970   24.8170 N.ar    1  UNL1       -0.2279
      6 C          10.9230   81.9793   25.0640 C.ar    1  UNL1        0.1149
      7 N          13.3404   84.7083   24.4348 N.pl3   1  UNL1       -0.2924
      8 C          12.4349   85.8279   24.1204 C.3     1  UNL1        0.0923
      9 C          13.1976   87.0450   23.5762 C.3     1  UNL1        0.0261
     10 C          14.2366   86.5993   22.5294 C.3     1  UNL1        0.0576
     11 C          15.2513   85.5693   23.1173 C.3     1  UNL1        0.0805
     12 BR         15.5773   84.1382   21.8352 Br      1  UNL1       -0.0798
     13 C          14.7897   84.9608   24.4538 C.3     1  UNL1        0.1036
     14 C          14.9560   87.8304   21.9417 C.3     1  UNL1        0.2062
     15 O          14.8792   87.8423   20.5152 O.3     1  UNL1       -0.4754
     16 C          14.4320   86.7808   19.7115 C.ar    1  UNL1        0.1388
     17 C          13.0679   86.5122   19.4934 C.ar    1  UNL1        0.0369
     18 C          12.6843   85.4347   18.6934 C.ar    1  UNL1        0.0033
     19 C          13.6493   84.6207   18.0963 C.ar    1  UNL1        0.0066
     20 C          15.0172   84.8822   18.2879 C.ar    1  UNL1        0.0785
     21 C          15.3943   85.9639   19.1049 C.ar    1  UNL1        0.0433
     22 C          16.0567   84.0261   17.6658 C.2     1  UNL1        0.3381
     23 O          16.5425   83.0617   18.3149 O.2     1  UNL1       -0.2451
     24 O          16.5307   84.2650   16.3763 O.3     1  UNL1       -0.4771
     25 H          16.2622   85.0785   15.8383 H       1  UNL1        0.2954
     26 C          10.0821   79.0173   24.6507 C.2     1  UNL1        0.2839
     27 O           9.9407   79.3837   23.4530 O.2     1  UNL1       -0.2665
     28 N          11.1426   79.5651   25.4480 N.am    1  UNL1       -0.2766
     29 H          11.5761   78.9487   26.1712 H       1  UNL1        0.1553
     30 C           8.3893   79.0656   27.4060 C.3     1  UNL1        0.0345
     31 C           8.4687   77.9799   26.3754 C.ar    1  UNL1        0.0202
     32 C           9.1965   77.9646   25.1789 C.ar    1  UNL1        0.1946
     33 O           8.9763   76.8342   24.5308 O.2     1  UNL1       -0.4492
     34 C           8.1617   76.1065   25.2550 C.ar    1  UNL1        0.1452
     35 C           7.6692   74.8404   24.9587 C.ar    1  UNL1        0.0375
     36 C           6.8017   74.2362   25.8856 C.ar    1  UNL1        0.0031
     37 C           6.4416   74.9025   27.0883 C.ar    1  UNL1        0.0002
     38 C           6.9652   76.1914   27.3506 C.ar    1  UNL1        0.0028
     39 C           7.8224   76.7602   26.4082 C.ar    1  UNL1        0.0337
     40 C           5.5255   74.2542   28.0607 C.ar    1  UNL1        0.0000
     41 C           4.9699   74.9928   29.1229 C.ar    1  UNL1        0.0000
     42 C           4.1084   74.3793   30.0375 C.ar    1  UNL1        0.0000
     43 C           3.7914   73.0259   29.9032 C.ar    1  UNL1        0.0000
     44 C           4.3358   72.2825   28.8537 C.ar    1  UNL1        0.0000
     45 C           5.1986   72.8903   27.9365 C.ar    1  UNL1        0.0000
@<TRIPOS>BOND
     1    30    31    1
     2    31    32   ar
     3    32    26    1
     4    26    27    2
     5    26    28   am
     6    28     1    1
     7     1     2   ar
     8     2     3   ar
     9     3     4   ar
    10     4     7    1
    11     7     8    1
    12     8     9    1
    13     9    10    1
    14    10    14    1
    15    14    15    1
    16    15    16    1
    17    16    17   ar
    18    17    18   ar
    19    18    19   ar
    20    19    20   ar
    21    20    22    1
    22    22    23    2
    23    22    24    1
    24    20    21   ar
    25    10    11    1
    26    11    12    1
    27    11    13    1
    28     4     5   ar
    29     5     6   ar
    30    32    33   ar
    31    33    34   ar
    32    34    35   ar
    33    35    36   ar
    34    36    37   ar
    35    37    40    1
    36    40    41   ar
    37    41    42   ar
    38    42    43   ar
    39    43    44   ar
    40    44    45   ar
    41    37    38   ar
    42    38    39   ar
    43    39    31   ar
    44     6     1   ar
    45    39    34   ar
    46    13     7    1
    47    45    40   ar
    48    21    16   ar
    49    28    29    1
    50    24    25    1
