@<TRIPOS>MOLECULE
*****
 45 51 0 0 0
SMALL
GASTEIGER

@<TRIPOS>ATOM
      1 C         -10.6895   -7.4765   29.6689 C.3     1  UNL1        0.0817
      2 C         -10.1481   -8.1197   28.3724 C.3     1  UNL1        0.0252
      3 C         -10.4744   -9.6254   28.4472 C.3     1  UNL1        0.0278
      4 C         -11.0021   -9.8145   29.8210 C.ar    1  UNL1       -0.0248
      5 C         -11.3784  -11.0226   30.4108 C.ar    1  UNL1       -0.0045
      6 C         -11.8931  -11.0105   31.7224 C.ar    1  UNL1       -0.0002
      7 C         -12.0124   -9.7838   32.4132 C.ar    1  UNL1       -0.0003
      8 C         -11.6319   -8.5834   31.7969 C.ar    1  UNL1       -0.0033
      9 C         -11.1045   -8.6294   30.5050 C.ar    1  UNL1       -0.0117
     10 C          -9.7632   -5.2831   30.6451 C.3     1  UNL1        0.1158
     11 N          -8.6607   -4.8116   31.2785 N.3     1  UNL1       -0.2851
     12 C          -7.8759   -5.8924   31.3808 C.3     1  UNL1        0.0910
     13 C          -6.6258   -5.9560   31.9745 C.3     1  UNL1        0.1018
     14 C          -5.9875   -7.2027   32.0008 C.3     1  UNL1        0.3136
     15 N          -6.5873   -8.3196   31.4614 N.am    1  UNL1       -0.1293
     16 C          -7.8358   -8.2365   30.8797 C.2     1  UNL1        0.4047
     17 O          -8.3864   -9.2673   30.4115 O.2     1  UNL1       -0.2174
     18 C          -8.4774   -6.9846   30.8336 C.3     1  UNL1        0.2038
     19 N          -9.6855   -6.6181   30.3361 N.3     1  UNL1       -0.2473
     20 H          -8.8982   -4.4443   32.2000 H       1  UNL1        0.1244
     21 C         -10.6668   -3.5252   29.1171 C.3     1  UNL1        0.0029
     22 C         -10.9262   -4.3700   30.3598 C.3     1  UNL1        0.0326
     23 C          -5.8884   -9.6138   31.5509 C.3     1  UNL1        0.3404
     24 C          -5.3611  -10.0278   30.1927 C.ar    1  UNL1        0.0640
     25 C          -4.1855   -9.4201   29.7156 C.ar    1  UNL1        0.0031
     26 C          -3.6479   -9.7815   28.4785 C.ar    1  UNL1       -0.0001
     27 C          -4.2762  -10.7528   27.6995 C.ar    1  UNL1        0.0007
     28 C          -5.4462  -11.3640   28.1535 C.ar    1  UNL1        0.0102
     29 C          -5.9973  -11.0106   29.3937 C.ar    1  UNL1        0.0710
     30 C          -7.2150  -11.6636   29.8106 C.1     1  UNL1        0.1003
     31 N          -8.1919  -12.1870   30.1439 N.1     1  UNL1       -0.1908
     32 C         -12.2775  -12.2791   32.3806 C.ar    1  UNL1        0.0032
     33 C         -13.5452  -12.8132   32.1008 C.ar    1  UNL1        0.0032
     34 C         -13.9315  -14.0441   32.6295 C.ar    1  UNL1        0.0369
     35 C         -13.0646  -14.7686   33.4489 C.ar    1  UNL1        0.1388
     36 C         -11.7962  -14.2381   33.7475 C.ar    1  UNL1        0.0400
     37 C         -11.3932  -12.9926   33.2308 C.ar    1  UNL1        0.0401
     38 C         -10.0772  -12.4426   33.6400 C.ar    1  UNL1        0.1807
     39 N          -9.5714  -12.5024   34.8872 N.ar    1  UNL1       -0.1083
     40 N          -8.3795  -11.9284   34.8045 N.ar    1  UNL1       -0.0229
     41 N          -8.1533  -11.5347   33.5604 N.ar    1  UNL1       -0.0464
     42 N          -9.1971  -11.8492   32.8153 N.ar    1  UNL1       -0.2388
     43 H          -9.2922  -11.6463   31.7958 H       1  UNL1        0.1923
     44 O         -13.5016  -16.0045   33.9492 O.3     1  UNL1       -0.4714
     45 C         -14.2624  -16.9513   33.2061 C.3     1  UNL1        0.2525
@<TRIPOS>BOND
     1    21    22    1
     2    22    10    1
     3    10    11    1
     4    11    12    1
     5    12    13    1
     6    13    14    1
     7    14    15    1
     8    15    23    1
     9    23    24    1
    10    24    25   ar
    11    25    26   ar
    12    26    27   ar
    13    27    28   ar
    14    28    29   ar
    15    29    30    1
    16    30    31    3
    17    15    16    1
    18    16    17    2
    19    16    18    1
    20    18    19    1
    21    19     1    1
    22     1     2    1
    23     2     3    1
    24     3     4    1
    25     4     5   ar
    26     5     6   ar
    27     6    32    1
    28    32    33   ar
    29    33    34   ar
    30    34    35   ar
    31    35    44    1
    32    44    45    1
    33    35    36   ar
    34    36    37   ar
    35    37    38    1
    36    38    39   ar
    37    39    40   ar
    38    40    41   ar
    39    41    42   ar
    40     6     7   ar
    41     7     8   ar
    42     8     9   ar
    43    19    10    1
    44     9     1    1
    45    18    12    1
    46     9     4   ar
    47    29    24   ar
    48    37    32   ar
    49    42    38   ar
    50    42    43    1
    51    11    20    1
@<TRIPOS>MOLECULE
*****
 45 51 0 0 0
SMALL
GASTEIGER

@<TRIPOS>ATOM
      1 C          -5.7394  -10.4606   30.5353 C.3     1  UNL1        0.0817
      2 C          -5.0770  -10.5262   31.9298 C.3     1  UNL1        0.0252
      3 C          -6.0807  -11.2219   32.8721 C.3     1  UNL1        0.0278
      4 C          -7.3133  -11.3529   32.0564 C.ar    1  UNL1       -0.0248
      5 C          -8.5433  -11.8599   32.4796 C.ar    1  UNL1       -0.0045
      6 C          -9.6026  -11.9413   31.5542 C.ar    1  UNL1       -0.0002
      7 C          -9.4024  -11.5054   30.2252 C.ar    1  UNL1       -0.0003
      8 C          -8.1560  -11.0045   29.8238 C.ar    1  UNL1       -0.0033
      9 C          -7.1321  -10.9152   30.7687 C.ar    1  UNL1       -0.0117
     10 C          -4.8829   -8.6579   28.9109 C.3     1  UNL1        0.1158
     11 N          -5.0899   -7.3535   28.6033 N.3     1  UNL1       -0.2851
     12 C          -6.0505   -6.9816   29.4599 C.3     1  UNL1        0.0910
     13 C          -6.6437   -5.7329   29.5491 C.3     1  UNL1        0.1018
     14 C          -7.6582   -5.5679   30.5010 C.3     1  UNL1        0.3136
     15 N          -8.0507   -6.6121   31.3095 N.am    1  UNL1       -0.1293
     16 C          -7.4511   -7.8502   31.2009 C.2     1  UNL1        0.4047
     17 O          -7.8334   -8.8050   31.9270 O.2     1  UNL1       -0.2174
     18 C          -6.4193   -8.0207   30.2590 C.3     1  UNL1        0.2038
     19 N          -5.6717   -9.1073   29.9403 N.3     1  UNL1       -0.2473
     20 H          -5.4024   -7.2513   27.6377 H       1  UNL1        0.1244
     21 C          -4.5673  -10.3407   27.0916 C.3     1  UNL1        0.0029
     22 C          -3.8786   -9.4720   28.1387 C.3     1  UNL1        0.0326
     23 C          -9.1495   -6.3945   32.2669 C.3     1  UNL1        0.3404
     24 C         -10.4135   -7.0789   31.7893 C.ar    1  UNL1        0.0640
     25 C         -10.6998   -8.3699   32.2691 C.ar    1  UNL1        0.0031
     26 C         -11.8623   -9.0353   31.8745 C.ar    1  UNL1       -0.0001
     27 C         -12.7546   -8.4230   30.9948 C.ar    1  UNL1        0.0007
     28 C         -12.4859   -7.1441   30.5040 C.ar    1  UNL1        0.0102
     29 C         -11.3221   -6.4643   30.8917 C.ar    1  UNL1        0.0710
     30 C         -11.0856   -5.1495   30.3454 C.1     1  UNL1        0.1003
     31 N         -10.8962   -4.0947   29.9084 N.1     1  UNL1       -0.1908
     32 C         -10.9241  -12.4524   31.9817 C.ar    1  UNL1        0.0032
     33 C         -11.9549  -12.5017   31.0302 C.ar    1  UNL1        0.0032
     34 C         -13.1970  -13.0462   31.3538 C.ar    1  UNL1        0.0369
     35 C         -13.4394  -13.5519   32.6318 C.ar    1  UNL1        0.1388
     36 C         -12.4186  -13.4965   33.5985 C.ar    1  UNL1        0.0400
     37 C         -11.1621  -12.9414   33.2925 C.ar    1  UNL1        0.0401
     38 C         -10.1474  -12.8356   34.3700 C.ar    1  UNL1        0.1807
     39 N          -9.7885  -13.8411   35.1916 N.ar    1  UNL1       -0.1083
     40 N          -8.8446  -13.3310   35.9700 N.ar    1  UNL1       -0.0229
     41 N          -8.6237  -12.0669   35.6426 N.ar    1  UNL1       -0.0464
     42 N          -9.4221  -11.7375   34.6437 N.ar    1  UNL1       -0.2388
     43 H          -9.4660  -10.7970   34.1930 H       1  UNL1        0.1923
     44 O         -14.7049  -14.0941   32.9023 O.3     1  UNL1       -0.4714
     45 C         -14.9363  -15.4420   33.2988 C.3     1  UNL1        0.2525
@<TRIPOS>BOND
     1    21    22    1
     2    22    10    1
     3    10    11    1
     4    11    12    1
     5    12    13    1
     6    13    14    1
     7    14    15    1
     8    15    23    1
     9    23    24    1
    10    24    25   ar
    11    25    26   ar
    12    26    27   ar
    13    27    28   ar
    14    28    29   ar
    15    29    30    1
    16    30    31    3
    17    15    16    1
    18    16    17    2
    19    16    18    1
    20    18    19    1
    21    19     1    1
    22     1     2    1
    23     2     3    1
    24     3     4    1
    25     4     5   ar
    26     5     6   ar
    27     6    32    1
    28    32    33   ar
    29    33    34   ar
    30    34    35   ar
    31    35    44    1
    32    44    45    1
    33    35    36   ar
    34    36    37   ar
    35    37    38    1
    36    38    39   ar
    37    39    40   ar
    38    40    41   ar
    39    41    42   ar
    40     6     7   ar
    41     7     8   ar
    42     8     9   ar
    43    19    10    1
    44     9     1    1
    45    18    12    1
    46     9     4   ar
    47    29    24   ar
    48    37    32   ar
    49    42    38   ar
    50    42    43    1
    51    11    20    1
