@<TRIPOS>MOLECULE
*****
 38 42 0 0 0
SMALL
GASTEIGER

@<TRIPOS>ATOM
      1 C          50.0051    9.7615  -27.6708 C.2     1  UNL1        0.2503
      2 O          49.0541   10.1379  -28.4082 O.2     1  UNL1       -0.2699
      3 N          49.9061    9.8830  -26.2349 N.am    1  UNL1       -0.2680
      4 C          50.6990    8.9738  -25.3893 C.3     1  UNL1        0.1412
      5 C          50.4506    9.1609  -23.8890 C.3     1  UNL1        0.2268
      6 O          51.0014   10.3871  -23.4143 O.3     1  UNL1       -0.4739
      7 C          50.7413   11.6815  -23.8971 C.ar    1  UNL1        0.1362
      8 C          51.4342   12.7285  -23.2794 C.ar    1  UNL1        0.0366
      9 C          51.2949   14.0434  -23.7207 C.ar    1  UNL1        0.0031
     10 C          50.4567   14.3431  -24.8029 C.ar    1  UNL1       -0.0000
     11 C          49.7346   13.3042  -25.4118 C.ar    1  UNL1        0.0004
     12 C          49.8559   11.9738  -24.9673 C.ar    1  UNL1        0.0317
     13 C          49.0327   10.9102  -25.6479 C.3     1  UNL1        0.1236
     14 C          50.3445   15.7348  -25.3053 C.ar    1  UNL1        0.0015
     15 C          51.2247   16.7448  -24.8251 C.ar    1  UNL1        0.0016
     16 C          51.1240   18.0696  -25.2894 C.ar    1  UNL1        0.0206
     17 C          50.1384   18.3536  -26.2286 C.ar    1  UNL1        0.0985
     18 N          49.8662   19.5385  -26.8043 N.ar    1  UNL1       -0.2241
     19 C          48.8257   19.2422  -27.6273 C.ar    1  UNL1        0.1750
     20 N          48.4530   17.9405  -27.5806 N.ar    1  UNL1       -0.3349
     21 C          49.2917   17.3950  -26.6921 C.ar    1  UNL1        0.0757
     22 C          49.3552   16.0732  -26.2602 C.ar    1  UNL1        0.0185
     23 H          47.6872   17.4741  -28.1155 H       1  UNL1        0.1675
     24 C          51.1109    8.0644  -29.1587 C.ar    1  UNL1        0.0500
     25 C          52.2765    7.5631  -29.7695 C.ar    1  UNL1        0.0328
     26 C          53.5218    8.1506  -29.5333 C.ar    1  UNL1        0.1066
     27 C          53.6180    9.2613  -28.6933 C.ar    1  UNL1        0.0143
     28 C          52.4763    9.7950  -28.0796 C.ar    1  UNL1       -0.0150
     29 C          52.6201   10.9992  -27.1842 C.3     1  UNL1        0.0313
     30 C          51.2146    9.1953  -28.3080 C.ar    1  UNL1        0.0628
     31 S          54.9612    7.5090  -30.3201 S.O2    1  UNL1        0.0105
     32 C          56.2479    8.7355  -30.2825 C.3     1  UNL1        0.1816
     33 O          55.4271    6.2709  -29.6064 O.2     1  UNL1       -0.1686
     34 O          54.6458    7.1532  -31.7459 O.2     1  UNL1       -0.1686
     35 N          49.8332    7.4220  -29.3775 N.pl3   1  UNL1       -0.3325
     36 H          49.4570    6.7746  -28.6499 H       1  UNL1        0.1468
     37 C          49.3751    6.5919  -31.6547 C.3     1  UNL1        0.0229
     38 C          49.0286    7.6231  -30.5854 C.3     1  UNL1        0.0871
@<TRIPOS>BOND
     1    37    38    1
     2    38    35    1
     3    35    24    1
     4    24    25   ar
     5    25    26   ar
     6    26    31    1
     7    31    32    1
     8    31    33    2
     9    31    34    2
    10    26    27   ar
    11    27    28   ar
    12    28    29    1
    13    28    30   ar
    14    30     1    1
    15     1     2    2
    16     1     3   am
    17     3     4    1
    18     4     5    1
    19     5     6    1
    20     6     7    1
    21     7     8   ar
    22     8     9   ar
    23     9    10   ar
    24    10    14    1
    25    14    15   ar
    26    15    16   ar
    27    16    17   ar
    28    17    18   ar
    29    18    19   ar
    30    19    20   ar
    31    20    21   ar
    32    21    22   ar
    33    10    11   ar
    34    11    12   ar
    35    12    13    1
    36    30    24   ar
    37    13     3    1
    38    12     7   ar
    39    22    14   ar
    40    21    17   ar
    41    35    36    1
    42    20    23    1
@<TRIPOS>MOLECULE
*****
 38 42 0 0 0
SMALL
GASTEIGER

@<TRIPOS>ATOM
      1 C          49.7577    9.9905  -27.3398 C.2     1  UNL1        0.2503
      2 O          48.7396   10.2678  -28.0301 O.2     1  UNL1       -0.2699
      3 N          49.7289   10.1451  -25.9040 N.am    1  UNL1       -0.2680
      4 C          50.6393    9.3273  -25.0837 C.3     1  UNL1        0.1412
      5 C          50.4600    9.5371  -23.5765 C.3     1  UNL1        0.2268
      6 O          50.9342   10.8168  -23.1643 O.3     1  UNL1       -0.4739
      7 C          50.5426   12.0716  -23.6626 C.ar    1  UNL1        0.1362
      8 C          51.1808   13.1883  -23.1115 C.ar    1  UNL1        0.0366
      9 C          50.9100   14.4745  -23.5758 C.ar    1  UNL1        0.0031
     10 C          49.9914   14.6745  -24.6149 C.ar    1  UNL1       -0.0000
     11 C          49.3240   13.5638  -25.1557 C.ar    1  UNL1        0.0004
     12 C          49.5782   12.2609  -24.6868 C.ar    1  UNL1        0.0317
     13 C          48.8084   11.1153  -25.2927 C.3     1  UNL1        0.1236
     14 C          49.7380   16.0376  -25.1436 C.ar    1  UNL1        0.0015
     15 C          50.6420   16.6277  -26.0709 C.ar    1  UNL1        0.0016
     16 C          50.4157   17.9223  -26.5746 C.ar    1  UNL1        0.0206
     17 C          49.2833   18.5996  -26.1350 C.ar    1  UNL1        0.0985
     18 N          48.8744   19.8330  -26.4826 N.ar    1  UNL1       -0.2241
     19 C          47.7290   19.9843  -25.7664 C.ar    1  UNL1        0.1750
     20 N          47.4224   18.9078  -25.0032 N.ar    1  UNL1       -0.3349
     21 C          48.4146   18.0440  -25.2477 C.ar    1  UNL1        0.0757
     22 C          48.5996   16.7676  -24.7238 C.ar    1  UNL1        0.0185
     23 H          46.6008   18.7842  -24.3709 H       1  UNL1        0.1675
     24 C          52.1961   10.2122  -27.9074 C.ar    1  UNL1        0.0500
     25 C          53.3402    9.7120  -28.5584 C.ar    1  UNL1        0.0328
     26 C          53.2776    8.5501  -29.3316 C.ar    1  UNL1        0.1066
     27 C          52.0701    7.8601  -29.4525 C.ar    1  UNL1        0.0143
     28 C          50.9147    8.3220  -28.8069 C.ar    1  UNL1       -0.0150
     29 C          49.6311    7.5456  -28.9564 C.3     1  UNL1        0.0313
     30 C          50.9722    9.5050  -28.0317 C.ar    1  UNL1        0.0628
     31 S          54.7275    7.9416  -30.1252 S.O2    1  UNL1        0.0105
     32 C          54.2597    6.9559  -31.5290 C.3     1  UNL1        0.1816
     33 O          55.5831    9.0903  -30.5813 O.2     1  UNL1       -0.1686
     34 O          55.5205    7.1030  -29.1623 O.2     1  UNL1       -0.1686
     35 N          52.2634   11.4391  -27.1439 N.pl3   1  UNL1       -0.3325
     36 H          51.3819   11.9578  -26.9340 H       1  UNL1        0.1468
     37 C          53.6844   11.7604  -25.1534 C.3     1  UNL1        0.0229
     38 C          53.5187   12.0103  -26.6490 C.3     1  UNL1        0.0871
@<TRIPOS>BOND
     1    37    38    1
     2    38    35    1
     3    35    24    1
     4    24    25   ar
     5    25    26   ar
     6    26    31    1
     7    31    32    1
     8    31    33    2
     9    31    34    2
    10    26    27   ar
    11    27    28   ar
    12    28    29    1
    13    28    30   ar
    14    30     1    1
    15     1     2    2
    16     1     3   am
    17     3     4    1
    18     4     5    1
    19     5     6    1
    20     6     7    1
    21     7     8   ar
    22     8     9   ar
    23     9    10   ar
    24    10    14    1
    25    14    15   ar
    26    15    16   ar
    27    16    17   ar
    28    17    18   ar
    29    18    19   ar
    30    19    20   ar
    31    20    21   ar
    32    21    22   ar
    33    10    11   ar
    34    11    12   ar
    35    12    13    1
    36    30    24   ar
    37    13     3    1
    38    12     7   ar
    39    22    14   ar
    40    21    17   ar
    41    35    36    1
    42    20    23    1
@<TRIPOS>MOLECULE
*****
 38 42 0 0 0
SMALL
GASTEIGER

@<TRIPOS>ATOM
      1 C          52.4500   11.7088  -24.6086 C.2     1  UNL1        0.2503
      2 O          53.4982   11.3268  -24.0212 O.2     1  UNL1       -0.2699
      3 N          51.9352   13.0403  -24.3884 N.am    1  UNL1       -0.2680
      4 C          51.1094   13.6645  -25.4368 C.3     1  UNL1        0.1412
      5 C          50.6858   15.0999  -25.1085 C.3     1  UNL1        0.2268
      6 O          49.7189   15.1358  -24.0616 O.3     1  UNL1       -0.4739
      7 C          49.8368   14.5852  -22.7735 C.ar    1  UNL1        0.1362
      8 C          48.7291   14.7276  -21.9305 C.ar    1  UNL1        0.0366
      9 C          48.7187   14.1670  -20.6543 C.ar    1  UNL1        0.0031
     10 C          49.8229   13.4396  -20.1902 C.ar    1  UNL1       -0.0000
     11 C          50.9510   13.3148  -21.0169 C.ar    1  UNL1        0.0004
     12 C          50.9798   13.8875  -22.3027 C.ar    1  UNL1        0.0317
     13 C          52.2319   13.7384  -23.1286 C.3     1  UNL1        0.1236
     14 C          49.7946   12.8009  -18.8512 C.ar    1  UNL1        0.0015
     15 C          48.6241   12.1283  -18.4010 C.ar    1  UNL1        0.0016
     16 C          48.5831   11.5240  -17.1305 C.ar    1  UNL1        0.0206
     17 C          49.7215   11.6083  -16.3361 C.ar    1  UNL1        0.0985
     18 N          49.9031   11.1072  -15.1011 N.ar    1  UNL1       -0.2241
     19 C          51.1780   11.4776  -14.8095 C.ar    1  UNL1        0.1750
     20 N          51.7784   12.1768  -15.8025 N.ar    1  UNL1       -0.3349
     21 C          50.8443   12.2504  -16.7576 C.ar    1  UNL1        0.0757
     22 C          50.9286   12.8621  -18.0053 C.ar    1  UNL1        0.0185
     23 H          52.7468   12.5670  -15.8159 H       1  UNL1        0.1675
     24 C          50.7349    9.9226  -25.0384 C.ar    1  UNL1        0.0500
     25 C          50.0873    9.0542  -25.9382 C.ar    1  UNL1        0.0328
     26 C          50.4601    9.0040  -27.2836 C.ar    1  UNL1        0.1066
     27 C          51.4779    9.8354  -27.7542 C.ar    1  UNL1        0.0143
     28 C          52.1346   10.7218  -26.8893 C.ar    1  UNL1       -0.0150
     29 C          53.2243   11.6082  -27.4366 C.3     1  UNL1        0.0313
     30 C          51.7669   10.7672  -25.5231 C.ar    1  UNL1        0.0628
     31 S          49.6245    7.9161  -28.3886 S.O2    1  UNL1        0.0105
     32 C          50.6511    7.6190  -29.8095 C.3     1  UNL1        0.1816
     33 O          49.3306    6.6125  -27.7004 O.2     1  UNL1       -0.1686
     34 O          48.3257    8.5337  -28.8254 O.2     1  UNL1       -0.1686
     35 N          50.3689    9.9356  -23.6388 N.pl3   1  UNL1       -0.3325
     36 H          51.0131    9.5042  -22.9395 H       1  UNL1        0.1468
     37 C          48.8022   10.0165  -21.7353 C.3     1  UNL1        0.0229
     38 C          49.1215   10.5198  -23.1394 C.3     1  UNL1        0.0871
@<TRIPOS>BOND
     1    37    38    1
     2    38    35    1
     3    35    24    1
     4    24    25   ar
     5    25    26   ar
     6    26    31    1
     7    31    32    1
     8    31    33    2
     9    31    34    2
    10    26    27   ar
    11    27    28   ar
    12    28    29    1
    13    28    30   ar
    14    30     1    1
    15     1     2    2
    16     1     3   am
    17     3     4    1
    18     4     5    1
    19     5     6    1
    20     6     7    1
    21     7     8   ar
    22     8     9   ar
    23     9    10   ar
    24    10    14    1
    25    14    15   ar
    26    15    16   ar
    27    16    17   ar
    28    17    18   ar
    29    18    19   ar
    30    19    20   ar
    31    20    21   ar
    32    21    22   ar
    33    10    11   ar
    34    11    12   ar
    35    12    13    1
    36    30    24   ar
    37    13     3    1
    38    12     7   ar
    39    22    14   ar
    40    21    17   ar
    41    35    36    1
    42    20    23    1
@<TRIPOS>MOLECULE
*****
 38 42 0 0 0
SMALL
GASTEIGER

@<TRIPOS>ATOM
      1 C          46.4958   12.3612  -23.0035 C.2     1  UNL1        0.2503
      2 O          45.3139   12.3416  -22.5646 O.2     1  UNL1       -0.2699
      3 N          47.4605   11.3898  -22.5429 N.am    1  UNL1       -0.2680
      4 C          48.5971   11.0491  -23.4162 C.3     1  UNL1        0.1412
      5 C          49.5057    9.9579  -22.8403 C.3     1  UNL1        0.2268
      6 O          50.2596   10.4351  -21.7284 O.3     1  UNL1       -0.4739
      7 C          49.7636   11.0252  -20.5529 C.ar    1  UNL1        0.1362
      8 C          50.7147   11.4412  -19.6146 C.ar    1  UNL1        0.0366
      9 C          50.3331   12.0918  -18.4423 C.ar    1  UNL1        0.0031
     10 C          48.9803   12.3486  -18.1821 C.ar    1  UNL1       -0.0000
     11 C          48.0155   11.9100  -19.1030 C.ar    1  UNL1        0.0004
     12 C          48.3865   11.2400  -20.2844 C.ar    1  UNL1        0.0317
     13 C          47.2992   10.7727  -21.2180 C.3     1  UNL1        0.1236
     14 C          48.5757   13.0840  -16.9585 C.ar    1  UNL1        0.0015
     15 C          49.1614   12.7641  -15.7016 C.ar    1  UNL1        0.0016
     16 C          48.7812   13.4503  -14.5330 C.ar    1  UNL1        0.0206
     17 C          47.8176   14.4461  -14.6513 C.ar    1  UNL1        0.0985
     18 N          47.3109   15.2220  -13.6761 N.ar    1  UNL1       -0.2241
     19 C          46.4233   16.0053  -14.3443 C.ar    1  UNL1        0.1750
     20 N          46.3652   15.7449  -15.6725 N.ar    1  UNL1       -0.3349
     21 C          47.2511   14.7577  -15.8482 C.ar    1  UNL1        0.0757
     22 C          47.5966   14.1047  -17.0281 C.ar    1  UNL1        0.0185
     23 H          45.7659   16.2091  -16.3905 H       1  UNL1        0.1675
     24 C          47.6773   14.4942  -23.6127 C.ar    1  UNL1        0.0500
     25 C          48.0328   15.4488  -24.5850 C.ar    1  UNL1        0.0328
     26 C          47.5838   15.3345  -25.9030 C.ar    1  UNL1        0.1066
     27 C          46.7838   14.2521  -26.2732 C.ar    1  UNL1        0.0143
     28 C          46.4221   13.2760  -25.3344 C.ar    1  UNL1       -0.0150
     29 C          45.5622   12.1185  -25.7741 C.3     1  UNL1        0.0313
     30 C          46.8662   13.3947  -23.9955 C.ar    1  UNL1        0.0628
     31 S          48.0538   16.5376  -27.1005 S.O2    1  UNL1        0.0105
     32 C          48.2161   18.1219  -26.3099 C.3     1  UNL1        0.1816
     33 O          49.3648   16.1528  -27.7271 O.2     1  UNL1       -0.1686
     34 O          47.0096   16.6171  -28.1787 O.2     1  UNL1       -0.1686
     35 N          48.1135   14.6456  -22.2416 N.pl3   1  UNL1       -0.3325
     36 H          47.4471   14.4279  -21.4679 H       1  UNL1        0.1468
     37 C          50.5236   14.1361  -22.3683 C.3     1  UNL1        0.0229
     38 C          49.4548   15.1038  -21.8705 C.3     1  UNL1        0.0871
@<TRIPOS>BOND
     1    37    38    1
     2    38    35    1
     3    35    24    1
     4    24    25   ar
     5    25    26   ar
     6    26    31    1
     7    31    32    1
     8    31    33    2
     9    31    34    2
    10    26    27   ar
    11    27    28   ar
    12    28    29    1
    13    28    30   ar
    14    30     1    1
    15     1     2    2
    16     1     3   am
    17     3     4    1
    18     4     5    1
    19     5     6    1
    20     6     7    1
    21     7     8   ar
    22     8     9   ar
    23     9    10   ar
    24    10    14    1
    25    14    15   ar
    26    15    16   ar
    27    16    17   ar
    28    17    18   ar
    29    18    19   ar
    30    19    20   ar
    31    20    21   ar
    32    21    22   ar
    33    10    11   ar
    34    11    12   ar
    35    12    13    1
    36    30    24   ar
    37    13     3    1
    38    12     7   ar
    39    22    14   ar
    40    21    17   ar
    41    35    36    1
    42    20    23    1
@<TRIPOS>MOLECULE
*****
 38 42 0 0 0
SMALL
GASTEIGER

@<TRIPOS>ATOM
      1 C          46.8497   12.2486  -22.1447 C.2     1  UNL1        0.2503
      2 O          46.0994   11.3601  -22.6319 O.2     1  UNL1       -0.2699
      3 N          47.2224   13.4003  -22.9328 N.am    1  UNL1       -0.2680
      4 C          47.5867   14.6477  -22.2387 C.3     1  UNL1        0.1412
      5 C          47.8934   15.8097  -23.1891 C.3     1  UNL1        0.2268
      6 O          49.1249   15.6124  -23.8796 O.3     1  UNL1       -0.4739
      7 C          49.4911   14.5096  -24.6707 C.ar    1  UNL1        0.1362
      8 C          50.7768   14.5370  -25.2223 C.ar    1  UNL1        0.0366
      9 C          51.2613   13.4670  -25.9729 C.ar    1  UNL1        0.0031
     10 C          50.4665   12.3328  -26.1859 C.ar    1  UNL1       -0.0000
     11 C          49.1644   12.3066  -25.6612 C.ar    1  UNL1        0.0004
     12 C          48.6580   13.3861  -24.9127 C.ar    1  UNL1        0.0317
     13 C          47.2427   13.3049  -24.4001 C.3     1  UNL1        0.1236
     14 C          50.9980   11.1727  -26.9431 C.ar    1  UNL1        0.0015
     15 C          50.2876    9.9397  -26.9600 C.ar    1  UNL1        0.0016
     16 C          50.7848    8.8304  -27.6695 C.ar    1  UNL1        0.0206
     17 C          51.9887    8.9828  -28.3488 C.ar    1  UNL1        0.0985
     18 N          52.6411    8.0650  -29.0847 N.ar    1  UNL1       -0.2241
     19 C          53.7402    8.7435  -29.5082 C.ar    1  UNL1        0.1750
     20 N          53.7883   10.0238  -29.0678 N.ar    1  UNL1       -0.3349
     21 C          52.6754   10.1571  -28.3370 C.ar    1  UNL1        0.0757
     22 C          52.2213   11.2785  -27.6485 C.ar    1  UNL1        0.0185
     23 H          54.5254   10.7387  -29.2567 H       1  UNL1        0.1675
     24 C          46.4095   12.0067  -19.6820 C.ar    1  UNL1        0.0500
     25 C          46.8996   11.8261  -18.3743 C.ar    1  UNL1        0.0328
     26 C          48.2718   11.7426  -18.1256 C.ar    1  UNL1        0.1066
     27 C          49.1762   11.8222  -19.1859 C.ar    1  UNL1        0.0143
     28 C          48.7228   11.9881  -20.5019 C.ar    1  UNL1       -0.0150
     29 C          49.7303   12.0633  -21.6208 C.3     1  UNL1        0.0313
     30 C          47.3336   12.0842  -20.7560 C.ar    1  UNL1        0.0628
     31 S          48.8555   11.5052  -16.4808 S.O2    1  UNL1        0.0105
     32 C          49.1794   13.0877  -15.7378 C.3     1  UNL1        0.1816
     33 O          47.8228   10.7725  -15.6708 O.2     1  UNL1       -0.1686
     34 O          50.1183   10.6904  -16.5017 O.2     1  UNL1       -0.1686
     35 N          44.9886   12.1340  -19.9223 N.pl3   1  UNL1       -0.3325
     36 H          44.6503   12.3178  -20.8929 H       1  UNL1        0.1468
     37 C          42.5757   11.9389  -19.4489 C.3     1  UNL1        0.0229
     38 C          43.9814   12.0281  -18.8635 C.3     1  UNL1        0.0871
@<TRIPOS>BOND
     1    37    38    1
     2    38    35    1
     3    35    24    1
     4    24    25   ar
     5    25    26   ar
     6    26    31    1
     7    31    32    1
     8    31    33    2
     9    31    34    2
    10    26    27   ar
    11    27    28   ar
    12    28    29    1
    13    28    30   ar
    14    30     1    1
    15     1     2    2
    16     1     3   am
    17     3     4    1
    18     4     5    1
    19     5     6    1
    20     6     7    1
    21     7     8   ar
    22     8     9   ar
    23     9    10   ar
    24    10    14    1
    25    14    15   ar
    26    15    16   ar
    27    16    17   ar
    28    17    18   ar
    29    18    19   ar
    30    19    20   ar
    31    20    21   ar
    32    21    22   ar
    33    10    11   ar
    34    11    12   ar
    35    12    13    1
    36    30    24   ar
    37    13     3    1
    38    12     7   ar
    39    22    14   ar
    40    21    17   ar
    41    35    36    1
    42    20    23    1
@<TRIPOS>MOLECULE
*****
 38 42 0 0 0
SMALL
GASTEIGER

@<TRIPOS>ATOM
      1 C          46.9350   12.9047  -23.0931 C.2     1  UNL1        0.2503
      2 O          45.7165   12.9050  -22.7687 O.2     1  UNL1       -0.2699
      3 N          47.8275   11.8953  -22.5727 N.am    1  UNL1       -0.2680
      4 C          49.0335   11.5481  -23.3444 C.3     1  UNL1        0.1412
      5 C          49.8562   10.4173  -22.7181 C.3     1  UNL1        0.2268
      6 O          50.5121   10.8430  -21.5260 O.3     1  UNL1       -0.4739
      7 C          49.9208   11.4137  -20.3855 C.ar    1  UNL1        0.1362
      8 C          50.7879   11.7779  -19.3494 C.ar    1  UNL1        0.0366
      9 C          50.3122   12.4059  -18.1994 C.ar    1  UNL1        0.0031
     10 C          48.9474   12.6920  -18.0608 C.ar    1  UNL1       -0.0000
     11 C          48.0644   12.3053  -19.0816 C.ar    1  UNL1        0.0004
     12 C          48.5300   11.6582  -20.2421 C.ar    1  UNL1        0.0317
     13 C          47.5256   11.2464  -21.2881 C.3     1  UNL1        0.1236
     14 C          48.4459   13.4041  -16.8594 C.ar    1  UNL1        0.0015
     15 C          48.9807   13.1087  -15.5741 C.ar    1  UNL1        0.0016
     16 C          48.5088   13.7730  -14.4265 C.ar    1  UNL1        0.0206
     17 C          47.5064   14.7225  -14.5939 C.ar    1  UNL1        0.0985
     18 N          46.9141   15.4709  -13.6460 N.ar    1  UNL1       -0.2241
     19 C          46.0260   16.2131  -14.3588 C.ar    1  UNL1        0.1750
     20 N          46.0487   15.9540  -15.6883 N.ar    1  UNL1       -0.3349
     21 C          46.9883   15.0102  -15.8184 C.ar    1  UNL1        0.0757
     22 C          47.4245   14.3775  -16.9792 C.ar    1  UNL1        0.0185
     23 H          45.4659   16.3914  -16.4360 H       1  UNL1        0.1675
     24 C          47.0175   13.9576  -25.3738 C.ar    1  UNL1        0.0500
     25 C          47.4801   14.9838  -26.2199 C.ar    1  UNL1        0.0328
     26 C          48.3397   15.9765  -25.7431 C.ar    1  UNL1        0.1066
     27 C          48.7377   15.9671  -24.4052 C.ar    1  UNL1        0.0143
     28 C          48.2856   14.9684  -23.5315 C.ar    1  UNL1       -0.0150
     29 C          48.7326   14.9960  -22.0920 C.3     1  UNL1        0.0313
     30 C          47.4234   13.9548  -24.0141 C.ar    1  UNL1        0.0628
     31 S          48.8932   17.2542  -26.8218 S.O2    1  UNL1        0.0105
     32 C          48.8258   18.8133  -25.9697 C.3     1  UNL1        0.1816
     33 O          50.3055   16.9814  -27.2579 O.2     1  UNL1       -0.1686
     34 O          48.0146   17.3075  -28.0402 O.2     1  UNL1       -0.1686
     35 N          46.1615   12.9114  -25.8890 N.pl3   1  UNL1       -0.3325
     36 H          45.1541   12.8961  -25.6151 H       1  UNL1        0.1468
     37 C          46.2564   12.1353  -28.2285 C.3     1  UNL1        0.0229
     38 C          46.6367   11.8491  -26.7793 C.3     1  UNL1        0.0871
@<TRIPOS>BOND
     1    37    38    1
     2    38    35    1
     3    35    24    1
     4    24    25   ar
     5    25    26   ar
     6    26    31    1
     7    31    32    1
     8    31    33    2
     9    31    34    2
    10    26    27   ar
    11    27    28   ar
    12    28    29    1
    13    28    30   ar
    14    30     1    1
    15     1     2    2
    16     1     3   am
    17     3     4    1
    18     4     5    1
    19     5     6    1
    20     6     7    1
    21     7     8   ar
    22     8     9   ar
    23     9    10   ar
    24    10    14    1
    25    14    15   ar
    26    15    16   ar
    27    16    17   ar
    28    17    18   ar
    29    18    19   ar
    30    19    20   ar
    31    20    21   ar
    32    21    22   ar
    33    10    11   ar
    34    11    12   ar
    35    12    13    1
    36    30    24   ar
    37    13     3    1
    38    12     7   ar
    39    22    14   ar
    40    21    17   ar
    41    35    36    1
    42    20    23    1
@<TRIPOS>MOLECULE
*****
 38 42 0 0 0
SMALL
GASTEIGER

@<TRIPOS>ATOM
      1 C          49.4365   13.5799  -24.0878 C.2     1  UNL1        0.2503
      2 O          48.7831   14.1944  -24.9740 O.2     1  UNL1       -0.2699
      3 N          50.8314   13.2678  -24.2957 N.am    1  UNL1       -0.2680
      4 C          51.7016   13.0892  -23.1203 C.3     1  UNL1        0.1412
      5 C          53.1687   12.8311  -23.4787 C.3     1  UNL1        0.2268
      6 O          53.3508   11.5358  -24.0458 O.3     1  UNL1       -0.4739
      7 C          52.6973   10.9974  -25.1679 C.ar    1  UNL1        0.1362
      8 C          53.0297    9.6824  -25.5119 C.ar    1  UNL1        0.0366
      9 C          52.3968    9.0331  -26.5707 C.ar    1  UNL1        0.0031
     10 C          51.4042    9.6876  -27.3123 C.ar    1  UNL1       -0.0000
     11 C          51.0831   11.0169  -26.9941 C.ar    1  UNL1        0.0004
     12 C          51.7242   11.6888  -25.9359 C.ar    1  UNL1        0.0317
     13 C          51.3510   13.1236  -25.6637 C.3     1  UNL1        0.1236
     14 C          50.6951    8.9820  -28.4082 C.ar    1  UNL1        0.0015
     15 C          49.2728    8.9727  -28.4543 C.ar    1  UNL1        0.0016
     16 C          48.5889    8.3016  -29.4852 C.ar    1  UNL1        0.0206
     17 C          49.3497    7.6515  -30.4510 C.ar    1  UNL1        0.0985
     18 N          48.9102    6.9562  -31.5153 N.ar    1  UNL1       -0.2241
     19 C          50.0642    6.5484  -32.1068 C.ar    1  UNL1        0.1750
     20 N          51.1795    6.9596  -31.4571 N.ar    1  UNL1       -0.3349
     21 C          50.7096    7.6538  -30.4141 C.ar    1  UNL1        0.0757
     22 C          51.4265    8.3037  -29.4133 C.ar    1  UNL1        0.0185
     23 H          52.1747    6.7753  -31.7135 H       1  UNL1        0.1675
     24 C          48.3093   11.8540  -22.6499 C.ar    1  UNL1        0.0500
     25 C          47.6751   11.5093  -21.4408 C.ar    1  UNL1        0.0328
     26 C          47.4563   12.4648  -20.4454 C.ar    1  UNL1        0.1066
     27 C          47.8842   13.7794  -20.6382 C.ar    1  UNL1        0.0143
     28 C          48.5312   14.1545  -21.8238 C.ar    1  UNL1       -0.0150
     29 C          48.9843   15.5824  -21.9920 C.3     1  UNL1        0.0313
     30 C          48.7445   13.1912  -22.8390 C.ar    1  UNL1        0.0628
     31 S          46.6706   12.0021  -18.9384 S.O2    1  UNL1        0.0105
     32 C          44.9143   11.9043  -19.1969 C.3     1  UNL1        0.1816
     33 O          47.1856   10.6663  -18.4806 O.2     1  UNL1       -0.1686
     34 O          46.9675   13.0227  -17.8757 O.2     1  UNL1       -0.1686
     35 N          48.4928   10.8657  -23.6903 N.pl3   1  UNL1       -0.3325
     36 H          47.8154   10.8295  -24.4840 H       1  UNL1        0.1468
     37 C          49.5980    9.0795  -22.3970 C.3     1  UNL1        0.0229
     38 C          49.5861    9.8903  -23.6890 C.3     1  UNL1        0.0871
@<TRIPOS>BOND
     1    37    38    1
     2    38    35    1
     3    35    24    1
     4    24    25   ar
     5    25    26   ar
     6    26    31    1
     7    31    32    1
     8    31    33    2
     9    31    34    2
    10    26    27   ar
    11    27    28   ar
    12    28    29    1
    13    28    30   ar
    14    30     1    1
    15     1     2    2
    16     1     3   am
    17     3     4    1
    18     4     5    1
    19     5     6    1
    20     6     7    1
    21     7     8   ar
    22     8     9   ar
    23     9    10   ar
    24    10    14    1
    25    14    15   ar
    26    15    16   ar
    27    16    17   ar
    28    17    18   ar
    29    18    19   ar
    30    19    20   ar
    31    20    21   ar
    32    21    22   ar
    33    10    11   ar
    34    11    12   ar
    35    12    13    1
    36    30    24   ar
    37    13     3    1
    38    12     7   ar
    39    22    14   ar
    40    21    17   ar
    41    35    36    1
    42    20    23    1
@<TRIPOS>MOLECULE
*****
 38 42 0 0 0
SMALL
GASTEIGER

@<TRIPOS>ATOM
      1 C          47.1702   11.8018  -22.4326 C.2     1  UNL1        0.2503
      2 O          46.7361   10.6283  -22.2763 O.2     1  UNL1       -0.2699
      3 N          46.4371   12.7485  -23.2404 N.am    1  UNL1       -0.2680
      4 C          46.6042   14.1879  -22.9742 C.3     1  UNL1        0.1412
      5 C          45.7204   15.0793  -23.8528 C.3     1  UNL1        0.2268
      6 O          46.1637   15.0862  -25.2078 O.3     1  UNL1       -0.4739
      7 C          46.3515   13.9753  -26.0485 C.ar    1  UNL1        0.1362
      8 C          46.8263   14.2418  -27.3375 C.ar    1  UNL1        0.0366
      9 C          47.1035   13.2083  -28.2308 C.ar    1  UNL1        0.0031
     10 C          46.9163   11.8727  -27.8501 C.ar    1  UNL1       -0.0000
     11 C          46.4131   11.5949  -26.5691 C.ar    1  UNL1        0.0004
     12 C          46.1163   12.6299  -25.6620 C.ar    1  UNL1        0.0317
     13 C          45.5543   12.2640  -24.3120 C.3     1  UNL1        0.1236
     14 C          47.2568   10.7696  -28.7822 C.ar    1  UNL1        0.0015
     15 C          46.5238   10.5976  -29.9898 C.ar    1  UNL1        0.0016
     16 C          46.8334    9.5513  -30.8788 C.ar    1  UNL1        0.0206
     17 C          47.8754    8.6966  -30.5354 C.ar    1  UNL1        0.0985
     18 N          48.3385    7.6418  -31.2299 N.ar    1  UNL1       -0.2241
     19 C          49.3460    7.1807  -30.4424 C.ar    1  UNL1        0.1750
     20 N          49.5178    7.9003  -29.3075 N.ar    1  UNL1       -0.3349
     21 C          48.5806    8.8524  -29.3825 C.ar    1  UNL1        0.0757
     22 C          48.3083    9.8722  -28.4749 C.ar    1  UNL1        0.0185
     23 H          50.2202    7.7449  -28.5507 H       1  UNL1        0.1675
     24 C          49.6235   12.3381  -22.5361 C.ar    1  UNL1        0.0500
     25 C          50.8093   12.7240  -21.8820 C.ar    1  UNL1        0.0328
     26 C          50.8335   12.9337  -20.5010 C.ar    1  UNL1        0.1066
     27 C          49.6650   12.7761  -19.7538 C.ar    1  UNL1        0.0143
     28 C          48.4636   12.4061  -20.3742 C.ar    1  UNL1       -0.0150
     29 C          47.2214   12.2521  -19.5341 C.3     1  UNL1        0.0313
     30 C          48.4383   12.1821  -21.7717 C.ar    1  UNL1        0.0628
     31 S          52.3287   13.4270  -19.7115 S.O2    1  UNL1        0.0105
     32 C          52.3612   12.7786  -18.0563 C.3     1  UNL1        0.1816
     33 O          53.5106   12.9038  -20.4787 O.2     1  UNL1       -0.1686
     34 O          52.4094   14.9272  -19.6666 O.2     1  UNL1       -0.1686
     35 N          49.6204   12.0830  -23.9601 N.pl3   1  UNL1       -0.3325
     36 H          48.9841   11.3502  -24.3452 H       1  UNL1        0.1468
     37 C          49.9628   14.2107  -25.1603 C.3     1  UNL1        0.0229
     38 C          50.4799   12.7981  -24.9070 C.3     1  UNL1        0.0871
@<TRIPOS>BOND
     1    37    38    1
     2    38    35    1
     3    35    24    1
     4    24    25   ar
     5    25    26   ar
     6    26    31    1
     7    31    32    1
     8    31    33    2
     9    31    34    2
    10    26    27   ar
    11    27    28   ar
    12    28    29    1
    13    28    30   ar
    14    30     1    1
    15     1     2    2
    16     1     3   am
    17     3     4    1
    18     4     5    1
    19     5     6    1
    20     6     7    1
    21     7     8   ar
    22     8     9   ar
    23     9    10   ar
    24    10    14    1
    25    14    15   ar
    26    15    16   ar
    27    16    17   ar
    28    17    18   ar
    29    18    19   ar
    30    19    20   ar
    31    20    21   ar
    32    21    22   ar
    33    10    11   ar
    34    11    12   ar
    35    12    13    1
    36    30    24   ar
    37    13     3    1
    38    12     7   ar
    39    22    14   ar
    40    21    17   ar
    41    35    36    1
    42    20    23    1
@<TRIPOS>MOLECULE
*****
 38 42 0 0 0
SMALL
GASTEIGER

@<TRIPOS>ATOM
      1 C          48.8366   12.5205  -20.2915 C.2     1  UNL1        0.2503
      2 O          49.5347   13.3850  -19.6955 O.2     1  UNL1       -0.2699
      3 N          49.4081   11.7310  -21.3575 N.am    1  UNL1       -0.2680
      4 C          48.8319   10.4063  -21.6470 C.3     1  UNL1        0.1412
      5 C          49.5722    9.6452  -22.7518 C.3     1  UNL1        0.2268
      6 O          49.3499   10.2306  -24.0325 O.3     1  UNL1       -0.4739
      7 C          49.5874   11.5628  -24.4132 C.ar    1  UNL1        0.1362
      8 C          49.2573   11.9037  -25.7296 C.ar    1  UNL1        0.0366
      9 C          49.3971   13.2114  -26.1915 C.ar    1  UNL1        0.0031
     10 C          49.8688   14.2181  -25.3385 C.ar    1  UNL1       -0.0000
     11 C          50.2302   13.8816  -24.0241 C.ar    1  UNL1        0.0004
     12 C          50.1065   12.5620  -23.5490 C.ar    1  UNL1        0.0317
     13 C          50.5367   12.2632  -22.1355 C.3     1  UNL1        0.1236
     14 C          49.9723   15.6200  -25.8137 C.ar    1  UNL1        0.0015
     15 C          51.0982   16.4162  -25.4622 C.ar    1  UNL1        0.0016
     16 C          51.2045   17.7490  -25.9017 C.ar    1  UNL1        0.0206
     17 C          50.1748   18.2562  -26.6868 C.ar    1  UNL1        0.0985
     18 N          50.0707   19.4902  -27.2123 N.ar    1  UNL1       -0.2241
     19 C          48.8861   19.4363  -27.8768 C.ar    1  UNL1        0.1750
     20 N          48.2669   18.2351  -27.7817 N.ar    1  UNL1       -0.3349
     21 C          49.0940   17.5030  -27.0265 C.ar    1  UNL1        0.0757
     22 C          48.9477   16.1817  -26.6136 C.ar    1  UNL1        0.0185
     23 H          47.3545   17.9499  -28.2017 H       1  UNL1        0.1675
     24 C          46.3755   12.5435  -20.8009 C.ar    1  UNL1        0.0500
     25 C          45.0478   12.3362  -20.3800 C.ar    1  UNL1        0.0328
     26 C          44.7610   11.9503  -19.0683 C.ar    1  UNL1        0.1066
     27 C          45.8017   11.7496  -18.1598 C.ar    1  UNL1        0.0143
     28 C          47.1359   11.9336  -18.5484 C.ar    1  UNL1       -0.0150
     29 C          48.2322   11.7008  -17.5402 C.3     1  UNL1        0.0313
     30 C          47.4292   12.3354  -19.8737 C.ar    1  UNL1        0.0628
     31 S          43.0913   11.6872  -18.5731 S.O2    1  UNL1        0.0105
     32 C          42.4586   13.1716  -17.8264 C.3     1  UNL1        0.1816
     33 O          42.2523   11.3296  -19.7679 O.2     1  UNL1       -0.1686
     34 O          43.0261   10.5580  -17.5834 O.2     1  UNL1       -0.1686
     35 N          46.6576   12.9838  -22.1498 N.pl3   1  UNL1       -0.3325
     36 H          47.3372   13.7620  -22.3002 H       1  UNL1        0.1468
     37 C          45.9805   13.3990  -24.4851 C.3     1  UNL1        0.0229
     38 C          46.0269   12.3977  -23.3353 C.3     1  UNL1        0.0871
@<TRIPOS>BOND
     1    37    38    1
     2    38    35    1
     3    35    24    1
     4    24    25   ar
     5    25    26   ar
     6    26    31    1
     7    31    32    1
     8    31    33    2
     9    31    34    2
    10    26    27   ar
    11    27    28   ar
    12    28    29    1
    13    28    30   ar
    14    30     1    1
    15     1     2    2
    16     1     3   am
    17     3     4    1
    18     4     5    1
    19     5     6    1
    20     6     7    1
    21     7     8   ar
    22     8     9   ar
    23     9    10   ar
    24    10    14    1
    25    14    15   ar
    26    15    16   ar
    27    16    17   ar
    28    17    18   ar
    29    18    19   ar
    30    19    20   ar
    31    20    21   ar
    32    21    22   ar
    33    10    11   ar
    34    11    12   ar
    35    12    13    1
    36    30    24   ar
    37    13     3    1
    38    12     7   ar
    39    22    14   ar
    40    21    17   ar
    41    35    36    1
    42    20    23    1
