@<TRIPOS>MOLECULE
*****
 52 57 0 0 0
SMALL
GASTEIGER

@<TRIPOS>ATOM
      1 C         -63.1031  -50.4863  -24.4855 C.ar    1  UNL1        0.0502
      2 C         -64.2649  -51.1867  -24.8416 C.ar    1  UNL1        0.0148
      3 C         -64.5932  -52.3837  -24.2011 C.ar    1  UNL1        0.0080
      4 C         -63.7616  -52.9142  -23.1986 C.ar    1  UNL1        0.0808
      5 C         -62.5926  -52.2069  -22.8429 C.ar    1  UNL1        0.1457
      6 F         -61.7795  -52.6373  -21.8466 F       1  UNL1       -0.2040
      7 C         -62.2719  -51.0070  -23.4843 C.ar    1  UNL1        0.0443
      8 N         -62.5715  -46.6655  -26.1493 N.pl3   1  UNL1       -0.2897
      9 C         -63.5835  -47.5649  -26.7192 C.3     1  UNL1        0.1136
     10 C         -63.1535  -49.0181  -26.5298 C.3     1  UNL1        0.1123
     11 N         -62.7652  -49.2454  -25.1328 N.pl3   1  UNL1       -0.3040
     12 C         -61.7641  -48.3475  -24.5450 C.3     1  UNL1        0.1123
     13 C         -62.1755  -46.8878  -24.7534 C.3     1  UNL1        0.1136
     14 C         -60.9724  -44.0424  -28.3064 C.ar    1  UNL1        0.0155
     15 C         -61.2535  -45.2836  -27.7137 C.ar    1  UNL1        0.0324
     16 C         -62.2858  -45.4018  -26.7768 C.ar    1  UNL1        0.1315
     17 N         -63.0029  -44.3001  -26.4353 N.ar    1  UNL1       -0.2292
     18 C         -62.7704  -43.0832  -26.9888 C.ar    1  UNL1        0.1039
     19 C         -61.7548  -42.9107  -27.9492 C.ar    1  UNL1        0.0890
     20 C         -61.5319  -41.5440  -28.5690 C.3     1  UNL1        0.4198
     21 F         -61.5252  -41.6004  -29.9525 F       1  UNL1       -0.1658
     22 F         -60.3113  -41.0391  -28.1583 F       1  UNL1       -0.1658
     23 F         -62.5423  -40.6822  -28.1835 F       1  UNL1       -0.1658
     24 C         -59.8347  -43.9878  -29.3078 C.3     1  UNL1        0.1688
     25 C         -59.1577  -44.7768  -31.3794 C.3     1  UNL1        0.1746
     26 O         -60.2666  -44.4107  -30.5874 O.3     1  UNL1       -0.3463
     27 C         -64.1608  -54.1685  -22.5105 C.2     1  UNL1        0.2483
     28 O         -63.2785  -55.0263  -22.2315 O.2     1  UNL1       -0.2701
     29 N         -65.5278  -54.4191  -22.1491 N.am    1  UNL1       -0.2945
     30 H         -66.1698  -53.6005  -22.0593 H       1  UNL1        0.1501
     31 C         -66.0083  -55.7641  -21.7969 C.3     1  UNL1        0.1535
     32 C         -67.1083  -55.7052  -20.7620 C.2     1  UNL1        0.2443
     33 O         -67.3293  -56.6993  -20.0171 O.2     1  UNL1       -0.2730
     34 N         -67.8289  -54.4784  -20.5629 N.am    1  UNL1       -0.2825
     35 H         -67.4240  -53.6049  -20.9704 H       1  UNL1        0.1549
     36 C         -69.0011  -54.3573  -19.7392 C.ar    1  UNL1        0.0535
     37 C         -69.0669  -54.9407  -18.4623 C.ar    1  UNL1        0.0353
     38 C         -70.2364  -54.8167  -17.7079 C.ar    1  UNL1        0.1002
     39 N         -71.3069  -54.1485  -18.2127 N.ar    1  UNL1       -0.2422
     40 C         -71.2780  -53.5904  -19.4516 C.ar    1  UNL1        0.1002
     41 C         -70.1289  -53.6922  -20.2394 C.ar    1  UNL1        0.0353
     42 C         -66.4663  -56.5483  -23.0471 C.3     1  UNL1        0.0569
     43 C         -67.4418  -55.7844  -23.9017 C.ar    1  UNL1       -0.0017
     44 C         -67.1346  -54.9904  -25.0033 C.ar    1  UNL1        0.0681
     45 N         -68.2641  -54.5112  -25.5713 N.ar    1  UNL1       -0.3523
     46 C         -69.2824  -54.9915  -24.8372 C.ar    1  UNL1        0.0563
     47 C         -70.6451  -54.7848  -25.0479 C.ar    1  UNL1        0.0170
     48 C         -71.5485  -55.3960  -24.1597 C.ar    1  UNL1        0.0015
     49 C         -71.0751  -56.1842  -23.0881 C.ar    1  UNL1        0.0001
     50 C         -69.6944  -56.3722  -22.8973 C.ar    1  UNL1        0.0012
     51 C         -68.8215  -55.7669  -23.8035 C.ar    1  UNL1        0.0131
     52 H         -68.3282  -53.8990  -26.4148 H       1  UNL1        0.1660
@<TRIPOS>BOND
     1    25    26    1
     2    26    24    1
     3    24    14    1
     4    14    15   ar
     5    15    16   ar
     6    16     8    1
     7     8     9    1
     8     9    10    1
     9    10    11    1
    10    11     1    1
    11     1     2   ar
    12     2     3   ar
    13     3     4   ar
    14     4    27    1
    15    27    28    2
    16    27    29   am
    17    29    31    1
    18    31    42    1
    19    42    43    1
    20    43    44   ar
    21    44    45   ar
    22    45    46   ar
    23    46    47   ar
    24    47    48   ar
    25    48    49   ar
    26    49    50   ar
    27    50    51   ar
    28    31    32    1
    29    32    33    2
    30    32    34   am
    31    34    36    1
    32    36    37   ar
    33    37    38   ar
    34    38    39   ar
    35    39    40   ar
    36    40    41   ar
    37     4     5   ar
    38     5     6    1
    39     5     7   ar
    40    11    12    1
    41    12    13    1
    42    16    17   ar
    43    17    18   ar
    44    18    19   ar
    45    19    20    1
    46    20    21    1
    47    20    22    1
    48    20    23    1
    49    19    14   ar
    50    13     8    1
    51     7     1   ar
    52    51    43   ar
    53    41    36   ar
    54    51    46   ar
    55    29    30    1
    56    45    52    1
    57    34    35    1
@<TRIPOS>MOLECULE
*****
 52 57 0 0 0
SMALL
GASTEIGER

@<TRIPOS>ATOM
      1 C         -63.0956  -50.3415  -24.5242 C.ar    1  UNL1        0.0502
      2 C         -64.2366  -51.0686  -24.8937 C.ar    1  UNL1        0.0148
      3 C         -64.5453  -52.2722  -24.2557 C.ar    1  UNL1        0.0080
      4 C         -63.7143  -52.7824  -23.2422 C.ar    1  UNL1        0.0808
      5 C         -62.5664  -52.0482  -22.8730 C.ar    1  UNL1        0.1457
      6 F         -61.7561  -52.4587  -21.8661 F       1  UNL1       -0.2040
      7 C         -62.2652  -50.8420  -23.5120 C.ar    1  UNL1        0.0443
      8 N         -62.6154  -46.5030  -26.1627 N.pl3   1  UNL1       -0.2897
      9 C         -63.6479  -47.3947  -26.7073 C.3     1  UNL1        0.1136
     10 C         -63.2141  -48.8505  -26.5490 C.3     1  UNL1        0.1123
     11 N         -62.7782  -49.0939  -25.1688 N.pl3   1  UNL1       -0.3040
     12 C         -61.7559  -48.2038  -24.6060 C.3     1  UNL1        0.1123
     13 C         -62.1718  -46.7414  -24.7839 C.3     1  UNL1        0.1136
     14 C         -62.9009  -43.5114  -28.4121 C.ar    1  UNL1        0.0155
     15 C         -63.1800  -44.7434  -27.7995 C.ar    1  UNL1        0.0324
     16 C         -62.3494  -45.2327  -26.7856 C.ar    1  UNL1        0.1315
     17 N         -61.2617  -44.5108  -26.4109 N.ar    1  UNL1       -0.2292
     18 C         -60.9590  -43.3122  -26.9704 C.ar    1  UNL1        0.1039
     19 C         -61.7700  -42.7646  -27.9833 C.ar    1  UNL1        0.0890
     20 C         -61.4214  -41.4118  -28.5751 C.3     1  UNL1        0.4198
     21 F         -61.3780  -41.4501  -29.9585 F       1  UNL1       -0.1658
     22 F         -60.1774  -41.0110  -28.1219 F       1  UNL1       -0.1658
     23 F         -62.3714  -40.4777  -28.2051 F       1  UNL1       -0.1658
     24 C         -63.8404  -43.0475  -29.5086 C.3     1  UNL1        0.1688
     25 C         -65.0483  -41.1541  -30.0818 C.3     1  UNL1        0.1746
     26 O         -64.7113  -42.0377  -29.0345 O.3     1  UNL1       -0.3463
     27 C         -64.0933  -54.0448  -22.5575 C.2     1  UNL1        0.2483
     28 O         -63.1948  -54.8807  -22.2640 O.2     1  UNL1       -0.2701
     29 N         -65.4590  -54.3275  -22.2152 N.am    1  UNL1       -0.2945
     30 H         -66.1217  -53.5244  -22.1363 H       1  UNL1        0.1501
     31 C         -65.9121  -55.6831  -21.8673 C.3     1  UNL1        0.1535
     32 C         -67.0015  -55.6505  -20.8200 C.2     1  UNL1        0.2443
     33 O         -67.1819  -56.6446  -20.0643 O.2     1  UNL1       -0.2730
     34 N         -67.7588  -54.4457  -20.6227 N.am    1  UNL1       -0.2825
     35 H         -67.3870  -53.5633  -21.0423 H       1  UNL1        0.1549
     36 C         -68.9248  -54.3551  -19.7864 C.ar    1  UNL1        0.0535
     37 C         -68.9616  -54.9401  -18.5090 C.ar    1  UNL1        0.0353
     38 C         -70.1256  -54.8465  -17.7419 C.ar    1  UNL1        0.1002
     39 N         -71.2186  -54.2063  -18.2349 N.ar    1  UNL1       -0.2422
     40 C         -71.2176  -53.6476  -19.4739 C.ar    1  UNL1        0.1002
     41 C         -70.0748  -53.7194  -20.2741 C.ar    1  UNL1        0.0353
     42 C         -66.3702  -56.4666  -23.1179 C.3     1  UNL1        0.0569
     43 C         -67.3998  -55.7317  -23.9337 C.ar    1  UNL1       -0.0017
     44 C         -67.1562  -54.9075  -25.0289 C.ar    1  UNL1        0.0681
     45 N         -68.3198  -54.4683  -25.5592 N.ar    1  UNL1       -0.3523
     46 C         -69.2968  -55.0040  -24.8075 C.ar    1  UNL1        0.0563
     47 C         -70.6721  -54.8529  -24.9793 C.ar    1  UNL1        0.0170
     48 C         -71.5247  -55.5167  -24.0787 C.ar    1  UNL1        0.0015
     49 C         -70.9898  -56.3010  -23.0335 C.ar    1  UNL1        0.0001
     50 C         -69.5978  -56.4323  -22.8817 C.ar    1  UNL1        0.0012
     51 C         -68.7759  -55.7754  -23.7996 C.ar    1  UNL1        0.0131
     52 H         -68.4323  -53.8459  -26.3901 H       1  UNL1        0.1660
@<TRIPOS>BOND
     1    25    26    1
     2    26    24    1
     3    24    14    1
     4    14    15   ar
     5    15    16   ar
     6    16     8    1
     7     8     9    1
     8     9    10    1
     9    10    11    1
    10    11     1    1
    11     1     2   ar
    12     2     3   ar
    13     3     4   ar
    14     4    27    1
    15    27    28    2
    16    27    29   am
    17    29    31    1
    18    31    42    1
    19    42    43    1
    20    43    44   ar
    21    44    45   ar
    22    45    46   ar
    23    46    47   ar
    24    47    48   ar
    25    48    49   ar
    26    49    50   ar
    27    50    51   ar
    28    31    32    1
    29    32    33    2
    30    32    34   am
    31    34    36    1
    32    36    37   ar
    33    37    38   ar
    34    38    39   ar
    35    39    40   ar
    36    40    41   ar
    37     4     5   ar
    38     5     6    1
    39     5     7   ar
    40    11    12    1
    41    12    13    1
    42    16    17   ar
    43    17    18   ar
    44    18    19   ar
    45    19    20    1
    46    20    21    1
    47    20    22    1
    48    20    23    1
    49    19    14   ar
    50    13     8    1
    51     7     1   ar
    52    51    43   ar
    53    41    36   ar
    54    51    46   ar
    55    29    30    1
    56    45    52    1
    57    34    35    1
@<TRIPOS>MOLECULE
*****
 52 57 0 0 0
SMALL
GASTEIGER

@<TRIPOS>ATOM
      1 C         -62.6982  -42.6200  -23.4412 C.ar    1  UNL1        0.0502
      2 C         -62.7618  -42.6339  -24.8421 C.ar    1  UNL1        0.0148
      3 C         -62.5124  -43.8120  -25.5497 C.ar    1  UNL1        0.0080
      4 C         -62.1819  -45.0003  -24.8737 C.ar    1  UNL1        0.0808
      5 C         -62.1183  -44.9828  -23.4634 C.ar    1  UNL1        0.1457
      6 F         -61.8594  -46.1076  -22.7517 F       1  UNL1       -0.2040
      7 C         -62.3736  -43.8016  -22.7607 C.ar    1  UNL1        0.0443
      8 N         -63.7599  -39.4108  -20.9466 N.pl3   1  UNL1       -0.2897
      9 C         -64.7680  -39.9886  -21.8454 C.3     1  UNL1        0.1136
     10 C         -64.0905  -40.5519  -23.0930 C.3     1  UNL1        0.1123
     11 N         -62.9666  -41.4122  -22.7049 N.pl3   1  UNL1       -0.3040
     12 C         -61.9573  -40.8534  -21.7975 C.3     1  UNL1        0.1123
     13 C         -62.6310  -40.2637  -20.5559 C.3     1  UNL1        0.1136
     14 C         -63.3792  -36.1492  -19.1277 C.ar    1  UNL1        0.0155
     15 C         -63.0758  -37.2834  -19.8975 C.ar    1  UNL1        0.0324
     16 C         -64.0637  -38.2349  -20.1736 C.ar    1  UNL1        0.1315
     17 N         -65.3150  -38.0576  -19.6762 N.ar    1  UNL1       -0.2292
     18 C         -65.6536  -36.9729  -18.9347 C.ar    1  UNL1        0.1039
     19 C         -64.7033  -35.9760  -18.6406 C.ar    1  UNL1        0.0890
     20 C         -65.1150  -34.7621  -17.8290 C.3     1  UNL1        0.4198
     21 F         -64.2480  -33.6989  -18.0159 F       1  UNL1       -0.1658
     22 F         -65.1145  -35.0792  -16.4826 F       1  UNL1       -0.1658
     23 F         -66.3800  -34.3507  -18.2068 F       1  UNL1       -0.1658
     24 C         -62.2569  -35.1641  -18.8626 C.3     1  UNL1        0.1688
     25 C         -61.4099  -35.0684  -21.0180 C.3     1  UNL1        0.1746
     26 O         -61.1379  -35.4393  -19.6840 O.3     1  UNL1       -0.3463
     27 C         -61.9616  -46.2443  -25.6546 C.2     1  UNL1        0.2483
     28 O         -61.1650  -47.1171  -25.2121 O.2     1  UNL1       -0.2701
     29 N         -62.6436  -46.4766  -26.8968 N.am    1  UNL1       -0.2945
     30 H         -63.5267  -45.9496  -27.0780 H       1  UNL1        0.1501
     31 C         -62.1989  -47.5036  -27.8515 C.3     1  UNL1        0.1535
     32 C         -63.3579  -48.0577  -28.6479 C.2     1  UNL1        0.2443
     33 O         -63.7936  -49.2170  -28.4072 O.2     1  UNL1       -0.2730
     34 N         -64.0239  -47.2198  -29.6061 N.am    1  UNL1       -0.2825
     35 H         -63.8417  -46.1913  -29.5627 H       1  UNL1        0.1549
     36 C         -65.0137  -47.6900  -30.5370 C.ar    1  UNL1        0.0535
     37 C         -65.7686  -48.8485  -30.2859 C.ar    1  UNL1        0.0353
     38 C         -66.7024  -49.2804  -31.2312 C.ar    1  UNL1        0.1002
     39 N         -66.8682  -48.5918  -32.3913 N.ar    1  UNL1       -0.2422
     40 C         -66.1390  -47.4789  -32.6688 C.ar    1  UNL1        0.1002
     41 C         -65.1938  -47.0137  -31.7513 C.ar    1  UNL1        0.0353
     42 C         -61.0912  -46.9678  -28.7862 C.3     1  UNL1        0.0569
     43 C         -60.9683  -45.4678  -28.7605 C.ar    1  UNL1       -0.0017
     44 C         -60.0786  -44.7218  -27.9923 C.ar    1  UNL1        0.0681
     45 N         -60.2000  -43.4046  -28.2727 N.ar    1  UNL1       -0.3523
     46 C         -61.1604  -43.3105  -29.2083 C.ar    1  UNL1        0.0563
     47 C         -61.6250  -42.1502  -29.8263 C.ar    1  UNL1        0.0170
     48 C         -62.6360  -42.2805  -30.7955 C.ar    1  UNL1        0.0015
     49 C         -63.1600  -43.5519  -31.1159 C.ar    1  UNL1        0.0001
     50 C         -62.6750  -44.7050  -30.4733 C.ar    1  UNL1        0.0012
     51 C         -61.6603  -44.5476  -29.5272 C.ar    1  UNL1        0.0131
     52 H         -59.6506  -42.6229  -27.8515 H       1  UNL1        0.1660
@<TRIPOS>BOND
     1    25    26    1
     2    26    24    1
     3    24    14    1
     4    14    15   ar
     5    15    16   ar
     6    16     8    1
     7     8     9    1
     8     9    10    1
     9    10    11    1
    10    11     1    1
    11     1     2   ar
    12     2     3   ar
    13     3     4   ar
    14     4    27    1
    15    27    28    2
    16    27    29   am
    17    29    31    1
    18    31    42    1
    19    42    43    1
    20    43    44   ar
    21    44    45   ar
    22    45    46   ar
    23    46    47   ar
    24    47    48   ar
    25    48    49   ar
    26    49    50   ar
    27    50    51   ar
    28    31    32    1
    29    32    33    2
    30    32    34   am
    31    34    36    1
    32    36    37   ar
    33    37    38   ar
    34    38    39   ar
    35    39    40   ar
    36    40    41   ar
    37     4     5   ar
    38     5     6    1
    39     5     7   ar
    40    11    12    1
    41    12    13    1
    42    16    17   ar
    43    17    18   ar
    44    18    19   ar
    45    19    20    1
    46    20    21    1
    47    20    22    1
    48    20    23    1
    49    19    14   ar
    50    13     8    1
    51     7     1   ar
    52    51    43   ar
    53    41    36   ar
    54    51    46   ar
    55    29    30    1
    56    45    52    1
    57    34    35    1
@<TRIPOS>MOLECULE
*****
 52 57 0 0 0
SMALL
GASTEIGER

@<TRIPOS>ATOM
      1 C         -61.5935  -43.4052  -21.5923 C.ar    1  UNL1        0.0502
      2 C         -62.4235  -44.5276  -21.4558 C.ar    1  UNL1        0.0148
      3 C         -61.9633  -45.7955  -21.8182 C.ar    1  UNL1        0.0080
      4 C         -60.6675  -45.9689  -22.3367 C.ar    1  UNL1        0.0808
      5 C         -59.8348  -44.8370  -22.4733 C.ar    1  UNL1        0.1457
      6 F         -58.5572  -44.9462  -22.9146 F       1  UNL1       -0.2040
      7 C         -60.2994  -43.5713  -22.1044 C.ar    1  UNL1        0.0443
      8 N         -63.4228  -39.8280  -20.3648 N.pl3   1  UNL1       -0.2897
      9 C         -63.7554  -40.3930  -21.6794 C.3     1  UNL1        0.1136
     10 C         -62.5607  -41.1700  -22.2288 C.3     1  UNL1        0.1123
     11 N         -62.0569  -42.0972  -21.2087 N.pl3   1  UNL1       -0.3040
     12 C         -61.7316  -41.5501  -19.8862 C.3     1  UNL1        0.1123
     13 C         -62.9155  -40.7482  -19.3398 C.3     1  UNL1        0.1136
     14 C         -63.6014  -36.2805  -19.1505 C.ar    1  UNL1        0.0155
     15 C         -63.0833  -37.5238  -19.5466 C.ar    1  UNL1        0.0324
     16 C         -63.9411  -38.5433  -19.9733 C.ar    1  UNL1        0.1315
     17 N         -65.2812  -38.3228  -19.9857 N.ar    1  UNL1       -0.2292
     18 C         -65.8241  -37.1346  -19.6189 C.ar    1  UNL1        0.1039
     19 C         -65.0062  -36.0685  -19.1969 C.ar    1  UNL1        0.0890
     20 C         -65.6379  -34.7432  -18.8146 C.3     1  UNL1        0.4198
     21 F         -67.0110  -34.7563  -18.9927 F       1  UNL1       -0.1658
     22 F         -65.1168  -33.7333  -19.6033 F       1  UNL1       -0.1658
     23 F         -65.3844  -34.4679  -17.4834 F       1  UNL1       -0.1658
     24 C         -62.6128  -35.2252  -18.6930 C.3     1  UNL1        0.1688
     25 C         -61.6412  -35.1669  -20.7965 C.3     1  UNL1        0.1746
     26 O         -61.3995  -35.3221  -19.4150 O.3     1  UNL1       -0.3463
     27 C         -60.1963  -47.3363  -22.6751 C.2     1  UNL1        0.2483
     28 O         -58.9599  -47.5449  -22.8166 O.2     1  UNL1       -0.2701
     29 N         -61.1184  -48.4254  -22.8347 N.am    1  UNL1       -0.2945
     30 H         -62.0591  -48.3416  -22.3893 H       1  UNL1        0.1501
     31 C         -60.7366  -49.6805  -23.5003 C.3     1  UNL1        0.1535
     32 C         -61.5719  -50.8418  -23.0123 C.2     1  UNL1        0.2443
     33 O         -61.2315  -51.4733  -21.9743 O.2     1  UNL1       -0.2730
     34 N         -62.8067  -51.1549  -23.6764 N.am    1  UNL1       -0.2825
     35 H         -63.2052  -50.4385  -24.3252 H       1  UNL1        0.1549
     36 C         -63.5867  -52.3336  -23.4129 C.ar    1  UNL1        0.0535
     37 C         -63.0922  -53.3806  -22.6164 C.ar    1  UNL1        0.0353
     38 C         -63.8774  -54.5173  -22.4078 C.ar    1  UNL1        0.1002
     39 N         -65.1048  -54.6144  -22.9837 N.ar    1  UNL1       -0.2422
     40 C         -65.6006  -53.6257  -23.7735 C.ar    1  UNL1        0.1002
     41 C         -64.8477  -52.4728  -24.0088 C.ar    1  UNL1        0.0353
     42 C         -60.8117  -49.5527  -25.0384 C.3     1  UNL1        0.0569
     43 C         -61.8469  -48.5628  -25.5011 C.ar    1  UNL1       -0.0017
     44 C         -63.2166  -48.7860  -25.6117 C.ar    1  UNL1        0.0681
     45 N         -63.8515  -47.6549  -25.9934 N.ar    1  UNL1       -0.3523
     46 C         -62.8957  -46.7196  -26.1287 C.ar    1  UNL1        0.0563
     47 C         -63.0679  -45.3837  -26.4891 C.ar    1  UNL1        0.0170
     48 C         -61.9240  -44.5683  -26.5595 C.ar    1  UNL1        0.0015
     49 C         -60.6471  -45.1021  -26.2796 C.ar    1  UNL1        0.0001
     50 C         -60.5027  -46.4547  -25.9226 C.ar    1  UNL1        0.0012
     51 C         -61.6571  -47.2365  -25.8449 C.ar    1  UNL1        0.0131
     52 H         -64.8778  -47.5346  -26.1433 H       1  UNL1        0.1660
@<TRIPOS>BOND
     1    25    26    1
     2    26    24    1
     3    24    14    1
     4    14    15   ar
     5    15    16   ar
     6    16     8    1
     7     8     9    1
     8     9    10    1
     9    10    11    1
    10    11     1    1
    11     1     2   ar
    12     2     3   ar
    13     3     4   ar
    14     4    27    1
    15    27    28    2
    16    27    29   am
    17    29    31    1
    18    31    42    1
    19    42    43    1
    20    43    44   ar
    21    44    45   ar
    22    45    46   ar
    23    46    47   ar
    24    47    48   ar
    25    48    49   ar
    26    49    50   ar
    27    50    51   ar
    28    31    32    1
    29    32    33    2
    30    32    34   am
    31    34    36    1
    32    36    37   ar
    33    37    38   ar
    34    38    39   ar
    35    39    40   ar
    36    40    41   ar
    37     4     5   ar
    38     5     6    1
    39     5     7   ar
    40    11    12    1
    41    12    13    1
    42    16    17   ar
    43    17    18   ar
    44    18    19   ar
    45    19    20    1
    46    20    21    1
    47    20    22    1
    48    20    23    1
    49    19    14   ar
    50    13     8    1
    51     7     1   ar
    52    51    43   ar
    53    41    36   ar
    54    51    46   ar
    55    29    30    1
    56    45    52    1
    57    34    35    1
@<TRIPOS>MOLECULE
*****
 52 57 0 0 0
SMALL
GASTEIGER

@<TRIPOS>ATOM
      1 C         -61.1785  -42.5512  -24.2602 C.ar    1  UNL1        0.0502
      2 C         -62.4730  -42.2011  -23.8497 C.ar    1  UNL1        0.0148
      3 C         -62.7460  -41.9590  -22.5014 C.ar    1  UNL1        0.0080
      4 C         -61.7341  -42.0732  -21.5313 C.ar    1  UNL1        0.0808
      5 C         -60.4322  -42.4262  -21.9479 C.ar    1  UNL1        0.1457
      6 F         -59.4020  -42.4985  -21.0690 F       1  UNL1       -0.2040
      7 C         -60.1642  -42.6627  -23.2993 C.ar    1  UNL1        0.0443
      8 N         -60.8406  -43.0887  -28.4131 N.pl3   1  UNL1       -0.2897
      9 C         -61.5919  -44.0695  -27.6186 C.3     1  UNL1        0.1136
     10 C         -61.0189  -44.1420  -26.2047 C.3     1  UNL1        0.1123
     11 N         -60.8872  -42.7896  -25.6499 N.pl3   1  UNL1       -0.3040
     12 C         -60.1497  -41.7947  -26.4375 C.3     1  UNL1        0.1123
     13 C         -60.7017  -41.7345  -27.8640 C.3     1  UNL1        0.1136
     14 C         -61.3701  -43.2883  -32.1240 C.ar    1  UNL1        0.0155
     15 C         -61.6031  -43.0474  -30.7607 C.ar    1  UNL1        0.0324
     16 C         -60.6068  -43.3148  -29.8155 C.ar    1  UNL1        0.1315
     17 N         -59.4177  -43.8243  -30.2290 N.ar    1  UNL1       -0.2292
     18 C         -59.1473  -44.0649  -31.5367 C.ar    1  UNL1        0.1039
     19 C         -60.1075  -43.7985  -32.5318 C.ar    1  UNL1        0.0890
     20 C         -59.7703  -44.0550  -33.9886 C.3     1  UNL1        0.4198
     21 F         -60.9078  -44.2383  -34.7565 F       1  UNL1       -0.1658
     22 F         -58.9975  -45.1974  -34.0943 F       1  UNL1       -0.1658
     23 F         -59.0762  -42.9774  -34.5075 F       1  UNL1       -0.1658
     24 C         -62.4979  -42.9818  -33.0905 C.3     1  UNL1        0.1688
     25 C         -63.9733  -44.2992  -31.8822 C.3     1  UNL1        0.1746
     26 O         -63.7509  -43.0196  -32.4338 O.3     1  UNL1       -0.3463
     27 C         -62.0496  -41.7704  -20.1118 C.2     1  UNL1        0.2483
     28 O         -61.4986  -42.4465  -19.2000 O.2     1  UNL1       -0.2701
     29 N         -62.9610  -40.7187  -19.7577 N.am    1  UNL1       -0.2945
     30 H         -63.1331  -39.9622  -20.4566 H       1  UNL1        0.1501
     31 C         -63.5580  -40.6215  -18.4167 C.3     1  UNL1        0.1535
     32 C         -64.1939  -39.2691  -18.1909 C.2     1  UNL1        0.2443
     33 O         -65.1203  -39.1395  -17.3442 O.2     1  UNL1       -0.2730
     34 N         -63.6683  -38.1169  -18.8693 N.am    1  UNL1       -0.2825
     35 H         -62.7271  -38.2028  -19.3160 H       1  UNL1        0.1549
     36 C         -64.2979  -36.8242  -18.8674 C.ar    1  UNL1        0.0535
     37 C         -63.7588  -35.7442  -18.1477 C.ar    1  UNL1        0.0353
     38 C         -64.4190  -34.5128  -18.1562 C.ar    1  UNL1        0.1002
     39 N         -65.5818  -34.3663  -18.8446 N.ar    1  UNL1       -0.2422
     40 C         -66.1357  -35.3983  -19.5340 C.ar    1  UNL1        0.1002
     41 C         -65.5087  -36.6466  -19.5506 C.ar    1  UNL1        0.0353
     42 C         -64.5725  -41.7592  -18.1636 C.3     1  UNL1        0.0569
     43 C         -65.2384  -42.2503  -19.4209 C.ar    1  UNL1       -0.0017
     44 C         -65.4070  -43.5775  -19.8060 C.ar    1  UNL1        0.0681
     45 N         -66.1082  -43.6504  -20.9598 N.ar    1  UNL1       -0.3523
     46 C         -66.3815  -42.3818  -21.3097 C.ar    1  UNL1        0.0563
     47 C         -67.1036  -41.9505  -22.4218 C.ar    1  UNL1        0.0170
     48 C         -67.2840  -40.5661  -22.5929 C.ar    1  UNL1        0.0015
     49 C         -66.7378  -39.6536  -21.6640 C.ar    1  UNL1        0.0001
     50 C         -66.0101  -40.1170  -20.5533 C.ar    1  UNL1        0.0012
     51 C         -65.8606  -41.4968  -20.4001 C.ar    1  UNL1        0.0131
     52 H         -66.3864  -44.5191  -21.4681 H       1  UNL1        0.1660
@<TRIPOS>BOND
     1    25    26    1
     2    26    24    1
     3    24    14    1
     4    14    15   ar
     5    15    16   ar
     6    16     8    1
     7     8     9    1
     8     9    10    1
     9    10    11    1
    10    11     1    1
    11     1     2   ar
    12     2     3   ar
    13     3     4   ar
    14     4    27    1
    15    27    28    2
    16    27    29   am
    17    29    31    1
    18    31    42    1
    19    42    43    1
    20    43    44   ar
    21    44    45   ar
    22    45    46   ar
    23    46    47   ar
    24    47    48   ar
    25    48    49   ar
    26    49    50   ar
    27    50    51   ar
    28    31    32    1
    29    32    33    2
    30    32    34   am
    31    34    36    1
    32    36    37   ar
    33    37    38   ar
    34    38    39   ar
    35    39    40   ar
    36    40    41   ar
    37     4     5   ar
    38     5     6    1
    39     5     7   ar
    40    11    12    1
    41    12    13    1
    42    16    17   ar
    43    17    18   ar
    44    18    19   ar
    45    19    20    1
    46    20    21    1
    47    20    22    1
    48    20    23    1
    49    19    14   ar
    50    13     8    1
    51     7     1   ar
    52    51    43   ar
    53    41    36   ar
    54    51    46   ar
    55    29    30    1
    56    45    52    1
    57    34    35    1
@<TRIPOS>MOLECULE
*****
 52 57 0 0 0
SMALL
GASTEIGER

@<TRIPOS>ATOM
      1 C         -62.7335  -42.6160  -22.9725 C.ar    1  UNL1        0.0502
      2 C         -62.5883  -43.7954  -22.2275 C.ar    1  UNL1        0.0148
      3 C         -62.2981  -45.0035  -22.8655 C.ar    1  UNL1        0.0080
      4 C         -62.1585  -45.0627  -24.2638 C.ar    1  UNL1        0.0808
      5 C         -62.3057  -43.8738  -25.0107 C.ar    1  UNL1        0.1457
      6 F         -62.1285  -43.8549  -26.3550 F       1  UNL1       -0.2040
      7 C         -62.5915  -42.6668  -24.3660 C.ar    1  UNL1        0.0443
      8 N         -63.8512  -39.2593  -20.7068 N.pl3   1  UNL1       -0.2897
      9 C         -64.8425  -39.9015  -21.5802 C.3     1  UNL1        0.1136
     10 C         -64.1436  -40.5397  -22.7790 C.3     1  UNL1        0.1123
     11 N         -63.0200  -41.3649  -22.3201 N.pl3   1  UNL1       -0.3040
     12 C         -62.0275  -40.7412  -21.4369 C.3     1  UNL1        0.1123
     13 C         -62.7227  -40.0770  -20.2458 C.3     1  UNL1        0.1136
     14 C         -63.4907  -35.9728  -18.9294 C.ar    1  UNL1        0.0155
     15 C         -63.1662  -37.1525  -19.6178 C.ar    1  UNL1        0.0324
     16 C         -64.1734  -38.0380  -20.0162 C.ar    1  UNL1        0.1315
     17 N         -65.4668  -37.7521  -19.7165 N.ar    1  UNL1       -0.2292
     18 C         -65.8259  -36.6201  -19.0600 C.ar    1  UNL1        0.1039
     19 C         -64.8548  -35.6859  -18.6505 C.ar    1  UNL1        0.0890
     20 C         -65.2862  -34.4174  -17.9389 C.3     1  UNL1        0.4198
     21 F         -64.5013  -33.3339  -18.2955 F       1  UNL1       -0.1658
     22 F         -65.1764  -34.5897  -16.5708 F       1  UNL1       -0.1658
     23 F         -66.5966  -34.1184  -18.2637 F       1  UNL1       -0.1658
     24 C         -62.3468  -35.0639  -18.5224 C.3     1  UNL1        0.1688
     25 C         -61.6465  -35.1134  -20.7313 C.3     1  UNL1        0.1746
     26 O         -61.2378  -35.2294  -19.3858 O.3     1  UNL1       -0.3463
     27 C         -61.8109  -46.3560  -24.9061 C.2     1  UNL1        0.2483
     28 O         -60.6626  -46.8462  -24.7234 O.2     1  UNL1       -0.2701
     29 N         -62.7581  -47.0626  -25.7220 N.am    1  UNL1       -0.2945
     30 H         -63.7725  -46.8527  -25.5903 H       1  UNL1        0.1501
     31 C         -62.3495  -48.1370  -26.6400 C.3     1  UNL1        0.1535
     32 C         -62.3611  -49.4843  -25.9549 C.2     1  UNL1        0.2443
     33 O         -63.1098  -50.4050  -26.3834 O.2     1  UNL1       -0.2730
     34 N         -61.4419  -49.7410  -24.8812 N.am    1  UNL1       -0.2825
     35 H         -60.6422  -49.0792  -24.7567 H       1  UNL1        0.1549
     36 C         -61.4831  -50.9122  -24.0482 C.ar    1  UNL1        0.0535
     37 C         -62.7010  -51.4860  -23.6450 C.ar    1  UNL1        0.0353
     38 C         -62.6913  -52.6102  -22.8153 C.ar    1  UNL1        0.1002
     39 N         -61.5118  -53.1353  -22.3905 N.ar    1  UNL1       -0.2422
     40 C         -60.3197  -52.5901  -22.7495 C.ar    1  UNL1        0.1002
     41 C         -60.2845  -51.4650  -23.5768 C.ar    1  UNL1        0.0353
     42 C         -63.2229  -48.1569  -27.9146 C.3     1  UNL1        0.0569
     43 C         -63.1406  -46.8814  -28.7095 C.ar    1  UNL1       -0.0017
     44 C         -64.1906  -46.2428  -29.3637 C.ar    1  UNL1        0.0681
     45 N         -63.7679  -45.0850  -29.9196 N.ar    1  UNL1       -0.3523
     46 C         -62.4599  -44.9872  -29.6262 C.ar    1  UNL1        0.0563
     47 C         -61.5934  -43.9506  -29.9705 C.ar    1  UNL1        0.0170
     48 C         -60.2551  -44.0436  -29.5478 C.ar    1  UNL1        0.0015
     49 C         -59.8155  -45.1617  -28.8061 C.ar    1  UNL1        0.0001
     50 C         -60.7110  -46.1949  -28.4764 C.ar    1  UNL1        0.0012
     51 C         -62.0369  -46.0684  -28.8953 C.ar    1  UNL1        0.0131
     52 H         -64.3461  -44.4034  -30.4595 H       1  UNL1        0.1660
@<TRIPOS>BOND
     1    25    26    1
     2    26    24    1
     3    24    14    1
     4    14    15   ar
     5    15    16   ar
     6    16     8    1
     7     8     9    1
     8     9    10    1
     9    10    11    1
    10    11     1    1
    11     1     2   ar
    12     2     3   ar
    13     3     4   ar
    14     4    27    1
    15    27    28    2
    16    27    29   am
    17    29    31    1
    18    31    42    1
    19    42    43    1
    20    43    44   ar
    21    44    45   ar
    22    45    46   ar
    23    46    47   ar
    24    47    48   ar
    25    48    49   ar
    26    49    50   ar
    27    50    51   ar
    28    31    32    1
    29    32    33    2
    30    32    34   am
    31    34    36    1
    32    36    37   ar
    33    37    38   ar
    34    38    39   ar
    35    39    40   ar
    36    40    41   ar
    37     4     5   ar
    38     5     6    1
    39     5     7   ar
    40    11    12    1
    41    12    13    1
    42    16    17   ar
    43    17    18   ar
    44    18    19   ar
    45    19    20    1
    46    20    21    1
    47    20    22    1
    48    20    23    1
    49    19    14   ar
    50    13     8    1
    51     7     1   ar
    52    51    43   ar
    53    41    36   ar
    54    51    46   ar
    55    29    30    1
    56    45    52    1
    57    34    35    1
@<TRIPOS>MOLECULE
*****
 52 57 0 0 0
SMALL
GASTEIGER

@<TRIPOS>ATOM
      1 C         -62.6816  -42.6677  -22.9621 C.ar    1  UNL1        0.0502
      2 C         -62.6685  -42.7746  -24.3604 C.ar    1  UNL1        0.0148
      3 C         -62.3823  -43.9965  -24.9735 C.ar    1  UNL1        0.0080
      4 C         -62.0908  -45.1365  -24.2031 C.ar    1  UNL1        0.0808
      5 C         -62.1044  -45.0253  -22.7958 C.ar    1  UNL1        0.1457
      6 F         -61.8861  -46.0999  -21.9979 F       1  UNL1       -0.2040
      7 C         -62.3961  -43.8008  -22.1880 C.ar    1  UNL1        0.0443
      8 N         -63.8369  -39.3064  -20.7224 N.pl3   1  UNL1       -0.2897
      9 C         -64.8335  -39.9963  -21.5523 C.3     1  UNL1        0.1136
     10 C         -64.1518  -40.6342  -22.7610 C.3     1  UNL1        0.1123
     11 N         -62.9882  -41.4143  -22.3234 N.pl3   1  UNL1       -0.3040
     12 C         -61.9895  -40.7426  -21.4834 C.3     1  UNL1        0.1123
     13 C         -62.6686  -40.0787  -20.2828 C.3     1  UNL1        0.1136
     14 C         -63.5228  -36.0196  -18.9365 C.ar    1  UNL1        0.0155
     15 C         -63.1802  -37.2011  -19.6129 C.ar    1  UNL1        0.0324
     16 C         -64.1771  -38.0832  -20.0438 C.ar    1  UNL1        0.1315
     17 N         -65.4786  -37.7920  -19.7873 N.ar    1  UNL1       -0.2292
     18 C         -65.8548  -36.6580  -19.1439 C.ar    1  UNL1        0.1039
     19 C         -64.8942  -35.7272  -18.7032 C.ar    1  UNL1        0.0890
     20 C         -65.3440  -34.4564  -18.0073 C.3     1  UNL1        0.4198
     21 F         -64.5727  -33.3668  -18.3748 F       1  UNL1       -0.1658
     22 F         -65.2351  -34.6114  -16.6370 F       1  UNL1       -0.1658
     23 F         -66.6575  -34.1786  -18.3383 F       1  UNL1       -0.1658
     24 C         -62.3895  -35.1147  -18.4927 C.3     1  UNL1        0.1688
     25 C         -61.7541  -35.1317  -20.7216 C.3     1  UNL1        0.1746
     26 O         -61.2968  -35.1964  -19.3883 O.3     1  UNL1       -0.3463
     27 C         -61.8297  -46.4291  -24.8865 C.2     1  UNL1        0.2483
     28 O         -60.7412  -47.0306  -24.6730 O.2     1  UNL1       -0.2701
     29 N         -62.7945  -47.0111  -25.7769 N.am    1  UNL1       -0.2945
     30 H         -63.7911  -46.7137  -25.6832 H       1  UNL1        0.1501
     31 C         -62.4389  -48.0802  -26.7226 C.3     1  UNL1        0.1535
     32 C         -62.4027  -49.4300  -26.0435 C.2     1  UNL1        0.2443
     33 O         -63.0804  -50.3887  -26.5057 O.2     1  UNL1       -0.2730
     34 N         -61.5150  -49.6413  -24.9339 N.am    1  UNL1       -0.2825
     35 H         -60.7595  -48.9365  -24.7744 H       1  UNL1        0.1549
     36 C         -61.5242  -50.8179  -24.1076 C.ar    1  UNL1        0.0535
     37 C         -62.7244  -51.3759  -23.6350 C.ar    1  UNL1        0.0353
     38 C         -62.6824  -52.5062  -22.8148 C.ar    1  UNL1        0.1002
     39 N         -61.4877  -53.0525  -22.4657 N.ar    1  UNL1       -0.2422
     40 C         -60.3111  -52.5231  -22.8928 C.ar    1  UNL1        0.1002
     41 C         -60.3082  -51.3926  -23.7134 C.ar    1  UNL1        0.0353
     42 C         -63.3892  -48.0991  -27.9410 C.3     1  UNL1        0.0569
     43 C         -63.4510  -46.7810  -28.6650 C.ar    1  UNL1       -0.0017
     44 C         -62.7708  -45.6150  -28.3244 C.ar    1  UNL1        0.0681
     45 N         -63.0090  -44.6445  -29.2352 N.ar    1  UNL1       -0.3523
     46 C         -63.8363  -45.1846  -30.1465 C.ar    1  UNL1        0.0563
     47 C         -64.3470  -44.5718  -31.2900 C.ar    1  UNL1        0.0170
     48 C         -65.1926  -45.3291  -32.1206 C.ar    1  UNL1        0.0015
     49 C         -65.5120  -46.6640  -31.7893 C.ar    1  UNL1        0.0001
     50 C         -64.9855  -47.2553  -30.6269 C.ar    1  UNL1        0.0012
     51 C         -64.1363  -46.4853  -29.8297 C.ar    1  UNL1        0.0131
     52 H         -62.6200  -43.6755  -29.2320 H       1  UNL1        0.1660
@<TRIPOS>BOND
     1    25    26    1
     2    26    24    1
     3    24    14    1
     4    14    15   ar
     5    15    16   ar
     6    16     8    1
     7     8     9    1
     8     9    10    1
     9    10    11    1
    10    11     1    1
    11     1     2   ar
    12     2     3   ar
    13     3     4   ar
    14     4    27    1
    15    27    28    2
    16    27    29   am
    17    29    31    1
    18    31    42    1
    19    42    43    1
    20    43    44   ar
    21    44    45   ar
    22    45    46   ar
    23    46    47   ar
    24    47    48   ar
    25    48    49   ar
    26    49    50   ar
    27    50    51   ar
    28    31    32    1
    29    32    33    2
    30    32    34   am
    31    34    36    1
    32    36    37   ar
    33    37    38   ar
    34    38    39   ar
    35    39    40   ar
    36    40    41   ar
    37     4     5   ar
    38     5     6    1
    39     5     7   ar
    40    11    12    1
    41    12    13    1
    42    16    17   ar
    43    17    18   ar
    44    18    19   ar
    45    19    20    1
    46    20    21    1
    47    20    22    1
    48    20    23    1
    49    19    14   ar
    50    13     8    1
    51     7     1   ar
    52    51    43   ar
    53    41    36   ar
    54    51    46   ar
    55    29    30    1
    56    45    52    1
    57    34    35    1
@<TRIPOS>MOLECULE
*****
 52 57 0 0 0
SMALL
GASTEIGER

@<TRIPOS>ATOM
      1 C         -63.5136  -50.8329  -24.3304 C.ar    1  UNL1        0.0502
      2 C         -64.7873  -51.3377  -24.6300 C.ar    1  UNL1        0.0148
      3 C         -65.2412  -52.5137  -24.0286 C.ar    1  UNL1        0.0080
      4 C         -64.4277  -53.2185  -23.1233 C.ar    1  UNL1        0.0808
      5 C         -63.1459  -52.7079  -22.8243 C.ar    1  UNL1        0.1457
      6 F         -62.3365  -53.3108  -21.9186 F       1  UNL1       -0.2040
      7 C         -62.6991  -51.5279  -23.4259 C.ar    1  UNL1        0.0443
      8 N         -62.5264  -47.0249  -25.8052 N.pl3   1  UNL1       -0.2897
      9 C         -63.7406  -47.6934  -26.2918 C.3     1  UNL1        0.1136
     10 C         -63.5512  -49.2085  -26.2531 C.3     1  UNL1        0.1123
     11 N         -63.0443  -49.6143  -24.9370 N.pl3   1  UNL1       -0.3040
     12 C         -61.8388  -48.9471  -24.4314 C.3     1  UNL1        0.1123
     13 C         -62.0112  -47.4272  -24.4909 C.3     1  UNL1        0.1136
     14 C         -60.7083  -44.5228  -27.9323 C.ar    1  UNL1        0.0155
     15 C         -61.1273  -45.7469  -27.3874 C.ar    1  UNL1        0.0324
     16 C         -62.1018  -45.7771  -26.3840 C.ar    1  UNL1        0.1315
     17 N         -62.6268  -44.6090  -25.9318 N.ar    1  UNL1       -0.2292
     18 C         -62.2566  -43.4046  -26.4353 C.ar    1  UNL1        0.1039
     19 C         -61.2923  -43.3168  -27.4580 C.ar    1  UNL1        0.0890
     20 C         -60.9142  -41.9589  -28.0189 C.3     1  UNL1        0.4198
     21 F         -60.7913  -41.9868  -29.3978 F       1  UNL1       -0.1658
     22 F         -59.6994  -41.5584  -27.4921 F       1  UNL1       -0.1658
     23 F         -61.8866  -41.0298  -27.6974 F       1  UNL1       -0.1658
     24 C         -59.6433  -44.5663  -29.0112 C.3     1  UNL1        0.1688
     25 C         -59.2466  -44.8067  -31.2822 C.3     1  UNL1        0.1746
     26 O         -60.2283  -44.5571  -30.2998 O.3     1  UNL1       -0.3463
     27 C         -64.9567  -54.4441  -22.4720 C.2     1  UNL1        0.2483
     28 O         -64.2413  -55.4831  -22.4402 O.2     1  UNL1       -0.2701
     29 N         -66.2605  -54.4665  -21.8706 N.am    1  UNL1       -0.2945
     30 H         -66.6884  -53.5556  -21.5922 H       1  UNL1        0.1501
     31 C         -66.9458  -55.7252  -21.5389 C.3     1  UNL1        0.1535
     32 C         -66.8348  -56.0439  -20.0656 C.2     1  UNL1        0.2443
     33 O         -66.3233  -57.1349  -19.6915 O.2     1  UNL1       -0.2730
     34 N         -67.2194  -55.0559  -19.0961 N.am    1  UNL1       -0.2825
     35 H         -67.3452  -54.0724  -19.4275 H       1  UNL1        0.1549
     36 C         -67.3222  -55.3097  -17.6846 C.ar    1  UNL1        0.0535
     37 C         -68.5583  -55.5821  -17.0740 C.ar    1  UNL1        0.0353
     38 C         -68.6122  -55.7988  -15.6947 C.ar    1  UNL1        0.1002
     39 N         -67.4784  -55.7321  -14.9482 N.ar    1  UNL1       -0.2422
     40 C         -66.2724  -55.4523  -15.5091 C.ar    1  UNL1        0.1002
     41 C         -66.1744  -55.2279  -16.8844 C.ar    1  UNL1        0.0353
     42 C         -68.4234  -55.7028  -21.9904 C.3     1  UNL1        0.0569
     43 C         -69.2871  -54.8027  -21.1480 C.ar    1  UNL1       -0.0017
     44 C         -69.2366  -53.4123  -21.1003 C.ar    1  UNL1        0.0681
     45 N         -70.2032  -52.9310  -20.2865 N.ar    1  UNL1       -0.3523
     46 C         -70.8620  -54.0041  -19.8164 C.ar    1  UNL1        0.0563
     47 C         -71.9568  -54.0101  -18.9530 C.ar    1  UNL1        0.0170
     48 C         -72.5054  -55.2547  -18.5946 C.ar    1  UNL1        0.0015
     49 C         -71.9490  -56.4522  -19.0948 C.ar    1  UNL1        0.0001
     50 C         -70.8418  -56.4161  -19.9612 C.ar    1  UNL1        0.0012
     51 C         -70.3279  -55.1662  -20.3126 C.ar    1  UNL1        0.0131
     52 H         -70.4000  -51.9274  -20.0755 H       1  UNL1        0.1660
@<TRIPOS>BOND
     1    25    26    1
     2    26    24    1
     3    24    14    1
     4    14    15   ar
     5    15    16   ar
     6    16     8    1
     7     8     9    1
     8     9    10    1
     9    10    11    1
    10    11     1    1
    11     1     2   ar
    12     2     3   ar
    13     3     4   ar
    14     4    27    1
    15    27    28    2
    16    27    29   am
    17    29    31    1
    18    31    42    1
    19    42    43    1
    20    43    44   ar
    21    44    45   ar
    22    45    46   ar
    23    46    47   ar
    24    47    48   ar
    25    48    49   ar
    26    49    50   ar
    27    50    51   ar
    28    31    32    1
    29    32    33    2
    30    32    34   am
    31    34    36    1
    32    36    37   ar
    33    37    38   ar
    34    38    39   ar
    35    39    40   ar
    36    40    41   ar
    37     4     5   ar
    38     5     6    1
    39     5     7   ar
    40    11    12    1
    41    12    13    1
    42    16    17   ar
    43    17    18   ar
    44    18    19   ar
    45    19    20    1
    46    20    21    1
    47    20    22    1
    48    20    23    1
    49    19    14   ar
    50    13     8    1
    51     7     1   ar
    52    51    43   ar
    53    41    36   ar
    54    51    46   ar
    55    29    30    1
    56    45    52    1
    57    34    35    1
