@<TRIPOS>MOLECULE
*****
 45 50 0 0 0
SMALL
GASTEIGER

@<TRIPOS>ATOM
      1 C          61.4837   84.2858   12.5392 C.ar    1  UNL1        0.0702
      2 C          61.1684   83.9584   11.2155 C.ar    1  UNL1        0.0191
      3 C          60.2959   82.9047   10.9400 C.ar    1  UNL1        0.0356
      4 C          59.7597   82.1558   11.9992 C.ar    1  UNL1        0.1318
      5 N          60.0900   82.4839   13.2792 N.ar    1  UNL1       -0.2279
      6 C          60.9332   83.5093   13.5712 C.ar    1  UNL1        0.1149
      7 N          58.8361   81.0779   11.7573 N.pl3   1  UNL1       -0.2932
      8 C          58.1920   80.3501   12.8589 C.3     1  UNL1        0.0923
      9 C          58.4195   78.8362   12.7119 C.3     1  UNL1        0.0252
     10 C          58.4606   78.3526   11.2337 C.3     1  UNL1        0.0472
     11 C          57.7910   79.3728   10.2833 C.3     1  UNL1        0.0252
     12 C          58.4611   80.7539   10.3739 C.3     1  UNL1        0.0923
     13 C          59.9032   78.0252   10.8002 C.3     1  UNL1        0.2054
     14 O          60.8307   78.5007   11.7737 O.3     1  UNL1       -0.4755
     15 C          61.8003   79.4847   11.5320 C.ar    1  UNL1        0.1388
     16 C          62.1724   79.8738   10.2324 C.ar    1  UNL1        0.0369
     17 C          63.1483   80.8544   10.0467 C.ar    1  UNL1        0.0033
     18 C          63.7577   81.4604   11.1479 C.ar    1  UNL1        0.0066
     19 C          63.3909   81.0935   12.4549 C.ar    1  UNL1        0.0785
     20 C          62.4147   80.0954   12.6321 C.ar    1  UNL1        0.0433
     21 C          64.0304   81.7222   13.6366 C.2     1  UNL1        0.3381
     22 O          63.5724   81.4974   14.7885 O.2     1  UNL1       -0.2451
     23 O          65.1258   82.5761   13.5121 O.3     1  UNL1       -0.4771
     24 H          65.4803   82.8819   12.6154 H       1  UNL1        0.2954
     25 C          62.1424   86.7385   12.4831 C.2     1  UNL1        0.2839
     26 O          61.0281   87.0861   12.0086 O.2     1  UNL1       -0.2665
     27 N          62.4008   85.3602   12.8038 N.am    1  UNL1       -0.2766
     28 H          63.3301   85.1028   13.2017 H       1  UNL1        0.1553
     29 C          64.1362   87.0139   15.0191 C.3     1  UNL1        0.0345
     30 C          64.0069   87.9116   13.8259 C.ar    1  UNL1        0.0202
     31 C          63.1569   87.7799   12.7207 C.ar    1  UNL1        0.1946
     32 O          63.3950   88.7453   11.8503 O.2     1  UNL1       -0.4492
     33 C          64.3374   89.5102   12.3448 C.ar    1  UNL1        0.1452
     34 C          64.8951   90.6457   11.7677 C.ar    1  UNL1        0.0375
     35 C          65.9052   91.3185   12.4775 C.ar    1  UNL1        0.0031
     36 C          66.3411   90.8485   13.7463 C.ar    1  UNL1        0.0002
     37 C          65.7470   89.6877   14.2973 C.ar    1  UNL1        0.0028
     38 C          64.7467   89.0474   13.5657 C.ar    1  UNL1        0.0337
     39 C          67.4089   91.5670   14.4871 C.ar    1  UNL1        0.0001
     40 C          68.6360   90.9357   14.7658 C.ar    1  UNL1        0.0023
     41 C          69.6393   91.6143   15.4644 C.ar    1  UNL1        0.0296
     42 C          69.4308   92.9279   15.8915 C.ar    1  UNL1        0.1401
     43 F          70.4053   93.5838   16.5684 F       1  UNL1       -0.2042
     44 C          68.2176   93.5652   15.6209 C.ar    1  UNL1        0.0296
     45 C          67.2107   92.8909   14.9234 C.ar    1  UNL1        0.0023
@<TRIPOS>BOND
     1    29    30    1
     2    30    31   ar
     3    31    25    1
     4    25    26    2
     5    25    27   am
     6    27     1    1
     7     1     2   ar
     8     2     3   ar
     9     3     4   ar
    10     4     7    1
    11     7     8    1
    12     8     9    1
    13     9    10    1
    14    10    13    1
    15    13    14    1
    16    14    15    1
    17    15    16   ar
    18    16    17   ar
    19    17    18   ar
    20    18    19   ar
    21    19    21    1
    22    21    22    2
    23    21    23    1
    24    19    20   ar
    25    10    11    1
    26    11    12    1
    27     4     5   ar
    28     5     6   ar
    29    31    32   ar
    30    32    33   ar
    31    33    34   ar
    32    34    35   ar
    33    35    36   ar
    34    36    39    1
    35    39    40   ar
    36    40    41   ar
    37    41    42   ar
    38    42    43    1
    39    42    44   ar
    40    44    45   ar
    41    36    37   ar
    42    37    38   ar
    43    38    30   ar
    44     6     1   ar
    45    38    33   ar
    46    12     7    1
    47    45    39   ar
    48    20    15   ar
    49    27    28    1
    50    23    24    1
@<TRIPOS>MOLECULE
*****
 45 50 0 0 0
SMALL
GASTEIGER

@<TRIPOS>ATOM
      1 C          61.6816   87.7433    9.7310 C.ar    1  UNL1        0.0702
      2 C          61.5606   86.3491    9.7112 C.ar    1  UNL1        0.0191
      3 C          61.7281   85.6116   10.8839 C.ar    1  UNL1        0.0356
      4 C          62.0484   86.2752   12.0786 C.ar    1  UNL1        0.1318
      5 N          62.1738   87.6315   12.0724 N.ar    1  UNL1       -0.2279
      6 C          62.0096   88.3706   10.9434 C.ar    1  UNL1        0.1149
      7 N          62.2038   85.5526   13.3143 N.pl3   1  UNL1       -0.2932
      8 C          63.1393   85.9958   14.3565 C.3     1  UNL1        0.0923
      9 C          64.0921   84.8539   14.7482 C.3     1  UNL1        0.0252
     10 C          63.4347   83.4450   14.6874 C.3     1  UNL1        0.0472
     11 C          61.8913   83.5358   14.7311 C.3     1  UNL1        0.0252
     12 C          61.3425   84.3912   13.5771 C.3     1  UNL1        0.0923
     13 C          63.9290   82.6583   13.4574 C.3     1  UNL1        0.2054
     14 O          63.4004   81.3338   13.4741 O.3     1  UNL1       -0.4755
     15 C          62.6265   80.7751   12.4465 C.ar    1  UNL1        0.1388
     16 C          62.9440   80.9432   11.0865 C.ar    1  UNL1        0.0369
     17 C          62.1363   80.3711   10.1022 C.ar    1  UNL1        0.0033
     18 C          61.0119   79.6235   10.4594 C.ar    1  UNL1        0.0066
     19 C          60.6845   79.4342   11.8138 C.ar    1  UNL1        0.0785
     20 C          61.4979   80.0248   12.7987 C.ar    1  UNL1        0.0433
     21 C          59.4916   78.6476   12.2124 C.2     1  UNL1        0.3381
     22 O          58.8572   78.9595   13.2552 O.2     1  UNL1       -0.2451
     23 O          59.0522   77.5517   11.4703 O.3     1  UNL1       -0.4771
     24 H          59.5698   77.1826   10.6834 H       1  UNL1        0.2954
     25 C          60.4386   88.3021    7.5873 C.2     1  UNL1        0.2839
     26 O          59.4983   87.5083    7.8579 O.2     1  UNL1       -0.2665
     27 N          61.5271   88.4850    8.5098 N.am    1  UNL1       -0.2766
     28 H          62.2884   89.1538    8.2622 H       1  UNL1        0.1553
     29 C          57.7972   89.2658    5.9821 C.3     1  UNL1        0.0345
     30 C          59.2381   89.4510    5.6138 C.ar    1  UNL1        0.0202
     31 C          60.3795   89.0500    6.3195 C.ar    1  UNL1        0.1946
     32 O          61.4667   89.4602    5.6904 O.2     1  UNL1       -0.4492
     33 C          61.0906   90.0844    4.6011 C.ar    1  UNL1        0.1452
     34 C          61.9044   90.6734    3.6397 C.ar    1  UNL1        0.0375
     35 C          61.2846   91.2977    2.5429 C.ar    1  UNL1        0.0031
     36 C          59.8683   91.3244    2.4243 C.ar    1  UNL1        0.0002
     37 C          59.0769   90.7131    3.4262 C.ar    1  UNL1        0.0028
     38 C          59.7262   90.1018    4.4988 C.ar    1  UNL1        0.0337
     39 C          59.2244   91.9867    1.2615 C.ar    1  UNL1        0.0001
     40 C          59.7045   93.2213    0.7846 C.ar    1  UNL1        0.0023
     41 C          59.0956   93.8433   -0.3097 C.ar    1  UNL1        0.0296
     42 C          58.0037   93.2418   -0.9401 C.ar    1  UNL1        0.1401
     43 F          57.4154   93.8467   -2.0013 F       1  UNL1       -0.2042
     44 C          57.5183   92.0167   -0.4765 C.ar    1  UNL1        0.0296
     45 C          58.1230   91.3910    0.6180 C.ar    1  UNL1        0.0023
@<TRIPOS>BOND
     1    29    30    1
     2    30    31   ar
     3    31    25    1
     4    25    26    2
     5    25    27   am
     6    27     1    1
     7     1     2   ar
     8     2     3   ar
     9     3     4   ar
    10     4     7    1
    11     7     8    1
    12     8     9    1
    13     9    10    1
    14    10    13    1
    15    13    14    1
    16    14    15    1
    17    15    16   ar
    18    16    17   ar
    19    17    18   ar
    20    18    19   ar
    21    19    21    1
    22    21    22    2
    23    21    23    1
    24    19    20   ar
    25    10    11    1
    26    11    12    1
    27     4     5   ar
    28     5     6   ar
    29    31    32   ar
    30    32    33   ar
    31    33    34   ar
    32    34    35   ar
    33    35    36   ar
    34    36    39    1
    35    39    40   ar
    36    40    41   ar
    37    41    42   ar
    38    42    43    1
    39    42    44   ar
    40    44    45   ar
    41    36    37   ar
    42    37    38   ar
    43    38    30   ar
    44     6     1   ar
    45    38    33   ar
    46    12     7    1
    47    45    39   ar
    48    20    15   ar
    49    27    28    1
    50    23    24    1
@<TRIPOS>MOLECULE
*****
 45 50 0 0 0
SMALL
GASTEIGER

@<TRIPOS>ATOM
      1 C          61.4631   83.9738   13.0664 C.ar    1  UNL1        0.0702
      2 C          60.3382   84.1350   12.2495 C.ar    1  UNL1        0.0191
      3 C          59.4797   83.0603   12.0142 C.ar    1  UNL1        0.0356
      4 C          59.7684   81.8080   12.5786 C.ar    1  UNL1        0.1318
      5 N          60.8754   81.6706   13.3602 N.ar    1  UNL1       -0.2279
      6 C          61.7225   82.7046   13.6073 C.ar    1  UNL1        0.1149
      7 N          58.8936   80.6815   12.3806 N.pl3   1  UNL1       -0.2932
      8 C          58.6745   79.6790   13.4317 C.3     1  UNL1        0.0923
      9 C          58.9515   78.2645   12.8952 C.3     1  UNL1        0.0252
     10 C          58.5676   78.0792   11.3988 C.3     1  UNL1        0.0472
     11 C          57.5670   79.1617   10.9307 C.3     1  UNL1        0.0252
     12 C          58.1332   80.5778   11.1274 C.3     1  UNL1        0.0923
     13 C          59.8249   78.0358   10.5081 C.3     1  UNL1        0.2054
     14 O          60.8953   78.7429   11.1310 O.3     1  UNL1       -0.4755
     15 C          61.4949   79.8975   10.6072 C.ar    1  UNL1        0.1388
     16 C          62.7845   80.3147   10.9834 C.ar    1  UNL1        0.0369
     17 C          63.3330   81.4760   10.4365 C.ar    1  UNL1        0.0033
     18 C          62.6093   82.2284    9.5085 C.ar    1  UNL1        0.0066
     19 C          61.3233   81.8214    9.1109 C.ar    1  UNL1        0.0785
     20 C          60.7739   80.6558    9.6766 C.ar    1  UNL1        0.0433
     21 C          60.5376   82.6101    8.1304 C.2     1  UNL1        0.3381
     22 O          59.8664   83.6022    8.5208 O.2     1  UNL1       -0.2451
     23 O          60.5049   82.2771    6.7766 O.3     1  UNL1       -0.4771
     24 H          60.9341   81.4373    6.4107 H       1  UNL1        0.2954
     25 C          62.0962   86.4200   12.8054 C.2     1  UNL1        0.2839
     26 O          61.0124   86.6981   12.2260 O.2     1  UNL1       -0.2665
     27 N          62.3481   85.0858   13.2804 N.am    1  UNL1       -0.2766
     28 H          63.2515   84.8864   13.7624 H       1  UNL1        0.1553
     29 C          64.3213   86.6623   15.1448 C.3     1  UNL1        0.0345
     30 C          64.0309   87.6144   14.0244 C.ar    1  UNL1        0.0202
     31 C          63.0806   87.4982   13.0023 C.ar    1  UNL1        0.1946
     32 O          63.1849   88.5195   12.1703 O.2     1  UNL1       -0.4492
     33 C          64.1364   89.3045   12.6135 C.ar    1  UNL1        0.1452
     34 C          64.5801   90.4964   12.0514 C.ar    1  UNL1        0.0375
     35 C          65.6248   91.1816   12.6964 C.ar    1  UNL1        0.0031
     36 C          66.2078   90.6677   13.8867 C.ar    1  UNL1        0.0002
     37 C          65.7264   89.4501   14.4249 C.ar    1  UNL1        0.0028
     38 C          64.6877   88.7991   13.7592 C.ar    1  UNL1        0.0337
     39 C          67.3108   91.3998   14.5595 C.ar    1  UNL1        0.0001
     40 C          68.6466   90.9842   14.4018 C.ar    1  UNL1        0.0023
     41 C          69.6832   91.6747   15.0373 C.ar    1  UNL1        0.0296
     42 C          69.3998   92.7858   15.8351 C.ar    1  UNL1        0.1401
     43 F          70.4067   93.4539   16.4499 F       1  UNL1       -0.2042
     44 C          68.0784   93.2082   15.9992 C.ar    1  UNL1        0.0296
     45 C          67.0381   92.5207   15.3666 C.ar    1  UNL1        0.0023
@<TRIPOS>BOND
     1    29    30    1
     2    30    31   ar
     3    31    25    1
     4    25    26    2
     5    25    27   am
     6    27     1    1
     7     1     2   ar
     8     2     3   ar
     9     3     4   ar
    10     4     7    1
    11     7     8    1
    12     8     9    1
    13     9    10    1
    14    10    13    1
    15    13    14    1
    16    14    15    1
    17    15    16   ar
    18    16    17   ar
    19    17    18   ar
    20    18    19   ar
    21    19    21    1
    22    21    22    2
    23    21    23    1
    24    19    20   ar
    25    10    11    1
    26    11    12    1
    27     4     5   ar
    28     5     6   ar
    29    31    32   ar
    30    32    33   ar
    31    33    34   ar
    32    34    35   ar
    33    35    36   ar
    34    36    39    1
    35    39    40   ar
    36    40    41   ar
    37    41    42   ar
    38    42    43    1
    39    42    44   ar
    40    44    45   ar
    41    36    37   ar
    42    37    38   ar
    43    38    30   ar
    44     6     1   ar
    45    38    33   ar
    46    12     7    1
    47    45    39   ar
    48    20    15   ar
    49    27    28    1
    50    23    24    1
@<TRIPOS>MOLECULE
*****
 45 50 0 0 0
SMALL
GASTEIGER

@<TRIPOS>ATOM
      1 C          60.3326   89.8587    4.8856 C.ar    1  UNL1        0.0702
      2 C          59.0773   90.4770    4.8568 C.ar    1  UNL1        0.0191
      3 C          58.6645   91.1786    3.7233 C.ar    1  UNL1        0.0356
      4 C          59.5292   91.2853    2.6228 C.ar    1  UNL1        0.1318
      5 N          60.7514   90.6864    2.6774 N.ar    1  UNL1       -0.2279
      6 C          61.1722   89.9935    3.7686 C.ar    1  UNL1        0.1149
      7 N          59.1301   91.9785    1.4256 N.pl3   1  UNL1       -0.2932
      8 C          57.9608   91.5577    0.6422 C.3     1  UNL1        0.0923
      9 C          58.3474   91.3393   -0.8303 C.3     1  UNL1        0.0252
     10 C          59.4501   92.3134   -1.3363 C.3     1  UNL1        0.0472
     11 C          59.5575   93.5668   -0.4364 C.3     1  UNL1        0.0252
     12 C          59.8582   93.1901    1.0238 C.3     1  UNL1        0.0923
     13 C          60.8037   91.5894   -1.4763 C.3     1  UNL1        0.2054
     14 O          61.8016   92.4953   -1.9428 O.3     1  UNL1       -0.4755
     15 C          62.9283   92.8841   -1.2037 C.ar    1  UNL1        0.1388
     16 C          64.0533   93.4808   -1.8014 C.ar    1  UNL1        0.0369
     17 C          65.1522   93.8435   -1.0208 C.ar    1  UNL1        0.0033
     18 C          65.1411   93.6228    0.3584 C.ar    1  UNL1        0.0066
     19 C          64.0211   93.0384    0.9762 C.ar    1  UNL1        0.0785
     20 C          62.9228   92.6651    0.1793 C.ar    1  UNL1        0.0433
     21 C          63.9929   92.7916    2.4387 C.2     1  UNL1        0.3381
     22 O          64.5660   93.5973    3.2195 O.2     1  UNL1       -0.2451
     23 O          63.3582   91.6759    2.9838 O.3     1  UNL1       -0.4771
     24 H          62.9686   90.9369    2.4135 H       1  UNL1        0.2954
     25 C          59.8694   88.3808    6.8991 C.2     1  UNL1        0.2839
     26 O          58.6652   88.2110    6.5695 O.2     1  UNL1       -0.2665
     27 N          60.7501   89.1586    6.0692 N.am    1  UNL1       -0.2766
     28 H          61.7438   89.2767    6.3638 H       1  UNL1        0.1553
     29 C          59.8593   85.2280    7.6354 C.3     1  UNL1        0.0345
     30 C          60.3309   86.3834    8.4654 C.ar    1  UNL1        0.0202
     31 C          60.3520   87.7448    8.1372 C.ar    1  UNL1        0.1946
     32 O          60.9059   88.4371    9.1170 O.2     1  UNL1       -0.4492
     33 C          61.2223   87.5989   10.0736 C.ar    1  UNL1        0.1452
     34 C          61.8223   87.8940   11.2928 C.ar    1  UNL1        0.0375
     35 C          62.0770   86.8313   12.1774 C.ar    1  UNL1        0.0031
     36 C          61.7306   85.4966   11.8320 C.ar    1  UNL1        0.0002
     37 C          61.1219   85.2400   10.5800 C.ar    1  UNL1        0.0028
     38 C          60.8828   86.3190    9.7289 C.ar    1  UNL1        0.0337
     39 C          62.0044   84.3818   12.7742 C.ar    1  UNL1        0.0001
     40 C          61.1279   83.2833   12.8575 C.ar    1  UNL1        0.0023
     41 C          61.3875   82.2356   13.7463 C.ar    1  UNL1        0.0296
     42 C          62.5224   82.2712   14.5601 C.ar    1  UNL1        0.1401
     43 F          62.7721   81.2539   15.4208 F       1  UNL1       -0.2042
     44 C          63.3998   83.3557   14.4865 C.ar    1  UNL1        0.0296
     45 C          63.1444   84.4064   13.6000 C.ar    1  UNL1        0.0023
@<TRIPOS>BOND
     1    29    30    1
     2    30    31   ar
     3    31    25    1
     4    25    26    2
     5    25    27   am
     6    27     1    1
     7     1     2   ar
     8     2     3   ar
     9     3     4   ar
    10     4     7    1
    11     7     8    1
    12     8     9    1
    13     9    10    1
    14    10    13    1
    15    13    14    1
    16    14    15    1
    17    15    16   ar
    18    16    17   ar
    19    17    18   ar
    20    18    19   ar
    21    19    21    1
    22    21    22    2
    23    21    23    1
    24    19    20   ar
    25    10    11    1
    26    11    12    1
    27     4     5   ar
    28     5     6   ar
    29    31    32   ar
    30    32    33   ar
    31    33    34   ar
    32    34    35   ar
    33    35    36   ar
    34    36    39    1
    35    39    40   ar
    36    40    41   ar
    37    41    42   ar
    38    42    43    1
    39    42    44   ar
    40    44    45   ar
    41    36    37   ar
    42    37    38   ar
    43    38    30   ar
    44     6     1   ar
    45    38    33   ar
    46    12     7    1
    47    45    39   ar
    48    20    15   ar
    49    27    28    1
    50    23    24    1
@<TRIPOS>MOLECULE
*****
 45 50 0 0 0
SMALL
GASTEIGER

@<TRIPOS>ATOM
      1 C          58.7347   83.6126    8.8056 C.ar    1  UNL1        0.0702
      2 C          57.9901   83.7801    9.9788 C.ar    1  UNL1        0.0191
      3 C          57.8167   82.7125   10.8606 C.ar    1  UNL1        0.0356
      4 C          58.3694   81.4606   10.5481 C.ar    1  UNL1        0.1318
      5 N          59.0796   81.3168    9.3948 N.ar    1  UNL1       -0.2279
      6 C          59.2658   82.3439    8.5241 C.ar    1  UNL1        0.1149
      7 N          58.2345   80.3416   11.4442 N.pl3   1  UNL1       -0.2932
      8 C          58.0188   80.5270   12.8853 C.3     1  UNL1        0.0923
      9 C          59.0682   79.7454   13.6935 C.3     1  UNL1        0.0252
     10 C          59.4992   78.4077   13.0262 C.3     1  UNL1        0.0472
     11 C          58.4564   77.9279   11.9895 C.3     1  UNL1        0.0252
     12 C          58.2253   78.9798   10.8919 C.3     1  UNL1        0.0923
     13 C          60.9076   78.5268   12.4109 C.3     1  UNL1        0.2054
     14 O          61.4978   79.7750   12.7679 O.3     1  UNL1       -0.4755
     15 C          61.8074   80.7958   11.8574 C.ar    1  UNL1        0.1388
     16 C          62.5130   80.5543   10.6648 C.ar    1  UNL1        0.0369
     17 C          62.8013   81.6076    9.7953 C.ar    1  UNL1        0.0033
     18 C          62.3869   82.9064   10.0991 C.ar    1  UNL1        0.0066
     19 C          61.6702   83.1662   11.2808 C.ar    1  UNL1        0.0785
     20 C          61.3947   82.0999   12.1570 C.ar    1  UNL1        0.0433
     21 C          61.2261   84.5397   11.6229 C.2     1  UNL1        0.3381
     22 O          60.4290   84.7180   12.5820 O.2     1  UNL1       -0.2451
     23 O          61.6552   85.6523   10.8999 O.3     1  UNL1       -0.4771
     24 H          62.2106   85.5750   10.0580 H       1  UNL1        0.2954
     25 C          59.0004   86.0901    8.3116 C.2     1  UNL1        0.2839
     26 O          59.0534   86.3869    9.5350 O.2     1  UNL1       -0.2665
     27 N          58.8849   84.7171    7.8985 N.am    1  UNL1       -0.2766
     28 H          58.8499   84.5007    6.8786 H       1  UNL1        0.1553
     29 C          61.5694   86.9663    6.5467 C.3     1  UNL1        0.0345
     30 C          60.1989   87.5723    6.5732 C.ar    1  UNL1        0.0202
     31 C          59.0835   87.1795    7.3235 C.ar    1  UNL1        0.1946
     32 O          58.0423   87.9312    7.0121 O.2     1  UNL1       -0.4492
     33 C          58.4307   88.8069    6.1175 C.ar    1  UNL1        0.1452
     34 C          57.6631   89.7966    5.5137 C.ar    1  UNL1        0.0375
     35 C          58.2869   90.6320    4.5703 C.ar    1  UNL1        0.0031
     36 C          59.6609   90.4661    4.2458 C.ar    1  UNL1        0.0002
     37 C          60.4057   89.4452    4.8837 C.ar    1  UNL1        0.0028
     38 C          59.7543   88.6369    5.8154 C.ar    1  UNL1        0.0337
     39 C          60.3094   91.3542    3.2478 C.ar    1  UNL1        0.0001
     40 C          59.5486   92.2884    2.5195 C.ar    1  UNL1        0.0023
     41 C          60.1615   93.1226    1.5796 C.ar    1  UNL1        0.0296
     42 C          61.5378   93.0352    1.3563 C.ar    1  UNL1        0.1401
     43 F          62.1298   93.8455    0.4447 F       1  UNL1       -0.2042
     44 C          62.3036   92.1125    2.0729 C.ar    1  UNL1        0.0296
     45 C          61.6954   91.2754    3.0133 C.ar    1  UNL1        0.0023
@<TRIPOS>BOND
     1    29    30    1
     2    30    31   ar
     3    31    25    1
     4    25    26    2
     5    25    27   am
     6    27     1    1
     7     1     2   ar
     8     2     3   ar
     9     3     4   ar
    10     4     7    1
    11     7     8    1
    12     8     9    1
    13     9    10    1
    14    10    13    1
    15    13    14    1
    16    14    15    1
    17    15    16   ar
    18    16    17   ar
    19    17    18   ar
    20    18    19   ar
    21    19    21    1
    22    21    22    2
    23    21    23    1
    24    19    20   ar
    25    10    11    1
    26    11    12    1
    27     4     5   ar
    28     5     6   ar
    29    31    32   ar
    30    32    33   ar
    31    33    34   ar
    32    34    35   ar
    33    35    36   ar
    34    36    39    1
    35    39    40   ar
    36    40    41   ar
    37    41    42   ar
    38    42    43    1
    39    42    44   ar
    40    44    45   ar
    41    36    37   ar
    42    37    38   ar
    43    38    30   ar
    44     6     1   ar
    45    38    33   ar
    46    12     7    1
    47    45    39   ar
    48    20    15   ar
    49    27    28    1
    50    23    24    1
