@<TRIPOS>MOLECULE
*****
 50 55 0 0 0
SMALL
GASTEIGER

@<TRIPOS>ATOM
      1 C         -63.3890  -40.3247  -18.9569 C.3     1  UNL1        0.1535
      2 N         -64.1590  -37.9602  -19.5736 N.am    1  UNL1       -0.2825
      3 C         -63.4429  -38.8364  -18.6886 C.2     1  UNL1        0.2443
      4 O         -62.7674  -38.3495  -17.7409 O.2     1  UNL1       -0.2730
      5 H         -64.2752  -38.2530  -20.5702 H       1  UNL1        0.1549
      6 C         -66.4789  -35.0563  -19.0205 C.ar    1  UNL1        0.1171
      7 C         -66.0189  -36.3300  -19.3943 C.ar    1  UNL1        0.0367
      8 C         -64.6746  -36.6782  -19.1770 C.ar    1  UNL1        0.0535
      9 C         -63.8095  -35.7306  -18.6170 C.ar    1  UNL1        0.0353
     10 C         -64.3009  -34.4759  -18.2551 C.ar    1  UNL1        0.1002
     11 N         -65.6085  -34.1705  -18.4610 N.ar    1  UNL1       -0.2409
     12 C         -68.6226  -33.8652  -18.2009 C.3     1  UNL1        0.0789
     13 C         -67.8880  -34.6615  -19.2344 C.2     1  UNL1        0.1910
     14 O         -68.4870  -34.9923  -20.2937 O.2     1  UNL1       -0.2897
     15 N         -63.0613  -40.5840  -20.3634 N.am    1  UNL1       -0.2945
     16 C         -62.1350  -41.6066  -20.7624 C.2     1  UNL1        0.2483
     17 O         -61.4779  -42.2370  -19.8895 O.2     1  UNL1       -0.2701
     18 H         -63.6969  -40.1822  -21.0894 H       1  UNL1        0.1501
     19 C         -61.9945  -41.9805  -22.1865 C.ar    1  UNL1        0.0808
     20 C         -63.1122  -41.9104  -23.0327 C.ar    1  UNL1        0.0080
     21 C         -62.9943  -42.2095  -24.3918 C.ar    1  UNL1        0.0148
     22 C         -61.7563  -42.5939  -24.9347 C.ar    1  UNL1        0.0502
     23 C         -60.6432  -42.6892  -24.0806 C.ar    1  UNL1        0.0443
     24 C         -60.7581  -42.3889  -22.7199 C.ar    1  UNL1        0.1457
     25 F         -59.6702  -42.5428  -21.9230 F       1  UNL1       -0.2040
     26 N         -61.6327  -42.8958  -26.3426 N.pl3   1  UNL1       -0.3040
     27 C         -62.1268  -41.9353  -27.3416 C.3     1  UNL1        0.1122
     28 C         -62.3746  -42.6076  -28.6956 C.3     1  UNL1        0.1122
     29 N         -61.1958  -43.3772  -29.1200 N.pl3   1  UNL1       -0.3040
     30 C         -60.3625  -44.0570  -28.1158 C.3     1  UNL1        0.1122
     31 C         -61.0925  -44.1926  -26.7760 C.3     1  UNL1        0.1122
     32 C         -60.9030  -43.5436  -30.5256 C.ar    1  UNL1        0.0488
     33 C         -59.6598  -44.0520  -30.9441 C.ar    1  UNL1        0.0154
     34 C         -59.3780  -44.2079  -32.3035 C.ar    1  UNL1        0.0135
     35 C         -60.3292  -43.8592  -33.2667 C.ar    1  UNL1        0.0683
     36 CL        -59.9366  -44.0702  -34.9678 Cl      1  UNL1       -0.0814
     37 C         -61.5733  -43.3483  -32.8636 C.ar    1  UNL1        0.0694
     38 CL        -62.7987  -42.8995  -34.0424 Cl      1  UNL1       -0.0813
     39 C         -61.8545  -43.1919  -31.5012 C.ar    1  UNL1        0.0268
     40 C         -64.7116  -41.0349  -18.5871 C.3     1  UNL1        0.0569
     41 C         -65.3542  -41.7118  -19.7692 C.ar    1  UNL1       -0.0017
     42 C         -65.5952  -43.0755  -19.9139 C.ar    1  UNL1        0.0681
     43 N         -66.3003  -43.3148  -21.0428 N.ar    1  UNL1       -0.3523
     44 C         -66.5122  -42.1150  -21.6103 C.ar    1  UNL1        0.0563
     45 C         -67.2240  -41.8475  -22.7791 C.ar    1  UNL1        0.0170
     46 C         -67.3484  -40.5050  -23.1812 C.ar    1  UNL1        0.0015
     47 C         -66.7620  -39.4721  -22.4173 C.ar    1  UNL1        0.0001
     48 C         -66.0464  -39.7722  -21.2446 C.ar    1  UNL1        0.0012
     49 C         -65.9471  -41.1118  -20.8652 C.ar    1  UNL1        0.0131
     50 H         -66.6291  -44.2436  -21.3887 H       1  UNL1        0.1660
@<TRIPOS>BOND
     1    12    13    1
     2    13    14    2
     3    13     6    1
     4     6     7   ar
     5     7     8   ar
     6     8     2    1
     7     2     3   am
     8     3     4    2
     9     3     1    1
    10     1    40    1
    11    40    41    1
    12    41    42   ar
    13    42    43   ar
    14    43    44   ar
    15    44    45   ar
    16    45    46   ar
    17    46    47   ar
    18    47    48   ar
    19    48    49   ar
    20     1    15    1
    21    15    16   am
    22    16    17    2
    23    16    19    1
    24    19    20   ar
    25    20    21   ar
    26    21    22   ar
    27    22    26    1
    28    26    27    1
    29    27    28    1
    30    28    29    1
    31    29    32    1
    32    32    33   ar
    33    33    34   ar
    34    34    35   ar
    35    35    36    1
    36    35    37   ar
    37    37    38    1
    38    37    39   ar
    39    29    30    1
    40    30    31    1
    41    22    23   ar
    42    23    24   ar
    43    24    25    1
    44     8     9   ar
    45     9    10   ar
    46    10    11   ar
    47    11     6   ar
    48    49    41   ar
    49    24    19   ar
    50    49    44   ar
    51    31    26    1
    52    39    32   ar
    53     2     5    1
    54    43    50    1
    55    15    18    1
@<TRIPOS>MOLECULE
*****
 50 55 0 0 0
SMALL
GASTEIGER

@<TRIPOS>ATOM
      1 C         -65.7777  -55.5987  -21.8517 C.3     1  UNL1        0.1535
      2 N         -67.5328  -54.2964  -20.5146 N.am    1  UNL1       -0.2825
      3 C         -66.7148  -55.4670  -20.6710 C.2     1  UNL1        0.2443
      4 O         -66.7000  -56.3432  -19.7633 O.2     1  UNL1       -0.2730
      5 H         -67.2002  -53.4018  -20.9406 H       1  UNL1        0.1549
      6 C         -70.0992  -54.9655  -17.8526 C.ar    1  UNL1        0.1171
      7 C         -68.8797  -54.9849  -18.5498 C.ar    1  UNL1        0.0367
      8 C         -68.7543  -54.2760  -19.7569 C.ar    1  UNL1        0.0535
      9 C         -69.8648  -53.5861  -20.2579 C.ar    1  UNL1        0.0353
     10 C         -71.0599  -53.5860  -19.5380 C.ar    1  UNL1        0.1002
     11 N         -71.1495  -54.2660  -18.3653 N.ar    1  UNL1       -0.2409
     12 C         -69.0675  -56.0691  -15.7542 C.3     1  UNL1        0.0789
     13 C         -70.2612  -55.6997  -16.5790 C.2     1  UNL1        0.1910
     14 O         -71.4108  -56.0226  -16.1733 O.2     1  UNL1       -0.2897
     15 N         -65.3671  -54.2755  -22.3348 N.am    1  UNL1       -0.2945
     16 C         -63.9956  -53.9458  -22.6053 C.2     1  UNL1        0.2483
     17 O         -63.0814  -54.7643  -22.3130 O.2     1  UNL1       -0.2701
     18 H         -66.1110  -53.6491  -22.7183 H       1  UNL1        0.1501
     19 C         -63.6465  -52.6827  -23.2911 C.ar    1  UNL1        0.0808
     20 C         -64.4483  -52.2264  -24.3490 C.ar    1  UNL1        0.0080
     21 C         -64.1692  -51.0118  -24.9794 C.ar    1  UNL1        0.0148
     22 C         -63.0759  -50.2289  -24.5712 C.ar    1  UNL1        0.0502
     23 C         -62.2579  -50.6999  -23.5289 C.ar    1  UNL1        0.0443
     24 C         -62.5359  -51.9148  -22.8950 C.ar    1  UNL1        0.1457
     25 F         -61.6913  -52.3552  -21.9280 F       1  UNL1       -0.2040
     26 N         -62.7918  -48.9683  -25.2185 N.pl3   1  UNL1       -0.3040
     27 C         -63.5833  -48.5528  -26.3871 C.3     1  UNL1        0.1122
     28 C         -62.8490  -47.4960  -27.2182 C.3     1  UNL1        0.1122
     29 N         -62.3900  -46.3885  -26.3671 N.pl3   1  UNL1       -0.3040
     30 C         -61.9548  -46.6549  -24.9870 C.3     1  UNL1        0.1122
     31 C         -61.6633  -48.1423  -24.7653 C.3     1  UNL1        0.1122
     32 C         -62.2793  -45.0526  -26.9080 C.ar    1  UNL1        0.0488
     33 C         -61.4999  -44.8045  -28.0527 C.ar    1  UNL1        0.0154
     34 C         -61.3915  -43.5118  -28.5709 C.ar    1  UNL1        0.0135
     35 C         -62.0565  -42.4464  -27.9569 C.ar    1  UNL1        0.0683
     36 CL        -61.8949  -40.8339  -28.6394 Cl      1  UNL1       -0.0814
     37 C         -62.8360  -42.6790  -26.8125 C.ar    1  UNL1        0.0694
     38 CL        -63.6906  -41.3676  -26.0109 Cl      1  UNL1       -0.0813
     39 C         -62.9435  -43.9747  -26.2936 C.ar    1  UNL1        0.0268
     40 C         -66.4049  -56.4084  -23.0099 C.3     1  UNL1        0.0569
     41 C         -67.5341  -55.6737  -23.6835 C.ar    1  UNL1       -0.0017
     42 C         -67.4313  -54.8190  -24.7780 C.ar    1  UNL1        0.0681
     43 N         -68.6588  -54.4361  -25.1969 N.ar    1  UNL1       -0.3523
     44 C         -69.5368  -55.0448  -24.3813 C.ar    1  UNL1        0.0563
     45 C         -70.9284  -54.9809  -24.4401 C.ar    1  UNL1        0.0170
     46 C         -71.6618  -55.7256  -23.4981 C.ar    1  UNL1        0.0015
     47 C         -70.9956  -56.5052  -22.5272 C.ar    1  UNL1        0.0001
     48 C         -69.5906  -56.5475  -22.4897 C.ar    1  UNL1        0.0012
     49 C         -68.8894  -55.8062  -23.4420 C.ar    1  UNL1        0.0131
     50 H         -68.8761  -53.8104  -26.0041 H       1  UNL1        0.1660
@<TRIPOS>BOND
     1    12    13    1
     2    13    14    2
     3    13     6    1
     4     6     7   ar
     5     7     8   ar
     6     8     2    1
     7     2     3   am
     8     3     4    2
     9     3     1    1
    10     1    40    1
    11    40    41    1
    12    41    42   ar
    13    42    43   ar
    14    43    44   ar
    15    44    45   ar
    16    45    46   ar
    17    46    47   ar
    18    47    48   ar
    19    48    49   ar
    20     1    15    1
    21    15    16   am
    22    16    17    2
    23    16    19    1
    24    19    20   ar
    25    20    21   ar
    26    21    22   ar
    27    22    26    1
    28    26    27    1
    29    27    28    1
    30    28    29    1
    31    29    32    1
    32    32    33   ar
    33    33    34   ar
    34    34    35   ar
    35    35    36    1
    36    35    37   ar
    37    37    38    1
    38    37    39   ar
    39    29    30    1
    40    30    31    1
    41    22    23   ar
    42    23    24   ar
    43    24    25    1
    44     8     9   ar
    45     9    10   ar
    46    10    11   ar
    47    11     6   ar
    48    49    41   ar
    49    24    19   ar
    50    49    44   ar
    51    31    26    1
    52    39    32   ar
    53     2     5    1
    54    43    50    1
    55    15    18    1
@<TRIPOS>MOLECULE
*****
 50 55 0 0 0
SMALL
GASTEIGER

@<TRIPOS>ATOM
      1 C         -60.4132  -46.1624  -27.0361 C.3     1  UNL1        0.1535
      2 N         -62.7483  -46.7910  -27.8826 N.am    1  UNL1       -0.2825
      3 C         -61.4078  -47.1827  -27.5455 C.2     1  UNL1        0.2443
      4 O         -61.0888  -48.4030  -27.5742 O.2     1  UNL1       -0.2730
      5 H         -63.1516  -45.9525  -27.4065 H       1  UNL1        0.1549
      6 C         -64.9780  -47.6470  -30.7836 C.ar    1  UNL1        0.1171
      7 C         -64.1417  -46.9079  -29.9304 C.ar    1  UNL1        0.0367
      8 C         -63.5838  -47.5220  -28.7959 C.ar    1  UNL1        0.0535
      9 C         -63.9007  -48.8579  -28.5218 C.ar    1  UNL1        0.0353
     10 C         -64.7328  -49.5627  -29.3922 C.ar    1  UNL1        0.1002
     11 N         -65.2456  -48.9500  -30.4908 N.ar    1  UNL1       -0.2409
     12 C         -65.5029  -45.5495  -32.2017 C.3     1  UNL1        0.0789
     13 C         -65.5781  -47.0292  -31.9859 C.2     1  UNL1        0.1910
     14 O         -66.1608  -47.7454  -32.8449 O.2     1  UNL1       -0.2897
     15 N         -61.0928  -45.1276  -26.2486 N.am    1  UNL1       -0.2945
     16 C         -61.4628  -45.3240  -24.8748 C.2     1  UNL1        0.2483
     17 O         -61.3171  -46.4565  -24.3389 O.2     1  UNL1       -0.2701
     18 H         -61.0844  -44.1519  -26.6237 H       1  UNL1        0.1501
     19 C         -61.9476  -44.1912  -24.0568 C.ar    1  UNL1        0.0808
     20 C         -61.7845  -44.2257  -22.6631 C.ar    1  UNL1        0.0080
     21 C         -62.1881  -43.1466  -21.8735 C.ar    1  UNL1        0.0148
     22 C         -62.7721  -42.0106  -22.4596 C.ar    1  UNL1        0.0502
     23 C         -62.9590  -41.9885  -23.8532 C.ar    1  UNL1        0.0443
     24 C         -62.5545  -43.0667  -24.6461 C.ar    1  UNL1        0.1457
     25 F         -62.7998  -43.0243  -25.9804 F       1  UNL1       -0.2040
     26 N         -63.1825  -40.8908  -21.6433 N.pl3   1  UNL1       -0.3040
     27 C         -62.2362  -39.7963  -21.3760 C.3     1  UNL1        0.1122
     28 C         -62.6407  -38.9915  -20.1369 C.3     1  UNL1        0.1122
     29 N         -64.0480  -38.5743  -20.2217 N.pl3   1  UNL1       -0.3040
     30 C         -65.0359  -39.4514  -20.8695 C.3     1  UNL1        0.1122
     31 C         -64.5104  -40.8831  -21.0125 C.3     1  UNL1        0.1122
     32 C         -64.4824  -37.3476  -19.5925 C.ar    1  UNL1        0.0488
     33 C         -63.6306  -36.6497  -18.7169 C.ar    1  UNL1        0.0154
     34 C         -64.0547  -35.4666  -18.1071 C.ar    1  UNL1        0.0135
     35 C         -65.3334  -34.9609  -18.3591 C.ar    1  UNL1        0.0683
     36 CL        -65.8300  -33.4688  -17.5721 Cl      1  UNL1       -0.0814
     37 C         -66.1949  -35.6481  -19.2289 C.ar    1  UNL1        0.0694
     38 CL        -67.8104  -35.0454  -19.5748 Cl      1  UNL1       -0.0813
     39 C         -65.7693  -36.8340  -19.8390 C.ar    1  UNL1        0.0268
     40 C         -59.6089  -45.5059  -28.1817 C.3     1  UNL1        0.0569
     41 C         -60.4937  -44.8259  -29.1933 C.ar    1  UNL1       -0.0017
     42 C         -61.6987  -44.1767  -28.9377 C.ar    1  UNL1        0.0681
     43 N         -62.1582  -43.5730  -30.0571 N.ar    1  UNL1       -0.3523
     44 C         -61.2526  -43.8296  -31.0166 C.ar    1  UNL1        0.0563
     45 C         -61.2752  -43.3879  -32.3390 C.ar    1  UNL1        0.0170
     46 C         -60.2025  -43.7528  -33.1731 C.ar    1  UNL1        0.0015
     47 C         -59.1455  -44.5451  -32.6739 C.ar    1  UNL1        0.0001
     48 C         -59.1514  -44.9794  -31.3364 C.ar    1  UNL1        0.0012
     49 C         -60.2236  -44.5945  -30.5298 C.ar    1  UNL1        0.0131
     50 H         -63.0304  -43.0059  -30.1477 H       1  UNL1        0.1660
@<TRIPOS>BOND
     1    12    13    1
     2    13    14    2
     3    13     6    1
     4     6     7   ar
     5     7     8   ar
     6     8     2    1
     7     2     3   am
     8     3     4    2
     9     3     1    1
    10     1    40    1
    11    40    41    1
    12    41    42   ar
    13    42    43   ar
    14    43    44   ar
    15    44    45   ar
    16    45    46   ar
    17    46    47   ar
    18    47    48   ar
    19    48    49   ar
    20     1    15    1
    21    15    16   am
    22    16    17    2
    23    16    19    1
    24    19    20   ar
    25    20    21   ar
    26    21    22   ar
    27    22    26    1
    28    26    27    1
    29    27    28    1
    30    28    29    1
    31    29    32    1
    32    32    33   ar
    33    33    34   ar
    34    34    35   ar
    35    35    36    1
    36    35    37   ar
    37    37    38    1
    38    37    39   ar
    39    29    30    1
    40    30    31    1
    41    22    23   ar
    42    23    24   ar
    43    24    25    1
    44     8     9   ar
    45     9    10   ar
    46    10    11   ar
    47    11     6   ar
    48    49    41   ar
    49    24    19   ar
    50    49    44   ar
    51    31    26    1
    52    39    32   ar
    53     2     5    1
    54    43    50    1
    55    15    18    1
@<TRIPOS>MOLECULE
*****
 50 55 0 0 0
SMALL
GASTEIGER

@<TRIPOS>ATOM
      1 C         -61.4739  -45.9930  -27.2616 C.3     1  UNL1        0.1535
      2 N         -61.5486  -47.8859  -25.5367 N.am    1  UNL1       -0.2825
      3 C         -61.8058  -47.4163  -26.8698 C.2     1  UNL1        0.2443
      4 O         -62.2131  -48.2253  -27.7482 O.2     1  UNL1       -0.2730
      5 H         -60.7887  -47.4227  -24.9886 H       1  UNL1        0.1549
      6 C         -62.2615  -51.0570  -23.6508 C.ar    1  UNL1        0.1171
      7 C         -61.5550  -49.9719  -24.1962 C.ar    1  UNL1        0.0367
      8 C         -62.2407  -48.9941  -24.9372 C.ar    1  UNL1        0.0535
      9 C         -63.6178  -49.1398  -25.1435 C.ar    1  UNL1        0.0353
     10 C         -64.2881  -50.2287  -24.5850 C.ar    1  UNL1        0.1002
     11 N         -63.6042  -51.1510  -23.8590 N.ar    1  UNL1       -0.2409
     12 C         -60.0830  -52.0561  -22.6802 C.3     1  UNL1        0.0789
     13 C         -61.5682  -52.1004  -22.8648 C.2     1  UNL1        0.1910
     14 O         -62.2237  -53.0412  -22.3397 O.2     1  UNL1       -0.2897
     15 N         -62.0481  -45.0456  -26.2995 N.am    1  UNL1       -0.2945
     16 C         -61.4809  -44.8315  -24.9974 C.2     1  UNL1        0.2483
     17 O         -60.5283  -45.5556  -24.5983 O.2     1  UNL1       -0.2701
     18 H         -62.7314  -44.3428  -26.6627 H       1  UNL1        0.1501
     19 C         -61.9549  -43.7206  -24.1437 C.ar    1  UNL1        0.0808
     20 C         -61.5898  -43.6862  -22.7888 C.ar    1  UNL1        0.0080
     21 C         -61.9825  -42.6221  -21.9739 C.ar    1  UNL1        0.0148
     22 C         -62.7570  -41.5710  -22.4939 C.ar    1  UNL1        0.0502
     23 C         -63.1443  -41.6201  -23.8449 C.ar    1  UNL1        0.0443
     24 C         -62.7513  -42.6835  -24.6633 C.ar    1  UNL1        0.1457
     25 F         -63.1896  -42.7157  -25.9475 F       1  UNL1       -0.2040
     26 N         -63.1567  -40.4661  -21.6525 N.pl3   1  UNL1       -0.3040
     27 C         -62.3335  -39.2474  -21.6076 C.3     1  UNL1        0.1122
     28 C         -62.6070  -38.4289  -20.3420 C.3     1  UNL1        0.1122
     29 N         -64.0489  -38.1979  -20.1708 N.pl3   1  UNL1       -0.3040
     30 C         -65.0121  -39.2287  -20.5884 C.3     1  UNL1        0.1122
     31 C         -64.3341  -40.5888  -20.7807 C.3     1  UNL1        0.1122
     32 C         -64.5209  -37.0010  -19.5120 C.ar    1  UNL1        0.0488
     33 C         -63.6958  -36.3065  -18.6085 C.ar    1  UNL1        0.0154
     34 C         -64.1562  -35.1523  -17.9702 C.ar    1  UNL1        0.0135
     35 C         -65.4451  -34.6726  -18.2209 C.ar    1  UNL1        0.0683
     36 CL        -65.9877  -33.2166  -17.3976 Cl      1  UNL1       -0.0814
     37 C         -66.2803  -35.3569  -19.1184 C.ar    1  UNL1        0.0694
     38 CL        -67.9075  -34.7862  -19.4638 Cl      1  UNL1       -0.0813
     39 C         -65.8183  -36.5137  -19.7571 C.ar    1  UNL1        0.0268
     40 C         -61.9595  -45.6499  -28.6888 C.3     1  UNL1        0.0569
     41 C         -60.8241  -45.3190  -29.6217 C.ar    1  UNL1       -0.0017
     42 C         -59.5097  -45.7670  -29.5199 C.ar    1  UNL1        0.0681
     43 N         -58.7915  -45.3765  -30.5971 N.ar    1  UNL1       -0.3523
     44 C         -59.6405  -44.6906  -31.3816 C.ar    1  UNL1        0.0563
     45 C         -59.3670  -44.1165  -32.6224 C.ar    1  UNL1        0.0170
     46 C         -60.4185  -43.4634  -33.2915 C.ar    1  UNL1        0.0015
     47 C         -61.7038  -43.3961  -32.7103 C.ar    1  UNL1        0.0001
     48 C         -61.9492  -43.9812  -31.4554 C.ar    1  UNL1        0.0012
     49 C         -60.8899  -44.6302  -30.8192 C.ar    1  UNL1        0.0131
     50 H         -57.7861  -45.5856  -30.7866 H       1  UNL1        0.1660
@<TRIPOS>BOND
     1    12    13    1
     2    13    14    2
     3    13     6    1
     4     6     7   ar
     5     7     8   ar
     6     8     2    1
     7     2     3   am
     8     3     4    2
     9     3     1    1
    10     1    40    1
    11    40    41    1
    12    41    42   ar
    13    42    43   ar
    14    43    44   ar
    15    44    45   ar
    16    45    46   ar
    17    46    47   ar
    18    47    48   ar
    19    48    49   ar
    20     1    15    1
    21    15    16   am
    22    16    17    2
    23    16    19    1
    24    19    20   ar
    25    20    21   ar
    26    21    22   ar
    27    22    26    1
    28    26    27    1
    29    27    28    1
    30    28    29    1
    31    29    32    1
    32    32    33   ar
    33    33    34   ar
    34    34    35   ar
    35    35    36    1
    36    35    37   ar
    37    37    38    1
    38    37    39   ar
    39    29    30    1
    40    30    31    1
    41    22    23   ar
    42    23    24   ar
    43    24    25    1
    44     8     9   ar
    45     9    10   ar
    46    10    11   ar
    47    11     6   ar
    48    49    41   ar
    49    24    19   ar
    50    49    44   ar
    51    31    26    1
    52    39    32   ar
    53     2     5    1
    54    43    50    1
    55    15    18    1
@<TRIPOS>MOLECULE
*****
 50 55 0 0 0
SMALL
GASTEIGER

@<TRIPOS>ATOM
      1 C         -62.2806  -47.1622  -26.1635 C.3     1  UNL1        0.1535
      2 N         -63.6588  -45.8737  -27.8968 N.am    1  UNL1       -0.2825
      3 C         -62.9679  -47.0719  -27.5085 C.2     1  UNL1        0.2443
      4 O         -63.0237  -48.0917  -28.2492 O.2     1  UNL1       -0.2730
      5 H         -64.0389  -45.2573  -27.1431 H       1  UNL1        0.1549
      6 C         -63.3697  -44.2297  -31.2634 C.ar    1  UNL1        0.1171
      7 C         -63.0797  -44.5874  -29.9361 C.ar    1  UNL1        0.0367
      8 C         -63.9048  -45.5060  -29.2646 C.ar    1  UNL1        0.0535
      9 C         -65.0236  -46.0248  -29.9273 C.ar    1  UNL1        0.0353
     10 C         -65.2801  -45.6496  -31.2465 C.ar    1  UNL1        0.1002
     11 N         -64.4572  -44.7724  -31.8781 N.ar    1  UNL1       -0.2409
     12 C         -61.1033  -43.6104  -32.3433 C.3     1  UNL1        0.0789
     13 C         -62.5191  -43.2676  -31.9969 C.2     1  UNL1        0.1910
     14 O         -62.9796  -42.1447  -32.3398 O.2     1  UNL1       -0.2897
     15 N         -62.6434  -46.0173  -25.3206 N.am    1  UNL1       -0.2945
     16 C         -62.1630  -45.8685  -23.9753 C.2     1  UNL1        0.2483
     17 O         -61.5025  -46.7979  -23.4358 O.2     1  UNL1       -0.2701
     18 H         -63.0570  -45.1816  -25.7931 H       1  UNL1        0.1501
     19 C         -62.3730  -44.6043  -23.2369 C.ar    1  UNL1        0.0808
     20 C         -62.5249  -43.4048  -23.9498 C.ar    1  UNL1        0.0080
     21 C         -62.7745  -42.2059  -23.2783 C.ar    1  UNL1        0.0148
     22 C         -62.8699  -42.1778  -21.8765 C.ar    1  UNL1        0.0502
     23 C         -62.6912  -43.3757  -21.1619 C.ar    1  UNL1        0.0443
     24 C         -62.4427  -44.5776  -21.8317 C.ar    1  UNL1        0.1457
     25 F         -62.2267  -45.7003  -21.1002 F       1  UNL1       -0.2040
     26 N         -63.1359  -40.9384  -21.1822 N.pl3   1  UNL1       -0.3040
     27 C         -62.7788  -39.6575  -21.8119 C.3     1  UNL1        0.1122
     28 C         -62.6598  -38.5345  -20.7768 C.3     1  UNL1        0.1122
     29 N         -63.8557  -38.4823  -19.9230 N.pl3   1  UNL1       -0.3040
     30 C         -64.5571  -39.7252  -19.5653 C.3     1  UNL1        0.1122
     31 C         -63.6836  -40.9580  -19.8181 C.3     1  UNL1        0.1122
     32 C         -64.2934  -37.2250  -19.3600 C.ar    1  UNL1        0.0488
     33 C         -63.4432  -36.4788  -18.5237 C.ar    1  UNL1        0.0154
     34 C         -63.8705  -35.2659  -17.9777 C.ar    1  UNL1        0.0135
     35 C         -65.1508  -34.7782  -18.2553 C.ar    1  UNL1        0.0683
     36 CL        -65.6515  -33.2477  -17.5489 Cl      1  UNL1       -0.0814
     37 C         -66.0108  -35.5136  -19.0865 C.ar    1  UNL1        0.0694
     38 CL        -67.6284  -34.9351  -19.4629 Cl      1  UNL1       -0.0813
     39 C         -65.5820  -36.7291  -19.6326 C.ar    1  UNL1        0.0268
     40 C         -60.7427  -47.2492  -26.2962 C.3     1  UNL1        0.0569
     41 C         -60.2067  -46.3693  -27.3947 C.ar    1  UNL1       -0.0017
     42 C         -59.6014  -46.7921  -28.5752 C.ar    1  UNL1        0.0681
     43 N         -59.3581  -45.7382  -29.3868 N.ar    1  UNL1       -0.3523
     44 C         -59.8087  -44.6536  -28.7332 C.ar    1  UNL1        0.0563
     45 C         -59.8059  -43.3342  -29.1840 C.ar    1  UNL1        0.0170
     46 C         -60.3576  -42.3501  -28.3432 C.ar    1  UNL1        0.0015
     47 C         -60.8900  -42.7022  -27.0835 C.ar    1  UNL1        0.0001
     48 C         -60.8757  -44.0409  -26.6534 C.ar    1  UNL1        0.0012
     49 C         -60.3306  -44.9968  -27.5122 C.ar    1  UNL1        0.0131
     50 H         -58.9260  -45.7682  -30.3370 H       1  UNL1        0.1660
@<TRIPOS>BOND
     1    12    13    1
     2    13    14    2
     3    13     6    1
     4     6     7   ar
     5     7     8   ar
     6     8     2    1
     7     2     3   am
     8     3     4    2
     9     3     1    1
    10     1    40    1
    11    40    41    1
    12    41    42   ar
    13    42    43   ar
    14    43    44   ar
    15    44    45   ar
    16    45    46   ar
    17    46    47   ar
    18    47    48   ar
    19    48    49   ar
    20     1    15    1
    21    15    16   am
    22    16    17    2
    23    16    19    1
    24    19    20   ar
    25    20    21   ar
    26    21    22   ar
    27    22    26    1
    28    26    27    1
    29    27    28    1
    30    28    29    1
    31    29    32    1
    32    32    33   ar
    33    33    34   ar
    34    34    35   ar
    35    35    36    1
    36    35    37   ar
    37    37    38    1
    38    37    39   ar
    39    29    30    1
    40    30    31    1
    41    22    23   ar
    42    23    24   ar
    43    24    25    1
    44     8     9   ar
    45     9    10   ar
    46    10    11   ar
    47    11     6   ar
    48    49    41   ar
    49    24    19   ar
    50    49    44   ar
    51    31    26    1
    52    39    32   ar
    53     2     5    1
    54    43    50    1
    55    15    18    1
@<TRIPOS>MOLECULE
*****
 50 55 0 0 0
SMALL
GASTEIGER

@<TRIPOS>ATOM
      1 C         -62.9674  -47.5683  -26.3699 C.3     1  UNL1        0.1535
      2 N         -62.1375  -45.6262  -27.8204 N.am    1  UNL1       -0.2825
      3 C         -62.6556  -46.9624  -27.7210 C.2     1  UNL1        0.2443
      4 O         -62.9515  -47.5963  -28.7710 O.2     1  UNL1       -0.2730
      5 H         -62.3621  -44.9518  -27.0541 H       1  UNL1        0.1549
      6 C         -61.2181  -44.0719  -31.1158 C.ar    1  UNL1        0.1171
      7 C         -61.9920  -44.4953  -30.0224 C.ar    1  UNL1        0.0367
      8 C         -61.3754  -45.1509  -28.9429 C.ar    1  UNL1        0.0535
      9 C         -59.9981  -45.3970  -28.9947 C.ar    1  UNL1        0.0353
     10 C         -59.2597  -44.9602  -30.0951 C.ar    1  UNL1        0.1002
     11 N         -59.8778  -44.3143  -31.1179 N.ar    1  UNL1       -0.2409
     12 C         -61.1876  -43.4047  -33.6137 C.3     1  UNL1        0.0789
     13 C         -61.8378  -43.3778  -32.2653 C.2     1  UNL1        0.1910
     14 O         -62.9245  -42.7543  -32.1208 O.2     1  UNL1       -0.2897
     15 N         -63.1697  -46.5165  -25.3670 N.am    1  UNL1       -0.2945
     16 C         -62.0842  -45.7418  -24.8339 C.2     1  UNL1        0.2483
     17 O         -60.8943  -46.0354  -25.1323 O.2     1  UNL1       -0.2701
     18 H         -64.1440  -46.1655  -25.2251 H       1  UNL1        0.1501
     19 C         -62.3493  -44.5544  -23.9927 C.ar    1  UNL1        0.0808
     20 C         -62.6356  -43.3241  -24.6047 C.ar    1  UNL1        0.0080
     21 C         -62.9389  -42.2002  -23.8330 C.ar    1  UNL1        0.0148
     22 C         -62.9548  -42.2792  -22.4300 C.ar    1  UNL1        0.0502
     23 C         -62.6419  -43.5058  -21.8176 C.ar    1  UNL1        0.0443
     24 C         -62.3393  -44.6329  -22.5878 C.ar    1  UNL1        0.1457
     25 F         -61.9942  -45.7829  -21.9548 F       1  UNL1       -0.2040
     26 N         -63.2763  -41.1180  -21.6317 N.pl3   1  UNL1       -0.3040
     27 C         -62.2950  -40.0301  -21.4969 C.3     1  UNL1        0.1122
     28 C         -62.5779  -39.1655  -20.2644 C.3     1  UNL1        0.1122
     29 N         -63.9812  -38.7272  -20.2448 N.pl3   1  UNL1       -0.3040
     30 C         -65.0344  -39.6137  -20.7645 C.3     1  UNL1        0.1122
     31 C         -64.5435  -41.0594  -20.8888 C.3     1  UNL1        0.1122
     32 C         -64.3416  -37.4670  -19.6355 C.ar    1  UNL1        0.0488
     33 C         -63.4217  -36.7703  -18.8307 C.ar    1  UNL1        0.0154
     34 C         -63.7741  -35.5545  -18.2398 C.ar    1  UNL1        0.0135
     35 C         -65.0478  -35.0144  -18.4405 C.ar    1  UNL1        0.0683
     36 CL        -65.4533  -33.4819  -17.6794 Cl      1  UNL1       -0.0814
     37 C         -65.9768  -35.7000  -19.2394 C.ar    1  UNL1        0.0694
     38 CL        -67.5887  -35.0547  -19.5191 Cl      1  UNL1       -0.0813
     39 C         -65.6229  -36.9185  -19.8305 C.ar    1  UNL1        0.0268
     40 C         -61.8629  -48.5403  -25.8949 C.3     1  UNL1        0.0569
     41 C         -62.3729  -49.5562  -24.9068 C.ar    1  UNL1       -0.0017
     42 C         -63.6995  -49.9330  -24.7147 C.ar    1  UNL1        0.0681
     43 N         -63.7783  -50.9590  -23.8373 N.ar    1  UNL1       -0.3523
     44 C         -62.5139  -51.2381  -23.4769 C.ar    1  UNL1        0.0563
     45 C         -62.0849  -52.2436  -22.6114 C.ar    1  UNL1        0.0170
     46 C         -60.7013  -52.3793  -22.3945 C.ar    1  UNL1        0.0015
     47 C         -59.7883  -51.5144  -23.0370 C.ar    1  UNL1        0.0001
     48 C         -60.2503  -50.5066  -23.9019 C.ar    1  UNL1        0.0012
     49 C         -61.6272  -50.4014  -24.1053 C.ar    1  UNL1        0.0131
     50 H         -64.6465  -51.4461  -23.5223 H       1  UNL1        0.1660
@<TRIPOS>BOND
     1    12    13    1
     2    13    14    2
     3    13     6    1
     4     6     7   ar
     5     7     8   ar
     6     8     2    1
     7     2     3   am
     8     3     4    2
     9     3     1    1
    10     1    40    1
    11    40    41    1
    12    41    42   ar
    13    42    43   ar
    14    43    44   ar
    15    44    45   ar
    16    45    46   ar
    17    46    47   ar
    18    47    48   ar
    19    48    49   ar
    20     1    15    1
    21    15    16   am
    22    16    17    2
    23    16    19    1
    24    19    20   ar
    25    20    21   ar
    26    21    22   ar
    27    22    26    1
    28    26    27    1
    29    27    28    1
    30    28    29    1
    31    29    32    1
    32    32    33   ar
    33    33    34   ar
    34    34    35   ar
    35    35    36    1
    36    35    37   ar
    37    37    38    1
    38    37    39   ar
    39    29    30    1
    40    30    31    1
    41    22    23   ar
    42    23    24   ar
    43    24    25    1
    44     8     9   ar
    45     9    10   ar
    46    10    11   ar
    47    11     6   ar
    48    49    41   ar
    49    24    19   ar
    50    49    44   ar
    51    31    26    1
    52    39    32   ar
    53     2     5    1
    54    43    50    1
    55    15    18    1
@<TRIPOS>MOLECULE
*****
 50 55 0 0 0
SMALL
GASTEIGER

@<TRIPOS>ATOM
      1 C         -63.2499  -48.0628  -26.5599 C.3     1  UNL1        0.1535
      2 N         -64.1920  -46.9224  -28.6517 N.am    1  UNL1       -0.2825
      3 C         -63.0700  -47.4676  -27.9394 C.2     1  UNL1        0.2443
      4 O         -61.9475  -47.5461  -28.5100 O.2     1  UNL1       -0.2730
      5 H         -65.1440  -47.2930  -28.4307 H       1  UNL1        0.1549
      6 C         -62.9631  -44.0226  -30.7015 C.ar    1  UNL1        0.1171
      7 C         -63.0314  -44.9900  -29.6850 C.ar    1  UNL1        0.0367
      8 C         -64.0706  -45.9363  -29.6907 C.ar    1  UNL1        0.0535
      9 C         -65.0398  -45.8747  -30.6992 C.ar    1  UNL1        0.0353
     10 C         -64.9396  -44.9021  -31.6945 C.ar    1  UNL1        0.1002
     11 N         -63.9157  -44.0095  -31.6749 N.ar    1  UNL1       -0.2409
     12 C         -62.1416  -41.6049  -30.2939 C.3     1  UNL1        0.0789
     13 C         -61.8805  -43.0152  -30.7237 C.2     1  UNL1        0.1910
     14 O         -60.7221  -43.3353  -31.1059 O.2     1  UNL1       -0.2897
     15 N         -63.3404  -47.0036  -25.5486 N.am    1  UNL1       -0.2945
     16 C         -62.2512  -46.1098  -25.2698 C.2     1  UNL1        0.2483
     17 O         -61.1285  -46.2959  -25.8138 O.2     1  UNL1       -0.2701
     18 H         -64.2929  -46.7446  -25.2045 H       1  UNL1        0.1501
     19 C         -62.4511  -44.9271  -24.4045 C.ar    1  UNL1        0.0808
     20 C         -62.7396  -43.6840  -24.9891 C.ar    1  UNL1        0.0080
     21 C         -62.9822  -42.5631  -24.1921 C.ar    1  UNL1        0.0148
     22 C         -62.9337  -42.6580  -22.7908 C.ar    1  UNL1        0.0502
     23 C         -62.6185  -43.8979  -22.2070 C.ar    1  UNL1        0.0443
     24 C         -62.3767  -45.0220  -23.0025 C.ar    1  UNL1        0.1457
     25 F         -62.0267  -46.1862  -22.3988 F       1  UNL1       -0.2040
     26 N         -63.1924  -41.4998  -21.9660 N.pl3   1  UNL1       -0.3040
     27 C         -62.1879  -40.4285  -21.8756 C.3     1  UNL1        0.1122
     28 C         -62.3892  -39.5716  -20.6219 C.3     1  UNL1        0.1122
     29 N         -63.7821  -39.1119  -20.5215 N.pl3   1  UNL1       -0.3040
     30 C         -64.8762  -39.9768  -20.9905 C.3     1  UNL1        0.1122
     31 C         -64.4160  -41.4287  -21.1542 C.3     1  UNL1        0.1122
     32 C         -64.0884  -37.8521  -19.8824 C.ar    1  UNL1        0.0488
     33 C         -65.4230  -37.4612  -19.6700 C.ar    1  UNL1        0.0154
     34 C         -65.7160  -36.2413  -19.0556 C.ar    1  UNL1        0.0135
     35 C         -64.6849  -35.3917  -18.6443 C.ar    1  UNL1        0.0683
     36 CL        -65.0946  -33.8645  -17.8748 Cl      1  UNL1       -0.0814
     37 C         -63.3482  -35.7679  -18.8520 C.ar    1  UNL1        0.0694
     38 CL        -62.0212  -34.7299  -18.3478 Cl      1  UNL1       -0.0813
     39 C         -63.0557  -36.9903  -19.4683 C.ar    1  UNL1        0.0268
     40 C         -62.1123  -49.0432  -26.1919 C.3     1  UNL1        0.0569
     41 C         -62.4654  -49.9258  -25.0236 C.ar    1  UNL1       -0.0017
     42 C         -63.7420  -50.3406  -24.6535 C.ar    1  UNL1        0.0681
     43 N         -63.6752  -51.2264  -23.6340 N.ar    1  UNL1       -0.3523
     44 C         -62.3684  -51.3800  -23.3595 C.ar    1  UNL1        0.0563
     45 C         -61.7994  -52.2201  -22.4032 C.ar    1  UNL1        0.0170
     46 C         -60.3963  -52.2470  -22.3022 C.ar    1  UNL1        0.0015
     47 C         -59.6026  -51.4400  -23.1467 C.ar    1  UNL1        0.0001
     48 C         -60.2046  -50.5994  -24.0997 C.ar    1  UNL1        0.0012
     49 C         -61.5979  -50.6001  -24.1836 C.ar    1  UNL1        0.0131
     50 H         -64.4782  -51.7070  -23.1706 H       1  UNL1        0.1660
@<TRIPOS>BOND
     1    12    13    1
     2    13    14    2
     3    13     6    1
     4     6     7   ar
     5     7     8   ar
     6     8     2    1
     7     2     3   am
     8     3     4    2
     9     3     1    1
    10     1    40    1
    11    40    41    1
    12    41    42   ar
    13    42    43   ar
    14    43    44   ar
    15    44    45   ar
    16    45    46   ar
    17    46    47   ar
    18    47    48   ar
    19    48    49   ar
    20     1    15    1
    21    15    16   am
    22    16    17    2
    23    16    19    1
    24    19    20   ar
    25    20    21   ar
    26    21    22   ar
    27    22    26    1
    28    26    27    1
    29    27    28    1
    30    28    29    1
    31    29    32    1
    32    32    33   ar
    33    33    34   ar
    34    34    35   ar
    35    35    36    1
    36    35    37   ar
    37    37    38    1
    38    37    39   ar
    39    29    30    1
    40    30    31    1
    41    22    23   ar
    42    23    24   ar
    43    24    25    1
    44     8     9   ar
    45     9    10   ar
    46    10    11   ar
    47    11     6   ar
    48    49    41   ar
    49    24    19   ar
    50    49    44   ar
    51    31    26    1
    52    39    32   ar
    53     2     5    1
    54    43    50    1
    55    15    18    1
@<TRIPOS>MOLECULE
*****
 50 55 0 0 0
SMALL
GASTEIGER

@<TRIPOS>ATOM
      1 C         -67.1126  -55.7026  -21.9329 C.3     1  UNL1        0.1535
      2 N         -67.0414  -55.0016  -19.4696 N.am    1  UNL1       -0.2825
      3 C         -66.8829  -56.0192  -20.4712 C.2     1  UNL1        0.2443
      4 O         -66.4475  -57.1565  -20.1412 O.2     1  UNL1       -0.2730
      5 H         -66.9015  -54.0051  -19.7525 H       1  UNL1        0.1549
      6 C         -68.8834  -55.7237  -16.2749 C.ar    1  UNL1        0.1171
      7 C         -68.6421  -55.4808  -17.6375 C.ar    1  UNL1        0.0367
      8 C         -67.3258  -55.2830  -18.0888 C.ar    1  UNL1        0.0535
      9 C         -66.2790  -55.3018  -17.1594 C.ar    1  UNL1        0.0353
     10 C         -66.5546  -55.5485  -15.8141 C.ar    1  UNL1        0.1002
     11 N         -67.8344  -55.7528  -15.4067 N.ar    1  UNL1       -0.2409
     12 C         -70.5802  -57.1254  -14.9178 C.3     1  UNL1        0.0789
     13 C         -70.2570  -55.9377  -15.7702 C.2     1  UNL1        0.1910
     14 O         -71.1730  -55.1185  -16.0534 O.2     1  UNL1       -0.2897
     15 N         -66.4242  -54.4619  -22.3065 N.am    1  UNL1       -0.2945
     16 C         -65.0173  -54.4177  -22.5920 C.2     1  UNL1        0.2483
     17 O         -64.3044  -55.4418  -22.4068 O.2     1  UNL1       -0.2701
     18 H         -67.0149  -53.6531  -22.6058 H       1  UNL1        0.1501
     19 C         -64.4047  -53.2023  -23.1708 C.ar    1  UNL1        0.0808
     20 C         -65.1132  -52.4609  -24.1292 C.ar    1  UNL1        0.0080
     21 C         -64.5781  -51.2822  -24.6536 C.ar    1  UNL1        0.0148
     22 C         -63.3173  -50.8219  -24.2370 C.ar    1  UNL1        0.0502
     23 C         -62.5972  -51.5796  -23.2964 C.ar    1  UNL1        0.0443
     24 C         -63.1311  -52.7591  -22.7687 C.ar    1  UNL1        0.1457
     25 F         -62.3806  -53.4851  -21.9015 F       1  UNL1       -0.2040
     26 N         -62.7671  -49.5980  -24.7739 N.pl3   1  UNL1       -0.3040
     27 C         -63.4813  -48.8841  -25.8440 C.3     1  UNL1        0.1122
     28 C         -62.5494  -47.9413  -26.6117 C.3     1  UNL1        0.1122
     29 N         -61.8088  -47.0712  -25.6865 N.pl3   1  UNL1       -0.3040
     30 C         -61.3971  -47.5818  -24.3694 C.3     1  UNL1        0.1122
     31 C         -61.4585  -49.1113  -24.3136 C.3     1  UNL1        0.1122
     32 C         -61.4050  -45.7461  -26.0995 C.ar    1  UNL1        0.0488
     33 C         -61.2451  -45.4372  -27.4627 C.ar    1  UNL1        0.0154
     34 C         -60.8508  -44.1569  -27.8587 C.ar    1  UNL1        0.0135
     35 C         -60.6089  -43.1651  -26.9036 C.ar    1  UNL1        0.0683
     36 CL        -60.1141  -41.5659  -27.4422 Cl      1  UNL1       -0.0814
     37 C         -60.7624  -43.4599  -25.5396 C.ar    1  UNL1        0.0694
     38 CL        -60.4705  -42.2410  -24.3060 Cl      1  UNL1       -0.0813
     39 C         -61.1569  -44.7434  -25.1437 C.ar    1  UNL1        0.0268
     40 C         -68.6154  -55.5932  -22.2794 C.3     1  UNL1        0.0569
     41 C         -69.3782  -54.7568  -21.2859 C.ar    1  UNL1       -0.0017
     42 C         -69.1909  -53.4019  -21.0254 C.ar    1  UNL1        0.0681
     43 N         -70.1335  -52.9497  -20.1676 N.ar    1  UNL1       -0.3523
     44 C         -70.9183  -54.0043  -19.8876 C.ar    1  UNL1        0.0563
     45 C         -72.0482  -54.0229  -19.0707 C.ar    1  UNL1        0.0170
     46 C         -72.7443  -55.2384  -18.9378 C.ar    1  UNL1        0.0015
     47 C         -72.2983  -56.3957  -19.6130 C.ar    1  UNL1        0.0001
     48 C         -71.1528  -56.3480  -20.4273 C.ar    1  UNL1        0.0012
     49 C         -70.4879  -55.1267  -20.5479 C.ar    1  UNL1        0.0131
     50 H         -70.2386  -51.9730  -19.8134 H       1  UNL1        0.1660
@<TRIPOS>BOND
     1    12    13    1
     2    13    14    2
     3    13     6    1
     4     6     7   ar
     5     7     8   ar
     6     8     2    1
     7     2     3   am
     8     3     4    2
     9     3     1    1
    10     1    40    1
    11    40    41    1
    12    41    42   ar
    13    42    43   ar
    14    43    44   ar
    15    44    45   ar
    16    45    46   ar
    17    46    47   ar
    18    47    48   ar
    19    48    49   ar
    20     1    15    1
    21    15    16   am
    22    16    17    2
    23    16    19    1
    24    19    20   ar
    25    20    21   ar
    26    21    22   ar
    27    22    26    1
    28    26    27    1
    29    27    28    1
    30    28    29    1
    31    29    32    1
    32    32    33   ar
    33    33    34   ar
    34    34    35   ar
    35    35    36    1
    36    35    37   ar
    37    37    38    1
    38    37    39   ar
    39    29    30    1
    40    30    31    1
    41    22    23   ar
    42    23    24   ar
    43    24    25    1
    44     8     9   ar
    45     9    10   ar
    46    10    11   ar
    47    11     6   ar
    48    49    41   ar
    49    24    19   ar
    50    49    44   ar
    51    31    26    1
    52    39    32   ar
    53     2     5    1
    54    43    50    1
    55    15    18    1
