@<TRIPOS>MOLECULE
*****
 45 49 0 0 0
SMALL
GASTEIGER

@<TRIPOS>ATOM
      1 C         -26.5274   51.1648   -8.3761 C.3     1  UNL1        0.1584
      2 C         -26.6690   51.9359   -7.0614 C.3     1  UNL1        0.0647
      3 C         -27.7394   51.2000   -6.2074 C.3     1  UNL1        0.1537
      4 O         -28.7505   52.1195   -5.8503 O.3     1  UNL1       -0.3784
      5 C         -28.3401   50.1079   -7.1363 C.3     1  UNL1        0.2215
      6 O         -29.6991   50.3409   -7.4069 O.3     1  UNL1       -0.3650
      7 N         -27.5847   50.1611   -8.3809 N.am    1  UNL1       -0.2328
      8 C         -27.7250   49.1833   -9.4318 C.2     1  UNL1        0.3097
      9 O         -26.8606   49.1270  -10.3488 O.2     1  UNL1       -0.2522
     10 N         -28.8311   48.2654   -9.4399 N.am    1  UNL1       -0.2681
     11 H         -28.3215   52.8755   -5.3685 H       1  UNL1        0.2108
     12 H         -30.2046   50.0287   -6.6116 H       1  UNL1        0.2123
     13 H         -29.2562   47.9873   -8.5279 H       1  UNL1        0.1564
     14 C         -27.1323   50.5499   -4.9478 C.ar    1  UNL1        0.0334
     15 C         -27.3414   49.1794   -4.6685 C.ar    1  UNL1        0.0026
     16 C         -26.7757   48.5823   -3.5389 C.ar    1  UNL1        0.0295
     17 C         -25.9766   49.3302   -2.6759 C.ar    1  UNL1        0.1424
     18 F         -25.4268   48.7464   -1.5826 F       1  UNL1       -0.2041
     19 C         -25.7303   50.6753   -2.9474 C.ar    1  UNL1        0.0590
     20 C         -26.2910   51.2833   -4.0750 C.ar    1  UNL1        0.1407
     21 F         -25.9857   52.5805   -4.3195 F       1  UNL1       -0.2043
     22 C         -29.3487   47.6506  -10.6326 C.ar    1  UNL1        0.0516
     23 C         -30.1689   48.3984  -11.4923 C.ar    1  UNL1        0.0156
     24 C         -30.6609   47.8331  -12.6726 C.ar    1  UNL1        0.0127
     25 C         -30.3266   46.5189  -13.0130 C.ar    1  UNL1        0.0578
     26 CL        -30.9408   45.8123  -14.4963 Cl      1  UNL1       -0.0822
     27 C         -29.4941   45.7721  -12.1740 C.ar    1  UNL1        0.0127
     28 C         -29.0019   46.3341  -10.9921 C.ar    1  UNL1        0.0156
     29 O         -27.5464   51.9689  -10.3833 O.2     1  UNL1       -0.2729
     30 C         -26.5726   52.0715   -9.5908 C.2     1  UNL1        0.2455
     31 N         -25.5962   53.0962   -9.8241 N.am    1  UNL1       -0.2680
     32 H         -25.9375   54.0355  -10.1291 H       1  UNL1        0.1563
     33 C         -24.1836   52.8752   -9.7464 C.ar    1  UNL1        0.1346
     34 C         -23.3089   53.6675  -10.4985 C.ar    1  UNL1        0.0406
     35 C         -21.9345   53.4415  -10.4156 C.ar    1  UNL1        0.0736
     36 C         -21.4396   52.4095   -9.6050 C.ar    1  UNL1        0.2466
     37 C         -22.3530   51.6202   -8.8908 C.ar    1  UNL1        0.1691
     38 N         -23.6865   51.8700   -8.9757 N.ar    1  UNL1       -0.2228
     39 N         -20.0214   52.1817   -9.4830 N.am    1  UNL1       -0.0841
     40 C         -19.4360   52.3173   -8.2527 C.2     1  UNL1        0.2905
     41 C         -18.0640   52.1171   -8.0906 C.2     1  UNL1        0.0758
     42 C         -17.2871   51.7745   -9.1943 C.2     1  UNL1        0.0161
     43 C         -17.8868   51.6318  -10.4437 C.2     1  UNL1        0.1156
     44 C         -19.2648   51.8354  -10.5763 C.2     1  UNL1        0.4230
     45 O         -19.7997   51.6812  -11.7086 O.2     1  UNL1       -0.2135
@<TRIPOS>BOND
     1    29    30    2
     2    30    31   am
     3    31    33    1
     4    33    34   ar
     5    34    35   ar
     6    35    36   ar
     7    36    39    1
     8    39    40    1
     9    40    41    2
    10    41    42    1
    11    42    43    2
    12    43    44    1
    13    44    45    2
    14    36    37   ar
    15    37    38   ar
    16    30     1    1
    17     1     2    1
    18     2     3    1
    19     3     4    1
    20     3    14    1
    21    14    15   ar
    22    15    16   ar
    23    16    17   ar
    24    17    18    1
    25    17    19   ar
    26    19    20   ar
    27    20    21    1
    28     3     5    1
    29     5     6    1
    30     5     7    1
    31     7     8   am
    32     8     9    2
    33     8    10   am
    34    10    22    1
    35    22    23   ar
    36    23    24   ar
    37    24    25   ar
    38    25    26    1
    39    25    27   ar
    40    27    28   ar
    41    38    33   ar
    42     7     1    1
    43    28    22   ar
    44    44    39    1
    45    20    14   ar
    46    31    32    1
    47     4    11    1
    48     6    12    1
    49    10    13    1
@<TRIPOS>MOLECULE
*****
 45 49 0 0 0
SMALL
GASTEIGER

@<TRIPOS>ATOM
      1 C         -29.9984   49.1379   -7.7574 C.3     1  UNL1        0.1584
      2 C         -29.8810   49.6908   -9.1799 C.3     1  UNL1        0.0647
      3 C         -28.9206   48.7518   -9.9625 C.3     1  UNL1        0.1537
      4 O         -27.8689   49.5229  -10.5050 O.3     1  UNL1       -0.3784
      5 C         -28.3458   47.7649   -8.9079 C.3     1  UNL1        0.2215
      6 O         -26.9597   47.9246   -8.7429 O.3     1  UNL1       -0.3650
      7 N         -29.0187   48.0637   -7.6508 N.am    1  UNL1       -0.2328
      8 C         -28.8865   47.2448   -6.4708 C.2     1  UNL1        0.3097
      9 O         -29.6956   47.3958   -5.5149 O.2     1  UNL1       -0.2522
     10 N         -27.8517   46.2517   -6.3765 N.am    1  UNL1       -0.2681
     11 H         -28.2701   50.2312  -11.0752 H       1  UNL1        0.2108
     12 H         -26.5273   47.4577   -9.5048 H       1  UNL1        0.2123
     13 H         -27.5039   45.8076   -7.2548 H       1  UNL1        0.1564
     14 C         -29.6486   47.9730  -11.0766 C.ar    1  UNL1        0.0334
     15 C         -30.7187   48.5610  -11.7900 C.ar    1  UNL1        0.0026
     16 C         -31.3672   47.8656  -12.8140 C.ar    1  UNL1        0.0295
     17 C         -30.9530   46.5809  -13.1612 C.ar    1  UNL1        0.1424
     18 F         -31.5827   45.9107  -14.1576 F       1  UNL1       -0.2041
     19 C         -29.8800   45.9925  -12.4934 C.ar    1  UNL1        0.0590
     20 C         -29.2234   46.6791  -11.4672 C.ar    1  UNL1        0.1407
     21 F         -28.1583   46.0828  -10.8792 F       1  UNL1       -0.2043
     22 C         -27.3089   45.7812   -5.1304 C.ar    1  UNL1        0.0516
     23 C         -28.0236   44.8317   -4.3830 C.ar    1  UNL1        0.0156
     24 C         -27.5039   44.3367   -3.1832 C.ar    1  UNL1        0.0127
     25 C         -26.2580   44.7753   -2.7249 C.ar    1  UNL1        0.0578
     26 CL        -25.6050   44.1503   -1.2216 Cl      1  UNL1       -0.0822
     27 C         -25.5289   45.7056   -3.4717 C.ar    1  UNL1        0.0127
     28 C         -26.0466   46.2037   -4.6711 C.ar    1  UNL1        0.0156
     29 O         -30.8380   50.7604   -6.2159 O.2     1  UNL1       -0.2729
     30 C         -29.8140   50.2084   -6.6993 C.2     1  UNL1        0.2455
     31 N         -28.5267   50.5538   -6.1688 N.am    1  UNL1       -0.2680
     32 H         -28.4408   50.6725   -5.1342 H       1  UNL1        0.1563
     33 C         -27.3827   50.8283   -6.9849 C.ar    1  UNL1        0.1346
     34 C         -27.3811   51.9386   -7.8369 C.ar    1  UNL1        0.0406
     35 C         -26.2610   52.1949   -8.6285 C.ar    1  UNL1        0.0736
     36 C         -25.1587   51.3286   -8.5880 C.ar    1  UNL1        0.2466
     37 C         -25.2137   50.2113   -7.7419 C.ar    1  UNL1        0.1691
     38 N         -26.3098   49.9916   -6.9686 N.ar    1  UNL1       -0.2228
     39 N         -23.9809   51.5949   -9.3754 N.am    1  UNL1       -0.0841
     40 C         -22.8117   51.8971   -8.7301 C.2     1  UNL1        0.2905
     41 C         -21.6496   52.1728   -9.4529 C.2     1  UNL1        0.0758
     42 C         -21.6845   52.1370  -10.8445 C.2     1  UNL1        0.0161
     43 C         -22.8743   51.8235  -11.4980 C.2     1  UNL1        0.1156
     44 C         -24.0231   51.5485  -10.7479 C.2     1  UNL1        0.4230
     45 O         -25.0888   51.2439  -11.3508 O.2     1  UNL1       -0.2135
@<TRIPOS>BOND
     1    29    30    2
     2    30    31   am
     3    31    33    1
     4    33    34   ar
     5    34    35   ar
     6    35    36   ar
     7    36    39    1
     8    39    40    1
     9    40    41    2
    10    41    42    1
    11    42    43    2
    12    43    44    1
    13    44    45    2
    14    36    37   ar
    15    37    38   ar
    16    30     1    1
    17     1     2    1
    18     2     3    1
    19     3     4    1
    20     3    14    1
    21    14    15   ar
    22    15    16   ar
    23    16    17   ar
    24    17    18    1
    25    17    19   ar
    26    19    20   ar
    27    20    21    1
    28     3     5    1
    29     5     6    1
    30     5     7    1
    31     7     8   am
    32     8     9    2
    33     8    10   am
    34    10    22    1
    35    22    23   ar
    36    23    24   ar
    37    24    25   ar
    38    25    26    1
    39    25    27   ar
    40    27    28   ar
    41    38    33   ar
    42     7     1    1
    43    28    22   ar
    44    44    39    1
    45    20    14   ar
    46    31    32    1
    47     4    11    1
    48     6    12    1
    49    10    13    1
@<TRIPOS>MOLECULE
*****
 45 49 0 0 0
SMALL
GASTEIGER

@<TRIPOS>ATOM
      1 C         -27.9307   50.6450   -8.4070 C.3     1  UNL1        0.1584
      2 C         -29.3868   50.5524   -8.8697 C.3     1  UNL1        0.0647
      3 C         -29.3815   50.5994  -10.4235 C.3     1  UNL1        0.1537
      4 O         -30.2198   51.6524  -10.8519 O.3     1  UNL1       -0.3784
      5 C         -27.9136   50.9110  -10.8295 C.3     1  UNL1        0.2215
      6 O         -27.8009   52.1573  -11.4685 O.3     1  UNL1       -0.3650
      7 N         -27.1377   50.9294   -9.5967 N.am    1  UNL1       -0.2328
      8 C         -25.6978   51.0106   -9.5714 C.2     1  UNL1        0.3097
      9 O         -25.0785   50.7477   -8.5044 O.2     1  UNL1       -0.2522
     10 N         -24.9607   51.3758  -10.7501 N.am    1  UNL1       -0.2681
     11 H         -31.1248   51.4986  -10.4709 H       1  UNL1        0.2108
     12 H         -28.0961   52.0231  -12.4069 H       1  UNL1        0.2123
     13 H         -25.3668   51.1471  -11.6841 H       1  UNL1        0.1564
     14 C         -29.8322   49.2632  -11.0474 C.ar    1  UNL1        0.0334
     15 C         -29.9421   48.0960  -10.2567 C.ar    1  UNL1        0.0026
     16 C         -30.3699   46.8883  -10.8144 C.ar    1  UNL1        0.0295
     17 C         -30.7144   46.8216  -12.1633 C.ar    1  UNL1        0.1424
     18 F         -31.1322   45.6488  -12.7001 F       1  UNL1       -0.2041
     19 C         -30.6443   47.9665  -12.9558 C.ar    1  UNL1        0.0590
     20 C         -30.2178   49.1805  -12.4083 C.ar    1  UNL1        0.1407
     21 F         -30.2095   50.2741  -13.2081 F       1  UNL1       -0.2043
     22 C         -23.6568   51.9820  -10.7194 C.ar    1  UNL1        0.0516
     23 C         -22.5182   51.1739  -10.8661 C.ar    1  UNL1        0.0156
     24 C         -21.2409   51.7424  -10.8691 C.ar    1  UNL1        0.0127
     25 C         -21.0890   53.1261  -10.7395 C.ar    1  UNL1        0.0578
     26 CL        -19.4861   53.8386  -10.7478 Cl      1  UNL1       -0.0822
     27 C         -22.2172   53.9421  -10.6130 C.ar    1  UNL1        0.0127
     28 C         -23.4958   53.3764  -10.6080 C.ar    1  UNL1        0.0156
     29 O         -27.3078   52.8158   -7.6239 O.2     1  UNL1       -0.2729
     30 C         -27.7326   51.6723   -7.3093 C.2     1  UNL1        0.2455
     31 N         -28.0908   51.4194   -5.9434 N.am    1  UNL1       -0.2680
     32 H         -28.6020   52.1695   -5.4258 H       1  UNL1        0.1563
     33 C         -27.7099   50.2367   -5.2319 C.ar    1  UNL1        0.1346
     34 C         -26.8064   50.3215   -4.1664 C.ar    1  UNL1        0.0406
     35 C         -26.4417   49.1618   -3.4817 C.ar    1  UNL1        0.0736
     36 C         -26.9573   47.9194   -3.8790 C.ar    1  UNL1        0.2466
     37 C         -27.8371   47.8758   -4.9706 C.ar    1  UNL1        0.1691
     38 N         -28.1897   49.0214   -5.6117 N.ar    1  UNL1       -0.2228
     39 N         -26.6159   46.7153   -3.1637 N.am    1  UNL1       -0.0841
     40 C         -25.3601   46.1918   -3.3172 C.2     1  UNL1        0.2905
     41 C         -24.9900   45.0213   -2.6525 C.2     1  UNL1        0.0758
     42 C         -25.9106   44.3841   -1.8245 C.2     1  UNL1        0.0161
     43 C         -27.1858   44.9225   -1.6660 C.2     1  UNL1        0.1156
     44 C         -27.5283   46.0987   -2.3422 C.2     1  UNL1        0.4230
     45 O         -28.6787   46.5886   -2.1729 O.2     1  UNL1       -0.2135
@<TRIPOS>BOND
     1    29    30    2
     2    30    31   am
     3    31    33    1
     4    33    34   ar
     5    34    35   ar
     6    35    36   ar
     7    36    39    1
     8    39    40    1
     9    40    41    2
    10    41    42    1
    11    42    43    2
    12    43    44    1
    13    44    45    2
    14    36    37   ar
    15    37    38   ar
    16    30     1    1
    17     1     2    1
    18     2     3    1
    19     3     4    1
    20     3    14    1
    21    14    15   ar
    22    15    16   ar
    23    16    17   ar
    24    17    18    1
    25    17    19   ar
    26    19    20   ar
    27    20    21    1
    28     3     5    1
    29     5     6    1
    30     5     7    1
    31     7     8   am
    32     8     9    2
    33     8    10   am
    34    10    22    1
    35    22    23   ar
    36    23    24   ar
    37    24    25   ar
    38    25    26    1
    39    25    27   ar
    40    27    28   ar
    41    38    33   ar
    42     7     1    1
    43    28    22   ar
    44    44    39    1
    45    20    14   ar
    46    31    32    1
    47     4    11    1
    48     6    12    1
    49    10    13    1
@<TRIPOS>MOLECULE
*****
 45 49 0 0 0
SMALL
GASTEIGER

@<TRIPOS>ATOM
      1 C         -28.2102   50.7394   -8.0259 C.3     1  UNL1        0.1584
      2 C         -29.6391   50.6669   -8.5699 C.3     1  UNL1        0.0647
      3 C         -29.5404   50.6010  -10.1199 C.3     1  UNL1        0.1537
      4 O         -30.3083   51.6502  -10.6719 O.3     1  UNL1       -0.3784
      5 C         -28.0397   50.8286  -10.4555 C.3     1  UNL1        0.2215
      6 O         -27.8387   52.0204  -11.1721 O.3     1  UNL1       -0.3650
      7 N         -27.3375   50.9078   -9.1815 N.am    1  UNL1       -0.2328
      8 C         -25.8996   50.9378   -9.0733 C.2     1  UNL1        0.3097
      9 O         -25.3554   50.7305   -7.9543 O.2     1  UNL1       -0.2522
     10 N         -25.0800   51.1896  -10.2269 N.am    1  UNL1       -0.2681
     11 H         -31.2397   51.5575  -10.3375 H       1  UNL1        0.2108
     12 H         -28.0834   51.8295  -12.1151 H       1  UNL1        0.2123
     13 H         -25.4394   50.9089  -11.1659 H       1  UNL1        0.1564
     14 C         -30.0078   49.2405  -10.6753 C.ar    1  UNL1        0.0334
     15 C         -30.3033   48.1663   -9.8043 C.ar    1  UNL1        0.0026
     16 C         -30.7467   46.9386  -10.3029 C.ar    1  UNL1        0.0295
     17 C         -30.9230   46.7606  -11.6740 C.ar    1  UNL1        0.1424
     18 F         -31.3565   45.5689  -12.1537 F       1  UNL1       -0.2041
     19 C         -30.6682   47.8149  -12.5500 C.ar    1  UNL1        0.0590
     20 C         -30.2243   49.0480  -12.0622 C.ar    1  UNL1        0.1407
     21 F         -30.0337   50.0545  -12.9490 F       1  UNL1       -0.2043
     22 C         -23.7565   51.7484  -10.1585 C.ar    1  UNL1        0.0516
     23 C         -23.2486   52.4525  -11.2618 C.ar    1  UNL1        0.0156
     24 C         -21.9765   53.0302  -11.2097 C.ar    1  UNL1        0.0127
     25 C         -21.2044   52.9222  -10.0492 C.ar    1  UNL1        0.0578
     26 CL        -19.6103   53.6512   -9.9835 Cl      1  UNL1       -0.0822
     27 C         -21.7089   52.2405   -8.9376 C.ar    1  UNL1        0.0127
     28 C         -22.9799   51.6602   -8.9873 C.ar    1  UNL1        0.0156
     29 O         -27.1419   52.7035   -7.1808 O.2     1  UNL1       -0.2729
     30 C         -28.0353   51.8356   -6.9928 C.2     1  UNL1        0.2455
     31 N         -28.9021   51.9700   -5.8577 N.am    1  UNL1       -0.2680
     32 H         -29.2462   52.9267   -5.6167 H       1  UNL1        0.1563
     33 C         -29.2466   50.8824   -4.9924 C.ar    1  UNL1        0.1346
     34 C         -30.5165   50.8294   -4.4067 C.ar    1  UNL1        0.0406
     35 C         -30.8399   49.7653   -3.5640 C.ar    1  UNL1        0.0736
     36 C         -29.8877   48.7736   -3.2871 C.ar    1  UNL1        0.2466
     37 C         -28.6172   48.8808   -3.8718 C.ar    1  UNL1        0.1691
     38 N         -28.3311   49.9185   -4.7018 N.ar    1  UNL1       -0.2228
     39 N         -30.2144   47.6509   -2.4439 N.am    1  UNL1       -0.0841
     40 C         -31.0846   46.7047   -2.9151 C.2     1  UNL1        0.2905
     41 C         -31.4379   45.6068   -2.1285 C.2     1  UNL1        0.0758
     42 C         -30.8954   45.4762   -0.8526 C.2     1  UNL1        0.0161
     43 C         -30.0058   46.4377   -0.3783 C.2     1  UNL1        0.1156
     44 C         -29.6673   47.5261   -1.1899 C.2     1  UNL1        0.4230
     45 O         -28.8432   48.3784   -0.7577 O.2     1  UNL1       -0.2135
@<TRIPOS>BOND
     1    29    30    2
     2    30    31   am
     3    31    33    1
     4    33    34   ar
     5    34    35   ar
     6    35    36   ar
     7    36    39    1
     8    39    40    1
     9    40    41    2
    10    41    42    1
    11    42    43    2
    12    43    44    1
    13    44    45    2
    14    36    37   ar
    15    37    38   ar
    16    30     1    1
    17     1     2    1
    18     2     3    1
    19     3     4    1
    20     3    14    1
    21    14    15   ar
    22    15    16   ar
    23    16    17   ar
    24    17    18    1
    25    17    19   ar
    26    19    20   ar
    27    20    21    1
    28     3     5    1
    29     5     6    1
    30     5     7    1
    31     7     8   am
    32     8     9    2
    33     8    10   am
    34    10    22    1
    35    22    23   ar
    36    23    24   ar
    37    24    25   ar
    38    25    26    1
    39    25    27   ar
    40    27    28   ar
    41    38    33   ar
    42     7     1    1
    43    28    22   ar
    44    44    39    1
    45    20    14   ar
    46    31    32    1
    47     4    11    1
    48     6    12    1
    49    10    13    1
@<TRIPOS>MOLECULE
*****
 45 49 0 0 0
SMALL
GASTEIGER

@<TRIPOS>ATOM
      1 C         -30.1189   49.4707   -7.5587 C.3     1  UNL1        0.1584
      2 C         -29.2730   49.6022   -8.8276 C.3     1  UNL1        0.0647
      3 C         -28.5737   48.2334   -9.0604 C.3     1  UNL1        0.1537
      4 O         -27.1796   48.4419   -9.1509 O.3     1  UNL1       -0.3784
      5 C         -28.8869   47.3815   -7.7984 C.3     1  UNL1        0.2215
      6 O         -27.7248   47.0823   -7.0675 O.3     1  UNL1       -0.3650
      7 N         -29.7841   48.1786   -6.9725 N.am    1  UNL1       -0.2328
      8 C         -30.4429   47.6625   -5.7978 C.2     1  UNL1        0.3097
      9 O         -31.4047   48.3030   -5.2919 O.2     1  UNL1       -0.2522
     10 N         -30.0242   46.4221   -5.2045 N.am    1  UNL1       -0.2681
     11 H         -27.0136   49.0926   -9.8835 H       1  UNL1        0.2108
     12 H         -27.2786   46.3309   -7.5386 H       1  UNL1        0.2123
     13 H         -29.5967   45.6940   -5.8182 H       1  UNL1        0.1564
     14 C         -29.0958   47.5210  -10.3244 C.ar    1  UNL1        0.0334
     15 C         -30.0591   48.1370  -11.1565 C.ar    1  UNL1        0.0026
     16 C         -30.5192   47.5031  -12.3137 C.ar    1  UNL1        0.0295
     17 C         -30.0176   46.2542  -12.6761 C.ar    1  UNL1        0.1424
     18 F         -30.4642   45.6437  -13.8013 F       1  UNL1       -0.2041
     19 C         -29.0443   45.6410  -11.8884 C.ar    1  UNL1        0.0590
     20 C         -28.5763   46.2662  -10.7283 C.ar    1  UNL1        0.1407
     21 F         -27.5982   45.6507  -10.0211 F       1  UNL1       -0.2043
     22 C         -30.2208   46.0948   -3.8178 C.ar    1  UNL1        0.0516
     23 C         -29.5320   46.8224   -2.8343 C.ar    1  UNL1        0.0156
     24 C         -29.7279   46.5432   -1.4784 C.ar    1  UNL1        0.0127
     25 C         -30.6249   45.5432   -1.0910 C.ar    1  UNL1        0.0578
     26 CL        -30.8731   45.1969    0.6106 Cl      1  UNL1       -0.0822
     27 C         -31.3310   44.8263   -2.0617 C.ar    1  UNL1        0.0127
     28 C         -31.1360   45.1020   -3.4184 C.ar    1  UNL1        0.0156
     29 O         -30.9194   51.2461   -6.1729 O.2     1  UNL1       -0.2729
     30 C         -29.9093   50.6243   -6.5970 C.2     1  UNL1        0.2455
     31 N         -28.6156   50.9774   -6.0874 N.am    1  UNL1       -0.2680
     32 H         -28.5327   51.1839   -5.0665 H       1  UNL1        0.1563
     33 C         -27.4589   51.1457   -6.9143 C.ar    1  UNL1        0.1346
     34 C         -27.4202   52.1744   -7.8624 C.ar    1  UNL1        0.0406
     35 C         -26.2880   52.3275   -8.6635 C.ar    1  UNL1        0.0736
     36 C         -25.2110   51.4383   -8.5353 C.ar    1  UNL1        0.2466
     37 C         -25.3033   50.4035   -7.5929 C.ar    1  UNL1        0.1691
     38 N         -26.4102   50.2846   -6.8131 N.ar    1  UNL1       -0.2228
     39 N         -24.0208   51.6001   -9.3325 N.am    1  UNL1       -0.0841
     40 C         -22.8354   51.8637   -8.7002 C.2     1  UNL1        0.2905
     41 C         -21.6603   52.0387   -9.4333 C.2     1  UNL1        0.0758
     42 C         -21.6991   51.9415  -10.8219 C.2     1  UNL1        0.0161
     43 C         -22.9059   51.6676  -11.4619 C.2     1  UNL1        0.1156
     44 C         -24.0675   51.4937  -10.7015 C.2     1  UNL1        0.4230
     45 O         -25.1499   51.2238  -11.2912 O.2     1  UNL1       -0.2135
@<TRIPOS>BOND
     1    29    30    2
     2    30    31   am
     3    31    33    1
     4    33    34   ar
     5    34    35   ar
     6    35    36   ar
     7    36    39    1
     8    39    40    1
     9    40    41    2
    10    41    42    1
    11    42    43    2
    12    43    44    1
    13    44    45    2
    14    36    37   ar
    15    37    38   ar
    16    30     1    1
    17     1     2    1
    18     2     3    1
    19     3     4    1
    20     3    14    1
    21    14    15   ar
    22    15    16   ar
    23    16    17   ar
    24    17    18    1
    25    17    19   ar
    26    19    20   ar
    27    20    21    1
    28     3     5    1
    29     5     6    1
    30     5     7    1
    31     7     8   am
    32     8     9    2
    33     8    10   am
    34    10    22    1
    35    22    23   ar
    36    23    24   ar
    37    24    25   ar
    38    25    26    1
    39    25    27   ar
    40    27    28   ar
    41    38    33   ar
    42     7     1    1
    43    28    22   ar
    44    44    39    1
    45    20    14   ar
    46    31    32    1
    47     4    11    1
    48     6    12    1
    49    10    13    1
@<TRIPOS>MOLECULE
*****
 45 49 0 0 0
SMALL
GASTEIGER

@<TRIPOS>ATOM
      1 C         -28.8504   50.2512   -9.2934 C.3     1  UNL1        0.1584
      2 C         -28.1488   51.5753   -9.6060 C.3     1  UNL1        0.0647
      3 C         -26.9543   51.7090   -8.6202 C.3     1  UNL1        0.1537
      4 O         -27.0704   52.9328   -7.9246 O.3     1  UNL1       -0.3784
      5 C         -27.1025   50.5300   -7.6179 C.3     1  UNL1        0.2215
      6 O         -27.3509   50.9824   -6.3111 O.3     1  UNL1       -0.3650
      7 N         -28.2346   49.7360   -8.0766 N.am    1  UNL1       -0.2328
      8 C         -28.5819   48.4558   -7.5102 C.2     1  UNL1        0.3097
      9 O         -29.3884   47.7030   -8.1219 O.2     1  UNL1       -0.2522
     10 N         -28.0112   48.0234   -6.2639 N.am    1  UNL1       -0.2681
     11 H         -27.1043   53.6651   -8.5956 H       1  UNL1        0.2108
     12 H         -26.4763   51.2689   -5.9387 H       1  UNL1        0.2123
     13 H         -27.0632   48.3722   -6.0008 H       1  UNL1        0.1564
     14 C         -25.5935   51.6250   -9.3406 C.ar    1  UNL1        0.0334
     15 C         -24.3835   51.6946   -8.6120 C.ar    1  UNL1        0.0026
     16 C         -23.1488   51.5983   -9.2593 C.ar    1  UNL1        0.0295
     17 C         -23.0929   51.4122  -10.6394 C.ar    1  UNL1        0.1424
     18 F         -21.8931   51.3160  -11.2634 F       1  UNL1       -0.2041
     19 C         -24.2728   51.3091  -11.3750 C.ar    1  UNL1        0.0590
     20 C         -25.5140   51.4038  -10.7378 C.ar    1  UNL1        0.1407
     21 F         -26.6311   51.2525  -11.4894 F       1  UNL1       -0.2043
     22 C         -28.6437   47.0797   -5.3818 C.ar    1  UNL1        0.0516
     23 C         -29.7132   47.5008   -4.5756 C.ar    1  UNL1        0.0156
     24 C         -30.3638   46.5960   -3.7314 C.ar    1  UNL1        0.0127
     25 C         -29.9612   45.2577   -3.6945 C.ar    1  UNL1        0.0578
     26 CL        -30.7811   44.1224   -2.6380 Cl      1  UNL1       -0.0822
     27 C         -28.9104   44.8234   -4.5081 C.ar    1  UNL1        0.0127
     28 C         -28.2568   45.7262   -5.3522 C.ar    1  UNL1        0.0156
     29 O         -30.8671   50.4185   -8.0213 O.2     1  UNL1       -0.2729
     30 C         -30.3542   50.4034   -9.1718 C.2     1  UNL1        0.2455
     31 N         -31.2017   50.6162  -10.3096 N.am    1  UNL1       -0.2680
     32 H         -31.9445   51.3473  -10.2351 H       1  UNL1        0.1563
     33 C         -31.1397   49.8245  -11.5010 C.ar    1  UNL1        0.1346
     34 C         -30.6603   50.3857  -12.6900 C.ar    1  UNL1        0.0406
     35 C         -30.6062   49.6046  -13.8449 C.ar    1  UNL1        0.0736
     36 C         -31.0555   48.2763  -13.8167 C.ar    1  UNL1        0.2466
     37 C         -31.5557   47.7624  -12.6113 C.ar    1  UNL1        0.1691
     38 N         -31.5837   48.5383  -11.4955 N.ar    1  UNL1       -0.2228
     39 N         -30.9780   47.4454  -14.9921 N.am    1  UNL1       -0.0841
     40 C         -31.4361   47.9437  -16.1823 C.2     1  UNL1        0.2905
     41 C         -31.3907   47.1700  -17.3434 C.2     1  UNL1        0.0758
     42 C         -30.8716   45.8791  -17.2858 C.2     1  UNL1        0.0161
     43 C         -30.4010   45.3770  -16.0744 C.2     1  UNL1        0.1156
     44 C         -30.4560   46.1762  -14.9270 C.2     1  UNL1        0.4230
     45 O         -30.0061   45.7184  -13.8407 O.2     1  UNL1       -0.2135
@<TRIPOS>BOND
     1    29    30    2
     2    30    31   am
     3    31    33    1
     4    33    34   ar
     5    34    35   ar
     6    35    36   ar
     7    36    39    1
     8    39    40    1
     9    40    41    2
    10    41    42    1
    11    42    43    2
    12    43    44    1
    13    44    45    2
    14    36    37   ar
    15    37    38   ar
    16    30     1    1
    17     1     2    1
    18     2     3    1
    19     3     4    1
    20     3    14    1
    21    14    15   ar
    22    15    16   ar
    23    16    17   ar
    24    17    18    1
    25    17    19   ar
    26    19    20   ar
    27    20    21    1
    28     3     5    1
    29     5     6    1
    30     5     7    1
    31     7     8   am
    32     8     9    2
    33     8    10   am
    34    10    22    1
    35    22    23   ar
    36    23    24   ar
    37    24    25   ar
    38    25    26    1
    39    25    27   ar
    40    27    28   ar
    41    38    33   ar
    42     7     1    1
    43    28    22   ar
    44    44    39    1
    45    20    14   ar
    46    31    32    1
    47     4    11    1
    48     6    12    1
    49    10    13    1
@<TRIPOS>MOLECULE
*****
 45 49 0 0 0
SMALL
GASTEIGER

@<TRIPOS>ATOM
      1 C         -28.8121   49.8397   -9.1118 C.3     1  UNL1        0.1584
      2 C         -28.2992   50.9484  -10.0341 C.3     1  UNL1        0.0647
      3 C         -27.2939   51.8040   -9.2131 C.3     1  UNL1        0.1537
      4 O         -27.7054   53.1546   -9.2512 O.3     1  UNL1       -0.3784
      5 C         -27.3877   51.2772   -7.7536 C.3     1  UNL1        0.2215
      6 O         -27.8887   52.2536   -6.8762 O.3     1  UNL1       -0.3650
      7 N         -28.2986   50.1406   -7.7810 N.am    1  UNL1       -0.2328
      8 C         -28.5086   49.2700   -6.6503 C.2     1  UNL1        0.3097
      9 O         -29.0867   48.1614   -6.8176 O.2     1  UNL1       -0.2522
     10 N         -28.0569   49.6457   -5.3385 N.am    1  UNL1       -0.2681
     11 H         -27.7634   53.4310  -10.2041 H       1  UNL1        0.2108
     12 H         -27.1342   52.8655   -6.6714 H       1  UNL1        0.2123
     13 H         -27.2254   50.2714   -5.2567 H       1  UNL1        0.1564
     14 C         -25.8497   51.6652   -9.7355 C.ar    1  UNL1        0.0334
     15 C         -24.7501   51.7302   -8.8487 C.ar    1  UNL1        0.0026
     16 C         -23.4412   51.5844   -9.3158 C.ar    1  UNL1        0.0295
     17 C         -23.2010   51.3526  -10.6690 C.ar    1  UNL1        0.1424
     18 F         -21.9298   51.2084  -11.1179 F       1  UNL1       -0.2041
     19 C         -24.2707   51.2531  -11.5575 C.ar    1  UNL1        0.0590
     20 C         -25.5847   51.3972  -11.1013 C.ar    1  UNL1        0.1407
     21 F         -26.5915   51.2477  -11.9956 F       1  UNL1       -0.2043
     22 C         -28.6450   49.1544   -4.1214 C.ar    1  UNL1        0.0516
     23 C         -27.8393   48.4781   -3.1916 C.ar    1  UNL1        0.0156
     24 C         -28.3805   48.0165   -1.9879 C.ar    1  UNL1        0.0127
     25 C         -29.7294   48.2385   -1.6949 C.ar    1  UNL1        0.0578
     26 CL        -30.4061   47.6627   -0.1824 Cl      1  UNL1       -0.0822
     27 C         -30.5357   48.9286   -2.6050 C.ar    1  UNL1        0.0127
     28 C         -29.9979   49.3899   -3.8102 C.ar    1  UNL1        0.0156
     29 O         -30.9141   49.3098   -8.1047 O.2     1  UNL1       -0.2729
     30 C         -30.3225   49.7085   -9.1430 C.2     1  UNL1        0.2455
     31 N         -31.1068   50.1016  -10.2779 N.am    1  UNL1       -0.2680
     32 H         -31.9776   50.6520  -10.1027 H       1  UNL1        0.1563
     33 C         -30.8074   49.7067  -11.6213 C.ar    1  UNL1        0.1346
     34 C         -30.4528   48.3816  -11.8986 C.ar    1  UNL1        0.0406
     35 C         -30.1617   48.0092  -13.2114 C.ar    1  UNL1        0.0736
     36 C         -30.1984   48.9646  -14.2375 C.ar    1  UNL1        0.2466
     37 C         -30.5300   50.2878  -13.9111 C.ar    1  UNL1        0.1691
     38 N         -30.8249   50.6228  -12.6272 N.ar    1  UNL1       -0.2228
     39 N         -29.9311   48.5913  -15.6040 N.am    1  UNL1       -0.0841
     40 C         -30.6530   47.5698  -16.1610 C.2     1  UNL1        0.2905
     41 C         -30.4198   47.1677  -17.4773 C.2     1  UNL1        0.0758
     42 C         -29.4430   47.8165  -18.2283 C.2     1  UNL1        0.0161
     43 C         -28.7142   48.8593  -17.6606 C.2     1  UNL1        0.1156
     44 C         -28.9714   49.2433  -16.3398 C.2     1  UNL1        0.4230
     45 O         -28.3203   50.2038  -15.8443 O.2     1  UNL1       -0.2135
@<TRIPOS>BOND
     1    29    30    2
     2    30    31   am
     3    31    33    1
     4    33    34   ar
     5    34    35   ar
     6    35    36   ar
     7    36    39    1
     8    39    40    1
     9    40    41    2
    10    41    42    1
    11    42    43    2
    12    43    44    1
    13    44    45    2
    14    36    37   ar
    15    37    38   ar
    16    30     1    1
    17     1     2    1
    18     2     3    1
    19     3     4    1
    20     3    14    1
    21    14    15   ar
    22    15    16   ar
    23    16    17   ar
    24    17    18    1
    25    17    19   ar
    26    19    20   ar
    27    20    21    1
    28     3     5    1
    29     5     6    1
    30     5     7    1
    31     7     8   am
    32     8     9    2
    33     8    10   am
    34    10    22    1
    35    22    23   ar
    36    23    24   ar
    37    24    25   ar
    38    25    26    1
    39    25    27   ar
    40    27    28   ar
    41    38    33   ar
    42     7     1    1
    43    28    22   ar
    44    44    39    1
    45    20    14   ar
    46    31    32    1
    47     4    11    1
    48     6    12    1
    49    10    13    1
@<TRIPOS>MOLECULE
*****
 45 49 0 0 0
SMALL
GASTEIGER

@<TRIPOS>ATOM
      1 C         -28.0602   50.4548   -7.9526 C.3     1  UNL1        0.1584
      2 C         -29.5026   50.4585   -8.4650 C.3     1  UNL1        0.0647
      3 C         -29.4422   50.5833  -10.0133 C.3     1  UNL1        0.1537
      4 O         -30.2138   51.6970  -10.4126 O.3     1  UNL1       -0.3784
      5 C         -27.9482   50.8412  -10.3563 C.3     1  UNL1        0.2215
      6 O         -27.7538   52.1109  -10.9259 O.3     1  UNL1       -0.3650
      7 N         -27.2145   50.7588   -9.1004 N.am    1  UNL1       -0.2328
      8 C         -25.7741   50.7665   -9.0258 C.2     1  UNL1        0.3097
      9 O         -25.2047   50.4197   -7.9550 O.2     1  UNL1       -0.2522
     10 N         -24.9806   51.1534  -10.1602 N.am    1  UNL1       -0.2681
     11 H         -31.1375   51.5696  -10.0687 H       1  UNL1        0.2108
     12 H         -28.0232   52.0389  -11.8787 H       1  UNL1        0.2123
     13 H         -25.3654   50.9925  -11.1171 H       1  UNL1        0.1564
     14 C         -29.9355   49.3043  -10.7196 C.ar    1  UNL1        0.0334
     15 C         -30.1168   48.1025   -9.9967 C.ar    1  UNL1        0.0026
     16 C         -30.5832   46.9472  -10.6294 C.ar    1  UNL1        0.0295
     17 C         -30.8960   46.9687  -11.9875 C.ar    1  UNL1        0.1424
     18 F         -31.3514   45.8465  -12.5971 F       1  UNL1       -0.2041
     19 C         -30.7554   48.1501  -12.7143 C.ar    1  UNL1        0.0590
     20 C         -30.2897   49.3124  -12.0915 C.ar    1  UNL1        0.1407
     21 F         -30.2130   50.4458  -12.8298 F       1  UNL1       -0.2043
     22 C         -23.6508   51.6914  -10.0571 C.ar    1  UNL1        0.0516
     23 C         -23.0159   51.7229   -8.8053 C.ar    1  UNL1        0.0156
     24 C         -21.7126   52.2140   -8.6835 C.ar    1  UNL1        0.0127
     25 C         -21.0250   52.6657   -9.8140 C.ar    1  UNL1        0.0578
     26 CL        -19.3882   53.2775   -9.6605 Cl      1  UNL1       -0.0822
     27 C         -21.6406   52.6200  -11.0684 C.ar    1  UNL1        0.0127
     28 C         -22.9445   52.1310  -11.1932 C.ar    1  UNL1        0.0156
     29 O         -26.9211   52.2613   -6.8790 O.2     1  UNL1       -0.2729
     30 C         -27.8501   51.4144   -6.7974 C.2     1  UNL1        0.2455
     31 N         -28.7202   51.4503   -5.6574 N.am    1  UNL1       -0.2680
     32 H         -29.0277   52.3855   -5.3071 H       1  UNL1        0.1563
     33 C         -29.1152   50.2839   -4.9270 C.ar    1  UNL1        0.1346
     34 C         -28.1481   49.4895   -4.3007 C.ar    1  UNL1        0.0406
     35 C         -28.5452   48.3544   -3.5931 C.ar    1  UNL1        0.0736
     36 C         -29.9012   48.0006   -3.5357 C.ar    1  UNL1        0.2466
     37 C         -30.8344   48.8083   -4.2022 C.ar    1  UNL1        0.1691
     38 N         -30.4247   49.9180   -4.8718 N.ar    1  UNL1       -0.2228
     39 N         -30.3328   46.8491   -2.7835 N.am    1  UNL1       -0.0841
     40 C         -30.7720   47.0283   -1.4991 C.2     1  UNL1        0.2905
     41 C         -31.1888   45.9401   -0.7303 C.2     1  UNL1        0.0758
     42 C         -31.1574   44.6613   -1.2805 C.2     1  UNL1        0.0161
     43 C         -30.7153   44.4831   -2.5896 C.2     1  UNL1        0.1156
     44 C         -30.3064   45.5924   -3.3381 C.2     1  UNL1        0.4230
     45 O         -29.9295   45.4208   -4.5299 O.2     1  UNL1       -0.2135
@<TRIPOS>BOND
     1    29    30    2
     2    30    31   am
     3    31    33    1
     4    33    34   ar
     5    34    35   ar
     6    35    36   ar
     7    36    39    1
     8    39    40    1
     9    40    41    2
    10    41    42    1
    11    42    43    2
    12    43    44    1
    13    44    45    2
    14    36    37   ar
    15    37    38   ar
    16    30     1    1
    17     1     2    1
    18     2     3    1
    19     3     4    1
    20     3    14    1
    21    14    15   ar
    22    15    16   ar
    23    16    17   ar
    24    17    18    1
    25    17    19   ar
    26    19    20   ar
    27    20    21    1
    28     3     5    1
    29     5     6    1
    30     5     7    1
    31     7     8   am
    32     8     9    2
    33     8    10   am
    34    10    22    1
    35    22    23   ar
    36    23    24   ar
    37    24    25   ar
    38    25    26    1
    39    25    27   ar
    40    27    28   ar
    41    38    33   ar
    42     7     1    1
    43    28    22   ar
    44    44    39    1
    45    20    14   ar
    46    31    32    1
    47     4    11    1
    48     6    12    1
    49    10    13    1
@<TRIPOS>MOLECULE
*****
 45 49 0 0 0
SMALL
GASTEIGER

@<TRIPOS>ATOM
      1 C         -27.9687   47.2193   -7.5540 C.3     1  UNL1        0.1584
      2 C         -27.8444   47.8617   -8.9378 C.3     1  UNL1        0.0647
      3 C         -27.9842   49.3982   -8.7480 C.3     1  UNL1        0.1537
      4 O         -29.0257   49.8685   -9.5781 O.3     1  UNL1       -0.3784
      5 C         -28.3793   49.6035   -7.2586 C.3     1  UNL1        0.2215
      6 O         -29.6650   50.1553   -7.1297 O.3     1  UNL1       -0.3650
      7 N         -28.3558   48.2855   -6.6382 N.am    1  UNL1       -0.2328
      8 C         -28.4941   48.0793   -5.2174 C.2     1  UNL1        0.3097
      9 O         -28.1936   46.9602   -4.7189 O.2     1  UNL1       -0.2522
     10 N         -28.9589   49.1370   -4.3622 N.am    1  UNL1       -0.2681
     11 H         -28.8125   49.6104  -10.5139 H       1  UNL1        0.2108
     12 H         -29.5751   51.1286   -7.3031 H       1  UNL1        0.2123
     13 H         -28.7699   50.1249   -4.6417 H       1  UNL1        0.1564
     14 C         -26.6703   50.1443   -9.0560 C.ar    1  UNL1        0.0334
     15 C         -25.6214   50.1839   -8.1083 C.ar    1  UNL1        0.0026
     16 C         -24.4216   50.8417   -8.3921 C.ar    1  UNL1        0.0295
     17 C         -24.2339   51.4560   -9.6290 C.ar    1  UNL1        0.1424
     18 F         -23.0671   52.0904   -9.9018 F       1  UNL1       -0.2041
     19 C         -25.2415   51.4032  -10.5911 C.ar    1  UNL1        0.0590
     20 C         -26.4462   50.7477  -10.3182 C.ar    1  UNL1        0.1407
     21 F         -27.3765   50.6854  -11.3013 F       1  UNL1       -0.2043
     22 C         -29.6150   48.9137   -3.1020 C.ar    1  UNL1        0.0516
     23 C         -28.9176   48.2705   -2.0672 C.ar    1  UNL1        0.0156
     24 C         -29.5230   48.0676   -0.8234 C.ar    1  UNL1        0.0127
     25 C         -30.8270   48.5181   -0.5965 C.ar    1  UNL1        0.0578
     26 CL        -31.5839   48.2669    0.9658 Cl      1  UNL1       -0.0822
     27 C         -31.5232   49.1777   -1.6138 C.ar    1  UNL1        0.0127
     28 C         -30.9211   49.3805   -2.8593 C.ar    1  UNL1        0.0156
     29 O         -28.7093   45.0918   -6.7549 O.2     1  UNL1       -0.2729
     30 C         -28.9360   46.0516   -7.5387 C.2     1  UNL1        0.2455
     31 N         -30.1403   46.0384   -8.3180 N.am    1  UNL1       -0.2680
     32 H         -31.0181   45.7118   -7.8546 H       1  UNL1        0.1563
     33 C         -30.1841   46.3635   -9.7117 C.ar    1  UNL1        0.1346
     34 C         -31.1150   47.2958  -10.1839 C.ar    1  UNL1        0.0406
     35 C         -31.1491   47.6032  -11.5445 C.ar    1  UNL1        0.0736
     36 C         -30.2743   46.9602  -12.4324 C.ar    1  UNL1        0.2466
     37 C         -29.3772   46.0108  -11.9214 C.ar    1  UNL1        0.1691
     38 N         -29.3523   45.7398  -10.5896 N.ar    1  UNL1       -0.2228
     39 N         -30.2742   47.2880  -13.8362 N.am    1  UNL1       -0.0841
     40 C         -30.4690   46.2843  -14.7469 C.2     1  UNL1        0.2905
     41 C         -30.4656   46.5544  -16.1166 C.2     1  UNL1        0.0758
     42 C         -30.2633   47.8601  -16.5562 C.2     1  UNL1        0.0161
     43 C         -30.0710   48.8801  -15.6268 C.2     1  UNL1        0.1156
     44 C         -30.0825   48.5808  -14.2599 C.2     1  UNL1        0.4230
     45 O         -29.9297   49.5167  -13.4276 O.2     1  UNL1       -0.2135
@<TRIPOS>BOND
     1    29    30    2
     2    30    31   am
     3    31    33    1
     4    33    34   ar
     5    34    35   ar
     6    35    36   ar
     7    36    39    1
     8    39    40    1
     9    40    41    2
    10    41    42    1
    11    42    43    2
    12    43    44    1
    13    44    45    2
    14    36    37   ar
    15    37    38   ar
    16    30     1    1
    17     1     2    1
    18     2     3    1
    19     3     4    1
    20     3    14    1
    21    14    15   ar
    22    15    16   ar
    23    16    17   ar
    24    17    18    1
    25    17    19   ar
    26    19    20   ar
    27    20    21    1
    28     3     5    1
    29     5     6    1
    30     5     7    1
    31     7     8   am
    32     8     9    2
    33     8    10   am
    34    10    22    1
    35    22    23   ar
    36    23    24   ar
    37    24    25   ar
    38    25    26    1
    39    25    27   ar
    40    27    28   ar
    41    38    33   ar
    42     7     1    1
    43    28    22   ar
    44    44    39    1
    45    20    14   ar
    46    31    32    1
    47     4    11    1
    48     6    12    1
    49    10    13    1
