@<TRIPOS>MOLECULE
*****
 39 42 0 0 0
SMALL
GASTEIGER

@<TRIPOS>ATOM
      1 N          52.4831   10.6704  -24.0487 N.3     1  UNL1       -0.2921
      2 H          53.4506   10.4422  -23.7185 H       1  UNL1        0.1234
      3 C          52.0640    9.6066  -24.9733 C.3     1  UNL1        0.1166
      4 C          50.8711    8.8366  -24.4089 C.3     1  UNL1        0.2224
      5 O          49.7245    9.6832  -24.3724 O.3     1  UNL1       -0.4739
      6 C          47.2578   11.5181  -18.3465 C.3     1  UNL1        0.0540
      7 C          47.1080   11.5058  -19.8331 C.ar    1  UNL1        0.0803
      8 N          45.9857   11.9393  -20.4546 N.ar    1  UNL1       -0.1770
      9 N          46.1292   11.7462  -21.7579 N.ar    1  UNL1       -0.2759
     10 C          47.3298   11.1901  -21.9777 C.ar    1  UNL1        0.0782
     11 C          47.8504   10.7676  -23.1960 C.ar    1  UNL1        0.0554
     12 C          49.1204   10.1488  -23.1957 C.ar    1  UNL1        0.1403
     13 C          49.8198    9.9889  -21.9790 C.ar    1  UNL1        0.0435
     14 C          49.2835   10.4443  -20.7532 C.ar    1  UNL1        0.0811
     15 C          48.0034   11.0334  -20.7922 C.ar    1  UNL1        0.0387
     16 H          45.4042   11.9756  -22.4734 H       1  UNL1        0.1889
     17 C          50.0926   10.3125  -19.5276 C.2     1  UNL1        0.3382
     18 O          50.6966   11.3069  -19.0471 O.2     1  UNL1       -0.2451
     19 O          50.2540    9.0620  -18.9379 O.3     1  UNL1       -0.4771
     20 H          50.8275    8.9473  -18.1107 H       1  UNL1        0.2954
     21 C          52.5412   11.9767  -24.7192 C.3     1  UNL1        0.1029
     22 C          52.7854   13.0909  -23.6895 C.3     1  UNL1        0.1484
     23 O          53.7027   12.6604  -22.7153 O.3     1  UNL1       -0.3786
     24 H          54.6096   12.7457  -23.1105 H       1  UNL1        0.2108
     25 C          51.4843   13.4735  -23.0216 C.ar    1  UNL1        0.0069
     26 C          51.4419   13.7037  -21.6372 C.ar    1  UNL1       -0.0018
     27 C          50.2506   14.0971  -21.0245 C.ar    1  UNL1        0.0011
     28 C          49.0908   14.2659  -21.7840 C.ar    1  UNL1        0.0158
     29 C          49.1098   14.0337  -23.1691 C.ar    1  UNL1        0.0642
     30 C          50.3158   13.6602  -23.7826 C.ar    1  UNL1        0.0139
     31 N          47.9413   14.2296  -23.9814 N.pl3   1  UNL1       -0.2188
     32 H          47.2068   14.8901  -23.6413 H       1  UNL1        0.1734
     33 S          47.8271   13.7569  -25.6490 S.O2    1  UNL1        0.0522
     34 O          48.3998   14.8556  -26.4990 O.2     1  UNL1       -0.1545
     35 O          48.6094   12.4989  -25.9073 O.2     1  UNL1       -0.1545
     36 C          46.1026   13.5245  -26.0845 C.3     1  UNL1        0.1488
     37 C          45.1320   13.8380  -24.9507 C.3     1  UNL1        0.0255
     38 C          44.6972   12.3790  -24.9232 C.3     1  UNL1        0.0036
     39 C          45.6662   12.0631  -26.0543 C.3     1  UNL1        0.0255
@<TRIPOS>BOND
     1     6     7    1
     2     7     8   ar
     3     8     9   ar
     4     9    10   ar
     5    10    11   ar
     6    11    12   ar
     7    12     5    1
     8     5     4    1
     9     4     3    1
    10     3     1    1
    11     1    21    1
    12    21    22    1
    13    22    23    1
    14    22    25    1
    15    25    26   ar
    16    26    27   ar
    17    27    28   ar
    18    28    29   ar
    19    29    31    1
    20    31    33    1
    21    33    34    2
    22    33    35    2
    23    33    36    1
    24    36    37    1
    25    37    38    1
    26    38    39    1
    27    29    30   ar
    28    12    13   ar
    29    13    14   ar
    30    14    17    1
    31    17    18    2
    32    17    19    1
    33    14    15   ar
    34    15     7   ar
    35    15    10   ar
    36    30    25   ar
    37    39    36    1
    38     9    16    1
    39     1     2    1
    40    23    24    1
    41    31    32    1
    42    19    20    1
@<TRIPOS>MOLECULE
*****
 39 42 0 0 0
SMALL
GASTEIGER

@<TRIPOS>ATOM
      1 N          53.4940   12.3898  -22.9294 N.3     1  UNL1       -0.2921
      2 H          54.4845   12.1602  -22.6781 H       1  UNL1        0.1234
      3 C          53.3445   12.1965  -24.3794 C.3     1  UNL1        0.1166
      4 C          52.4027   11.0307  -24.6767 C.3     1  UNL1        0.2224
      5 O          51.3483   11.0061  -23.7173 O.3     1  UNL1       -0.4739
      6 C          44.8152   12.6211  -24.4047 C.3     1  UNL1        0.0540
      7 C          46.1944   12.6239  -24.9793 C.ar    1  UNL1        0.0803
      8 N          46.4513   13.0092  -26.2518 N.ar    1  UNL1       -0.1770
      9 N          47.7454   12.8435  -26.4850 N.ar    1  UNL1       -0.2759
     10 C          48.3196   12.3526  -25.3767 C.ar    1  UNL1        0.0782
     11 C          49.6484   11.9758  -25.2146 C.ar    1  UNL1        0.0554
     12 C          50.0340   11.4224  -23.9733 C.ar    1  UNL1        0.1403
     13 C          49.0772   11.2796  -22.9441 C.ar    1  UNL1        0.0435
     14 C          47.7358   11.6884  -23.1206 C.ar    1  UNL1        0.0811
     15 C          47.3852   12.2122  -24.3814 C.ar    1  UNL1        0.0387
     16 H          48.2133   13.0467  -27.3961 H       1  UNL1        0.1889
     17 C          46.8014   11.5792  -21.9851 C.2     1  UNL1        0.3382
     18 O          46.4359   12.6049  -21.3536 O.2     1  UNL1       -0.2451
     19 O          46.3783   10.3240  -21.5573 O.3     1  UNL1       -0.4771
     20 H          45.7574   10.2275  -20.7627 H       1  UNL1        0.2954
     21 C          53.2522   13.7869  -22.5432 C.3     1  UNL1        0.1029
     22 C          51.9996   13.8833  -21.6584 C.3     1  UNL1        0.1484
     23 O          51.6123   12.6043  -21.2225 O.3     1  UNL1       -0.3786
     24 H          52.2034   12.3639  -20.4617 H       1  UNL1        0.2108
     25 C          50.8658   14.5160  -22.4326 C.ar    1  UNL1        0.0069
     26 C          49.5973   14.6492  -21.8454 C.ar    1  UNL1       -0.0018
     27 C          48.5596   15.2701  -22.5432 C.ar    1  UNL1        0.0011
     28 C          48.7748   15.7650  -23.8313 C.ar    1  UNL1        0.0158
     29 C          50.0341   15.6355  -24.4398 C.ar    1  UNL1        0.0642
     30 C          51.0793   15.0304  -23.7246 C.ar    1  UNL1        0.0139
     31 N          50.2946   16.1626  -25.7505 N.pl3   1  UNL1       -0.2188
     32 H          49.9870   15.6049  -26.5786 H       1  UNL1        0.1734
     33 S          50.7303   17.8146  -26.0641 S.O2    1  UNL1        0.0522
     34 O          51.2187   18.4327  -24.7848 O.2     1  UNL1       -0.1545
     35 O          51.8329   17.8968  -27.0834 O.2     1  UNL1       -0.1545
     36 C          49.2847   18.7139  -26.6290 C.3     1  UNL1        0.1488
     37 C          48.4941   19.3789  -25.5072 C.3     1  UNL1        0.0255
     38 C          47.3067   18.4759  -25.8125 C.3     1  UNL1        0.0036
     39 C          48.0942   17.8096  -26.9322 C.3     1  UNL1        0.0255
@<TRIPOS>BOND
     1     6     7    1
     2     7     8   ar
     3     8     9   ar
     4     9    10   ar
     5    10    11   ar
     6    11    12   ar
     7    12     5    1
     8     5     4    1
     9     4     3    1
    10     3     1    1
    11     1    21    1
    12    21    22    1
    13    22    23    1
    14    22    25    1
    15    25    26   ar
    16    26    27   ar
    17    27    28   ar
    18    28    29   ar
    19    29    31    1
    20    31    33    1
    21    33    34    2
    22    33    35    2
    23    33    36    1
    24    36    37    1
    25    37    38    1
    26    38    39    1
    27    29    30   ar
    28    12    13   ar
    29    13    14   ar
    30    14    17    1
    31    17    18    2
    32    17    19    1
    33    14    15   ar
    34    15     7   ar
    35    15    10   ar
    36    30    25   ar
    37    39    36    1
    38     9    16    1
    39     1     2    1
    40    23    24    1
    41    31    32    1
    42    19    20    1
@<TRIPOS>MOLECULE
*****
 39 42 0 0 0
SMALL
GASTEIGER

@<TRIPOS>ATOM
      1 N          52.4684   10.5303  -23.9576 N.3     1  UNL1       -0.2921
      2 H          53.4623   10.2500  -23.7823 H       1  UNL1        0.1234
      3 C          51.8273    9.4494  -24.7210 C.3     1  UNL1        0.1166
      4 C          50.3599    9.7754  -24.9945 C.3     1  UNL1        0.2224
      5 O          49.5323    9.1062  -24.0458 O.3     1  UNL1       -0.4739
      6 C          47.6103   12.0115  -18.2468 C.3     1  UNL1        0.0540
      7 C          48.5247   11.0653  -18.9546 C.ar    1  UNL1        0.0803
      8 N          49.5817   10.4805  -18.3426 N.ar    1  UNL1       -0.1770
      9 N          50.2315    9.7511  -19.2382 N.ar    1  UNL1       -0.2759
     10 C          49.6044    9.8653  -20.4183 C.ar    1  UNL1        0.0782
     11 C          49.9934    9.3134  -21.6340 C.ar    1  UNL1        0.0554
     12 C          49.2160    9.6095  -22.7758 C.ar    1  UNL1        0.1403
     13 C          48.0772   10.4358  -22.6510 C.ar    1  UNL1        0.0435
     14 C          47.6854   10.9701  -21.4026 C.ar    1  UNL1        0.0811
     15 C          48.5013   10.6720  -20.2924 C.ar    1  UNL1        0.0387
     16 H          51.0991    9.2051  -19.0396 H       1  UNL1        0.1889
     17 C          46.4472   11.7671  -21.3245 C.2     1  UNL1        0.3382
     18 O          46.3359   12.8447  -21.9656 O.2     1  UNL1       -0.2451
     19 O          45.4201   11.3658  -20.4751 O.3     1  UNL1       -0.4771
     20 H          44.5729   11.9143  -20.3882 H       1  UNL1        0.2954
     21 C          52.4910   11.7879  -24.7173 C.3     1  UNL1        0.1029
     22 C          52.7618   12.9716  -23.7755 C.3     1  UNL1        0.1484
     23 O          53.7210   12.6165  -22.8114 O.3     1  UNL1       -0.3786
     24 H          54.6109   12.6830  -23.2468 H       1  UNL1        0.2108
     25 C          51.4831   13.3869  -23.0843 C.ar    1  UNL1        0.0069
     26 C          51.4994   13.7522  -21.7287 C.ar    1  UNL1       -0.0018
     27 C          50.3274   14.1753  -21.0989 C.ar    1  UNL1        0.0011
     28 C          49.1286   14.2397  -21.8124 C.ar    1  UNL1        0.0158
     29 C          49.0889   13.8717  -23.1674 C.ar    1  UNL1        0.0642
     30 C          50.2750   13.4686  -23.8007 C.ar    1  UNL1        0.0139
     31 N          47.8782   13.9576  -23.9357 N.pl3   1  UNL1       -0.2188
     32 H          47.0919   14.5327  -23.5583 H       1  UNL1        0.1734
     33 S          47.7541   13.5015  -25.6073 S.O2    1  UNL1        0.0522
     34 O          48.4057   14.5657  -26.4441 O.2     1  UNL1       -0.1545
     35 O          48.4576   12.1975  -25.8637 O.2     1  UNL1       -0.1545
     36 C          46.0235   13.3818  -26.0640 C.3     1  UNL1        0.1488
     37 C          45.0623   13.7993  -24.9561 C.3     1  UNL1        0.0255
     38 C          44.5218   12.3772  -24.8930 C.3     1  UNL1        0.0036
     39 C          45.4813   11.9575  -25.9982 C.3     1  UNL1        0.0255
@<TRIPOS>BOND
     1     6     7    1
     2     7     8   ar
     3     8     9   ar
     4     9    10   ar
     5    10    11   ar
     6    11    12   ar
     7    12     5    1
     8     5     4    1
     9     4     3    1
    10     3     1    1
    11     1    21    1
    12    21    22    1
    13    22    23    1
    14    22    25    1
    15    25    26   ar
    16    26    27   ar
    17    27    28   ar
    18    28    29   ar
    19    29    31    1
    20    31    33    1
    21    33    34    2
    22    33    35    2
    23    33    36    1
    24    36    37    1
    25    37    38    1
    26    38    39    1
    27    29    30   ar
    28    12    13   ar
    29    13    14   ar
    30    14    17    1
    31    17    18    2
    32    17    19    1
    33    14    15   ar
    34    15     7   ar
    35    15    10   ar
    36    30    25   ar
    37    39    36    1
    38     9    16    1
    39     1     2    1
    40    23    24    1
    41    31    32    1
    42    19    20    1
@<TRIPOS>MOLECULE
*****
 39 42 0 0 0
SMALL
GASTEIGER

@<TRIPOS>ATOM
      1 N          52.6710   11.0136  -24.0636 N.3     1  UNL1       -0.2921
      2 H          53.7164   11.0739  -24.0877 H       1  UNL1        0.1234
      3 C          52.2655    9.9216  -24.9610 C.3     1  UNL1        0.1166
      4 C          51.1889    9.0555  -24.3089 C.3     1  UNL1        0.2224
      5 O          49.9240    9.7067  -24.4027 O.3     1  UNL1       -0.4739
      6 C          47.0149   11.9853  -18.7364 C.3     1  UNL1        0.0540
      7 C          46.9755   11.8562  -20.2244 C.ar    1  UNL1        0.0803
      8 N          45.9013   12.2313  -20.9587 N.ar    1  UNL1       -0.1770
      9 N          46.1411   11.9385  -22.2288 N.ar    1  UNL1       -0.2759
     10 C          47.3558   11.3765  -22.3156 C.ar    1  UNL1        0.0782
     11 C          47.9659   10.8646  -23.4556 C.ar    1  UNL1        0.0554
     12 C          49.2336   10.2576  -23.3137 C.ar    1  UNL1        0.1403
     13 C          49.8416   10.1983  -22.0401 C.ar    1  UNL1        0.0435
     14 C          49.2151   10.7435  -20.8964 C.ar    1  UNL1        0.0811
     15 C          47.9403   11.3176  -21.0753 C.ar    1  UNL1        0.0387
     16 H          45.4704   12.1059  -23.0115 H       1  UNL1        0.1889
     17 C          49.9318   10.7138  -19.6081 C.2     1  UNL1        0.3382
     18 O          50.5622   11.7243  -19.2007 O.2     1  UNL1       -0.2451
     19 O          49.9772    9.5343  -18.8702 O.3     1  UNL1       -0.4771
     20 H          50.4865    9.4872  -17.9958 H       1  UNL1        0.2954
     21 C          52.1428   12.3082  -24.5154 C.3     1  UNL1        0.1029
     22 C          52.1395   13.3142  -23.3538 C.3     1  UNL1        0.1484
     23 O          52.6022   12.7001  -22.1772 O.3     1  UNL1       -0.3786
     24 H          53.5933   12.6756  -22.2310 H       1  UNL1        0.2108
     25 C          50.7409   13.8423  -23.1296 C.ar    1  UNL1        0.0069
     26 C          50.3148   14.1871  -21.8369 C.ar    1  UNL1       -0.0018
     27 C          49.0378   14.7135  -21.6330 C.ar    1  UNL1        0.0011
     28 C          48.1734   14.9025  -22.7135 C.ar    1  UNL1        0.0158
     29 C          48.5773   14.5573  -24.0138 C.ar    1  UNL1        0.0642
     30 C          49.8703   14.0495  -24.2153 C.ar    1  UNL1        0.0139
     31 N          47.7228   14.7695  -25.1488 N.pl3   1  UNL1       -0.2188
     32 H          46.9379   14.0992  -25.3100 H       1  UNL1        0.1734
     33 S          47.6530   16.2541  -26.0481 S.O2    1  UNL1        0.0522
     34 O          47.8470   15.9417  -27.5048 O.2     1  UNL1       -0.1545
     35 O          46.3176   16.9243  -25.8790 O.2     1  UNL1       -0.1545
     36 C          48.9737   17.3403  -25.5060 C.3     1  UNL1        0.1488
     37 C          48.8164   18.7837  -25.9722 C.3     1  UNL1        0.0255
     38 C          50.0838   18.6499  -26.8054 C.3     1  UNL1        0.0036
     39 C          50.2426   17.2082  -26.3425 C.3     1  UNL1        0.0255
@<TRIPOS>BOND
     1     6     7    1
     2     7     8   ar
     3     8     9   ar
     4     9    10   ar
     5    10    11   ar
     6    11    12   ar
     7    12     5    1
     8     5     4    1
     9     4     3    1
    10     3     1    1
    11     1    21    1
    12    21    22    1
    13    22    23    1
    14    22    25    1
    15    25    26   ar
    16    26    27   ar
    17    27    28   ar
    18    28    29   ar
    19    29    31    1
    20    31    33    1
    21    33    34    2
    22    33    35    2
    23    33    36    1
    24    36    37    1
    25    37    38    1
    26    38    39    1
    27    29    30   ar
    28    12    13   ar
    29    13    14   ar
    30    14    17    1
    31    17    18    2
    32    17    19    1
    33    14    15   ar
    34    15     7   ar
    35    15    10   ar
    36    30    25   ar
    37    39    36    1
    38     9    16    1
    39     1     2    1
    40    23    24    1
    41    31    32    1
    42    19    20    1
@<TRIPOS>MOLECULE
*****
 39 42 0 0 0
SMALL
GASTEIGER

@<TRIPOS>ATOM
      1 N          49.0023   19.2744  -26.6533 N.3     1  UNL1       -0.2921
      2 H          49.2873   20.2311  -26.9706 H       1  UNL1        0.1234
      3 C          48.4205   19.4043  -25.3091 C.3     1  UNL1        0.1166
      4 C          46.9386   19.0328  -25.3214 C.3     1  UNL1        0.2224
      5 O          46.7445   17.8015  -24.6292 O.3     1  UNL1       -0.4739
      6 C          46.1057   11.5112  -27.0348 C.3     1  UNL1        0.0540
      7 C          46.2024   12.9763  -27.3118 C.ar    1  UNL1        0.0803
      8 N          46.3162   13.4733  -28.5663 N.ar    1  UNL1       -0.1770
      9 N          46.4435   14.7899  -28.4837 N.ar    1  UNL1       -0.2759
     10 C          46.4162   15.1413  -27.1896 C.ar    1  UNL1        0.0782
     11 C          46.5819   16.4169  -26.6611 C.ar    1  UNL1        0.0554
     12 C          46.5774   16.5581  -25.2554 C.ar    1  UNL1        0.1403
     13 C          46.3966   15.4197  -24.4391 C.ar    1  UNL1        0.0435
     14 C          46.2082   14.1341  -24.9954 C.ar    1  UNL1        0.0811
     15 C          46.2443   14.0314  -26.4008 C.ar    1  UNL1        0.0387
     16 H          46.5667   15.4250  -29.3033 H       1  UNL1        0.1889
     17 C          45.9536   12.9963  -24.0927 C.2     1  UNL1        0.3382
     18 O          46.8942   12.4692  -23.4431 O.2     1  UNL1       -0.2451
     19 O          44.6760   12.4492  -24.0146 O.3     1  UNL1       -0.4771
     20 H          44.4876   11.6510  -23.4201 H       1  UNL1        0.2954
     21 C          50.2083   18.4350  -26.6409 C.3     1  UNL1        0.1029
     22 C          50.4156   17.8250  -25.2458 C.3     1  UNL1        0.1484
     23 O          51.7245   18.0717  -24.7967 O.3     1  UNL1       -0.3786
     24 H          51.7455   19.0044  -24.4568 H       1  UNL1        0.2108
     25 C          50.1716   16.3338  -25.2908 C.ar    1  UNL1        0.0069
     26 C          50.1464   15.6589  -26.5218 C.ar    1  UNL1       -0.0018
     27 C          49.9621   14.2756  -26.5633 C.ar    1  UNL1        0.0011
     28 C          49.8020   13.5510  -25.3802 C.ar    1  UNL1        0.0158
     29 C          49.8166   14.2076  -24.1386 C.ar    1  UNL1        0.0642
     30 C          50.0247   15.5953  -24.1023 C.ar    1  UNL1        0.0139
     31 N          49.6864   13.4857  -22.9036 N.pl3   1  UNL1       -0.2188
     32 H          48.8991   13.7360  -22.2643 H       1  UNL1        0.1734
     33 S          50.4941   11.9854  -22.5657 S.O2    1  UNL1        0.0522
     34 O          51.8479   12.0125  -23.2168 O.2     1  UNL1       -0.1545
     35 O          50.6818   11.7959  -21.0858 O.2     1  UNL1       -0.1545
     36 C          49.5442   10.6298  -23.2569 C.3     1  UNL1        0.1488
     37 C          49.5205    9.3824  -22.3799 C.3     1  UNL1        0.0255
     38 C          50.2701    8.6129  -23.4590 C.3     1  UNL1        0.0036
     39 C          50.2961    9.8571  -24.3360 C.3     1  UNL1        0.0255
@<TRIPOS>BOND
     1     6     7    1
     2     7     8   ar
     3     8     9   ar
     4     9    10   ar
     5    10    11   ar
     6    11    12   ar
     7    12     5    1
     8     5     4    1
     9     4     3    1
    10     3     1    1
    11     1    21    1
    12    21    22    1
    13    22    23    1
    14    22    25    1
    15    25    26   ar
    16    26    27   ar
    17    27    28   ar
    18    28    29   ar
    19    29    31    1
    20    31    33    1
    21    33    34    2
    22    33    35    2
    23    33    36    1
    24    36    37    1
    25    37    38    1
    26    38    39    1
    27    29    30   ar
    28    12    13   ar
    29    13    14   ar
    30    14    17    1
    31    17    18    2
    32    17    19    1
    33    14    15   ar
    34    15     7   ar
    35    15    10   ar
    36    30    25   ar
    37    39    36    1
    38     9    16    1
    39     1     2    1
    40    23    24    1
    41    31    32    1
    42    19    20    1
@<TRIPOS>MOLECULE
*****
 39 42 0 0 0
SMALL
GASTEIGER

@<TRIPOS>ATOM
      1 N          47.6868   15.5338  -27.7230 N.3     1  UNL1       -0.2921
      2 H          47.8384   15.4489  -28.7559 H       1  UNL1        0.1234
      3 C          46.2654   15.2675  -27.4567 C.3     1  UNL1        0.1166
      4 C          46.0663   13.8381  -26.9552 C.3     1  UNL1        0.2224
      5 O          47.3112   13.3065  -26.5074 O.3     1  UNL1       -0.4739
      6 C          48.6349    9.5363  -21.0489 C.3     1  UNL1        0.0540
      7 C          47.7555   10.5413  -21.7190 C.ar    1  UNL1        0.0803
      8 N          46.5812   10.9516  -21.1840 N.ar    1  UNL1       -0.1770
      9 N          46.0061   11.7908  -22.0334 N.ar    1  UNL1       -0.2759
     10 C          46.7976   11.9196  -23.1085 C.ar    1  UNL1        0.0782
     11 C          46.5384   12.6546  -24.2602 C.ar    1  UNL1        0.0554
     12 C          47.4874   12.6059  -25.3057 C.ar    1  UNL1        0.1403
     13 C          48.6595   11.8332  -25.1503 C.ar    1  UNL1        0.0435
     14 C          48.9156   11.1099  -23.9633 C.ar    1  UNL1        0.0811
     15 C          47.9329   11.1640  -22.9542 C.ar    1  UNL1        0.0387
     16 H          45.0790   12.2459  -21.8794 H       1  UNL1        0.1889
     17 C          50.1900   10.3796  -23.8337 C.2     1  UNL1        0.3382
     18 O          50.2697    9.1653  -24.1557 O.2     1  UNL1       -0.2451
     19 O          51.2969   11.0155  -23.2786 O.3     1  UNL1       -0.4771
     20 H          52.1733   10.5222  -23.1573 H       1  UNL1        0.2954
     21 C          48.0629   16.8993  -27.3316 C.3     1  UNL1        0.1029
     22 C          49.3707   16.8786  -26.5250 C.3     1  UNL1        0.1484
     23 O          50.3382   16.1031  -27.1871 O.3     1  UNL1       -0.3786
     24 H          50.7223   16.6682  -27.9074 H       1  UNL1        0.2108
     25 C          49.1216   16.3052  -25.1486 C.ar    1  UNL1        0.0069
     26 C          48.0048   16.7165  -24.4036 C.ar    1  UNL1       -0.0018
     27 C          47.7501   16.1583  -23.1495 C.ar    1  UNL1        0.0011
     28 C          48.6038   15.1850  -22.6256 C.ar    1  UNL1        0.0158
     29 C          49.7306   14.7648  -23.3513 C.ar    1  UNL1        0.0642
     30 C          49.9688   15.3136  -24.6211 C.ar    1  UNL1        0.0139
     31 N          50.6090   13.7433  -22.8530 N.pl3   1  UNL1       -0.2188
     32 H          50.5625   12.7947  -23.2880 H       1  UNL1        0.1734
     33 S          51.9972   14.0570  -21.8569 S.O2    1  UNL1        0.0522
     34 O          53.0227   12.9896  -22.1140 O.2     1  UNL1       -0.1545
     35 O          52.6067   15.3916  -22.1868 O.2     1  UNL1       -0.1545
     36 C          51.5158   13.9963  -20.1299 C.3     1  UNL1        0.1488
     37 C          52.2199   12.9048  -19.3309 C.3     1  UNL1        0.0255
     38 C          50.8830   12.2121  -19.1043 C.3     1  UNL1        0.0036
     39 C          50.1778   13.3000  -19.9026 C.3     1  UNL1        0.0255
@<TRIPOS>BOND
     1     6     7    1
     2     7     8   ar
     3     8     9   ar
     4     9    10   ar
     5    10    11   ar
     6    11    12   ar
     7    12     5    1
     8     5     4    1
     9     4     3    1
    10     3     1    1
    11     1    21    1
    12    21    22    1
    13    22    23    1
    14    22    25    1
    15    25    26   ar
    16    26    27   ar
    17    27    28   ar
    18    28    29   ar
    19    29    31    1
    20    31    33    1
    21    33    34    2
    22    33    35    2
    23    33    36    1
    24    36    37    1
    25    37    38    1
    26    38    39    1
    27    29    30   ar
    28    12    13   ar
    29    13    14   ar
    30    14    17    1
    31    17    18    2
    32    17    19    1
    33    14    15   ar
    34    15     7   ar
    35    15    10   ar
    36    30    25   ar
    37    39    36    1
    38     9    16    1
    39     1     2    1
    40    23    24    1
    41    31    32    1
    42    19    20    1
@<TRIPOS>MOLECULE
*****
 39 42 0 0 0
SMALL
GASTEIGER

@<TRIPOS>ATOM
      1 N          52.6006   10.4566  -24.0729 N.3     1  UNL1       -0.2921
      2 H          53.6340   10.2985  -24.1371 H       1  UNL1        0.1234
      3 C          51.9334    9.3228  -24.7298 C.3     1  UNL1        0.1166
      4 C          50.4696    9.6498  -25.0210 C.3     1  UNL1        0.2224
      5 O          49.6327    9.0136  -24.0577 O.3     1  UNL1       -0.4739
      6 C          47.6588   12.1439  -18.3949 C.3     1  UNL1        0.0540
      7 C          48.5575   11.1468  -19.0511 C.ar    1  UNL1        0.0803
      8 N          49.5755   10.5421  -18.3940 N.ar    1  UNL1       -0.1770
      9 N          50.2229    9.7657  -19.2511 N.ar    1  UNL1       -0.2759
     10 C          49.6328    9.8694  -20.4511 C.ar    1  UNL1        0.0782
     11 C          50.0347    9.2708  -21.6402 C.ar    1  UNL1        0.0554
     12 C          49.3001    9.5627  -22.8111 C.ar    1  UNL1        0.1403
     13 C          48.1889   10.4318  -22.7407 C.ar    1  UNL1        0.0435
     14 C          47.7826   11.0139  -21.5185 C.ar    1  UNL1        0.0811
     15 C          48.5565   10.7179  -20.3781 C.ar    1  UNL1        0.0387
     16 H          51.0644    9.1951  -19.0135 H       1  UNL1        0.1889
     17 C          46.5724   11.8560  -21.4968 C.2     1  UNL1        0.3382
     18 O          46.5225   12.9255  -22.1589 O.2     1  UNL1       -0.2451
     19 O          45.5028   11.5068  -20.6773 O.3     1  UNL1       -0.4771
     20 H          44.6736   12.0868  -20.6291 H       1  UNL1        0.2954
     21 C          52.3041   11.7252  -24.7524 C.3     1  UNL1        0.1029
     22 C          52.6931   12.9108  -23.8556 C.3     1  UNL1        0.1484
     23 O          53.6890   12.5236  -22.9423 O.3     1  UNL1       -0.3786
     24 H          54.5532   12.5336  -23.4312 H       1  UNL1        0.2108
     25 C          51.4821   13.4076  -23.0993 C.ar    1  UNL1        0.0069
     26 C          51.5249   13.5332  -21.7014 C.ar    1  UNL1       -0.0018
     27 C          50.4219   14.0304  -21.0047 C.ar    1  UNL1        0.0011
     28 C          49.2667   14.4083  -21.6925 C.ar    1  UNL1        0.0158
     29 C          49.2005   14.2840  -23.0901 C.ar    1  UNL1        0.0642
     30 C          50.3206   13.8044  -23.7869 C.ar    1  UNL1        0.0139
     31 N          48.0383   14.6939  -23.8281 N.pl3   1  UNL1       -0.2188
     32 H          47.1674   14.1241  -23.7370 H       1  UNL1        0.1734
     33 S          47.8503   16.2619  -24.5517 S.O2    1  UNL1        0.0522
     34 O          46.4918   16.3358  -25.1892 O.2     1  UNL1       -0.1545
     35 O          47.9499   17.3483  -23.5169 O.2     1  UNL1       -0.1545
     36 C          49.0997   16.4855  -25.8192 C.3     1  UNL1        0.1488
     37 C          50.2721   17.3580  -25.3832 C.3     1  UNL1        0.0255
     38 C          49.8865   18.3943  -26.4300 C.3     1  UNL1        0.0036
     39 C          48.7147   17.5258  -26.8665 C.3     1  UNL1        0.0255
@<TRIPOS>BOND
     1     6     7    1
     2     7     8   ar
     3     8     9   ar
     4     9    10   ar
     5    10    11   ar
     6    11    12   ar
     7    12     5    1
     8     5     4    1
     9     4     3    1
    10     3     1    1
    11     1    21    1
    12    21    22    1
    13    22    23    1
    14    22    25    1
    15    25    26   ar
    16    26    27   ar
    17    27    28   ar
    18    28    29   ar
    19    29    31    1
    20    31    33    1
    21    33    34    2
    22    33    35    2
    23    33    36    1
    24    36    37    1
    25    37    38    1
    26    38    39    1
    27    29    30   ar
    28    12    13   ar
    29    13    14   ar
    30    14    17    1
    31    17    18    2
    32    17    19    1
    33    14    15   ar
    34    15     7   ar
    35    15    10   ar
    36    30    25   ar
    37    39    36    1
    38     9    16    1
    39     1     2    1
    40    23    24    1
    41    31    32    1
    42    19    20    1
@<TRIPOS>MOLECULE
*****
 39 42 0 0 0
SMALL
GASTEIGER

@<TRIPOS>ATOM
      1 N          50.8633   11.6456  -18.0949 N.3     1  UNL1       -0.2921
      2 H          50.3918   11.4381  -19.0070 H       1  UNL1        0.1234
      3 C          49.8176   11.7622  -17.0677 C.3     1  UNL1        0.1166
      4 C          48.4336   11.5384  -17.6751 C.3     1  UNL1        0.2224
      5 O          48.5086   10.5414  -18.6915 O.3     1  UNL1       -0.4739
      6 C          48.2489   11.6390  -25.3616 C.3     1  UNL1        0.0540
      7 C          47.5645   11.6956  -24.0347 C.ar    1  UNL1        0.0803
      8 N          46.3574   12.2852  -23.8635 N.ar    1  UNL1       -0.1770
      9 N          46.0447   12.2302  -22.5768 N.ar    1  UNL1       -0.2759
     10 C          47.0401   11.6150  -21.9212 C.ar    1  UNL1        0.0782
     11 C          47.1417   11.4075  -20.5499 C.ar    1  UNL1        0.0554
     12 C          48.3114   10.7864  -20.0580 C.ar    1  UNL1        0.1403
     13 C          49.3242   10.3898  -20.9592 C.ar    1  UNL1        0.0435
     14 C          49.1932   10.5899  -22.3523 C.ar    1  UNL1        0.0811
     15 C          48.0230   11.2354  -22.8007 C.ar    1  UNL1        0.0387
     16 H          45.1727   12.6275  -22.1622 H       1  UNL1        0.1889
     17 C          50.2528   10.0900  -23.2475 C.2     1  UNL1        0.3382
     18 O          51.3164   10.7432  -23.4109 O.2     1  UNL1       -0.2451
     19 O          50.0456    8.9240  -23.9790 O.3     1  UNL1       -0.4771
     20 H          50.7512    8.5792  -24.6189 H       1  UNL1        0.2954
     21 C          51.6043   12.9042  -18.2564 C.3     1  UNL1        0.1029
     22 C          52.1764   13.0041  -19.6790 C.3     1  UNL1        0.1484
     23 O          53.3269   13.8116  -19.6851 O.3     1  UNL1       -0.3786
     24 H          54.0787   13.2511  -19.3586 H       1  UNL1        0.2108
     25 C          51.1434   13.5925  -20.6128 C.ar    1  UNL1        0.0069
     26 C          49.9338   14.0915  -20.1038 C.ar    1  UNL1       -0.0018
     27 C          48.9957   14.6726  -20.9591 C.ar    1  UNL1        0.0011
     28 C          49.2532   14.7633  -22.3288 C.ar    1  UNL1        0.0158
     29 C          50.4538   14.2637  -22.8596 C.ar    1  UNL1        0.0642
     30 C          51.4024   13.7009  -21.9914 C.ar    1  UNL1        0.0139
     31 N          50.7607   14.3712  -24.2587 N.pl3   1  UNL1       -0.2188
     32 H          51.4057   13.6656  -24.6799 H       1  UNL1        0.1734
     33 S          49.8539   15.3392  -25.3805 S.O2    1  UNL1        0.0522
     34 O          50.2526   14.9545  -26.7771 O.2     1  UNL1       -0.1545
     35 O          48.3770   15.1026  -25.2252 O.2     1  UNL1       -0.1545
     36 C          50.2431   17.0710  -25.1215 C.3     1  UNL1        0.1488
     37 C          49.1066   18.0203  -25.4860 C.3     1  UNL1        0.0255
     38 C          49.9632   18.6155  -26.5953 C.3     1  UNL1        0.0036
     39 C          51.0990   17.6680  -26.2341 C.3     1  UNL1        0.0255
@<TRIPOS>BOND
     1     6     7    1
     2     7     8   ar
     3     8     9   ar
     4     9    10   ar
     5    10    11   ar
     6    11    12   ar
     7    12     5    1
     8     5     4    1
     9     4     3    1
    10     3     1    1
    11     1    21    1
    12    21    22    1
    13    22    23    1
    14    22    25    1
    15    25    26   ar
    16    26    27   ar
    17    27    28   ar
    18    28    29   ar
    19    29    31    1
    20    31    33    1
    21    33    34    2
    22    33    35    2
    23    33    36    1
    24    36    37    1
    25    37    38    1
    26    38    39    1
    27    29    30   ar
    28    12    13   ar
    29    13    14   ar
    30    14    17    1
    31    17    18    2
    32    17    19    1
    33    14    15   ar
    34    15     7   ar
    35    15    10   ar
    36    30    25   ar
    37    39    36    1
    38     9    16    1
    39     1     2    1
    40    23    24    1
    41    31    32    1
    42    19    20    1
@<TRIPOS>MOLECULE
*****
 39 42 0 0 0
SMALL
GASTEIGER

@<TRIPOS>ATOM
      1 N          53.4656   12.3765  -22.9941 N.3     1  UNL1       -0.2921
      2 H          54.4536   12.1270  -22.7516 H       1  UNL1        0.1234
      3 C          53.2880   12.1483  -24.4358 C.3     1  UNL1        0.1166
      4 C          52.2915   11.0178  -24.6871 C.3     1  UNL1        0.2224
      5 O          51.3817   10.9251  -23.5932 O.3     1  UNL1       -0.4739
      6 C          45.0324   13.1032  -24.4327 C.3     1  UNL1        0.0540
      7 C          46.0339   12.3993  -23.5760 C.ar    1  UNL1        0.0803
      8 N          45.7634   12.0175  -22.3052 N.ar    1  UNL1       -0.1770
      9 N          46.8590   11.4795  -21.7888 N.ar    1  UNL1       -0.2759
     10 C          47.8295   11.5158  -22.7139 C.ar    1  UNL1        0.0782
     11 C          49.1516   11.1122  -22.5619 C.ar    1  UNL1        0.0554
     12 C          50.0301   11.2937  -23.6532 C.ar    1  UNL1        0.1403
     13 C          49.5466   11.8609  -24.8531 C.ar    1  UNL1        0.0435
     14 C          48.1940   12.2453  -24.9959 C.ar    1  UNL1        0.0811
     15 C          47.3557   12.0712  -23.8761 C.ar    1  UNL1        0.0387
     16 H          46.9363   11.1155  -20.8132 H       1  UNL1        0.1889
     17 C          47.7336   12.7655  -26.2966 C.2     1  UNL1        0.3382
     18 O          47.2554   11.9900  -27.1652 O.2     1  UNL1       -0.2451
     19 O          47.8991   14.1142  -26.5985 O.3     1  UNL1       -0.4771
     20 H          47.6132   14.4848  -27.4969 H       1  UNL1        0.2954
     21 C          53.2673   13.7894  -22.6425 C.3     1  UNL1        0.1029
     22 C          52.0885   13.9329  -21.6672 C.3     1  UNL1        0.1484
     23 O          51.7488   12.6803  -21.1272 O.3     1  UNL1       -0.3786
     24 H          52.4009   12.4878  -20.4036 H       1  UNL1        0.2108
     25 C          50.8909   14.5138  -22.3836 C.ar    1  UNL1        0.0069
     26 C          49.6530   14.6090  -21.7277 C.ar    1  UNL1       -0.0018
     27 C          48.5559   15.1826  -22.3731 C.ar    1  UNL1        0.0011
     28 C          48.6807   15.6677  -23.6768 C.ar    1  UNL1        0.0158
     29 C          49.9081   15.5756  -24.3535 C.ar    1  UNL1        0.0642
     30 C          51.0131   15.0182  -23.6913 C.ar    1  UNL1        0.0139
     31 N          50.0756   16.0942  -25.6826 N.pl3   1  UNL1       -0.2188
     32 H          49.7099   15.5317  -26.4834 H       1  UNL1        0.1734
     33 S          50.4892   17.7438  -26.0367 S.O2    1  UNL1        0.0522
     34 O          51.0173   18.3849  -24.7848 O.2     1  UNL1       -0.1545
     35 O          51.5554   17.8167  -27.0947 O.2     1  UNL1       -0.1545
     36 C          49.0189   18.6252  -26.5651 C.3     1  UNL1        0.1488
     37 C          48.3714   19.4604  -25.4657 C.3     1  UNL1        0.0255
     38 C          47.1324   18.5777  -25.5286 C.3     1  UNL1        0.0036
     39 C          47.7770   17.7414  -26.6255 C.3     1  UNL1        0.0255
@<TRIPOS>BOND
     1     6     7    1
     2     7     8   ar
     3     8     9   ar
     4     9    10   ar
     5    10    11   ar
     6    11    12   ar
     7    12     5    1
     8     5     4    1
     9     4     3    1
    10     3     1    1
    11     1    21    1
    12    21    22    1
    13    22    23    1
    14    22    25    1
    15    25    26   ar
    16    26    27   ar
    17    27    28   ar
    18    28    29   ar
    19    29    31    1
    20    31    33    1
    21    33    34    2
    22    33    35    2
    23    33    36    1
    24    36    37    1
    25    37    38    1
    26    38    39    1
    27    29    30   ar
    28    12    13   ar
    29    13    14   ar
    30    14    17    1
    31    17    18    2
    32    17    19    1
    33    14    15   ar
    34    15     7   ar
    35    15    10   ar
    36    30    25   ar
    37    39    36    1
    38     9    16    1
    39     1     2    1
    40    23    24    1
    41    31    32    1
    42    19    20    1
