@<TRIPOS>MOLECULE
*****
 52 57 0 0 0
SMALL
GASTEIGER

@<TRIPOS>ATOM
      1 N          13.4124   83.8107   24.2324 N.am    1  UNL1       -0.2945
      2 C          13.7666   82.4537   24.5460 C.2     1  UNL1        0.2483
      3 O          14.9755   82.0949   24.5107 O.2     1  UNL1       -0.2701
      4 H          12.4272   84.1189   24.3947 H       1  UNL1        0.1501
      5 C          12.7340   81.4731   24.9477 C.ar    1  UNL1        0.0808
      6 C          11.5025   81.9304   25.4453 C.ar    1  UNL1        0.0080
      7 C          10.5083   81.0243   25.8224 C.ar    1  UNL1        0.0148
      8 C          10.7298   79.6434   25.7202 C.ar    1  UNL1        0.0502
      9 C          11.9653   79.1826   25.2381 C.ar    1  UNL1        0.0443
     10 C          12.9631   80.0863   24.8591 C.ar    1  UNL1        0.1457
     11 F          14.1650   79.6001   24.4583 F       1  UNL1       -0.2040
     12 N           9.6993   78.7146   26.1068 N.pl3   1  UNL1       -0.3040
     13 C           9.0035   77.9225   25.0856 C.3     1  UNL1        0.1122
     14 C           8.7523   76.5087   25.6064 C.3     1  UNL1        0.1122
     15 N           8.1466   76.5689   26.9421 N.pl3   1  UNL1       -0.3041
     16 C           8.8297   77.3642   27.9696 C.3     1  UNL1        0.1122
     17 C           9.1061   78.7764   27.4481 C.3     1  UNL1        0.1122
     18 C           7.1167   75.6313   27.3087 C.ar    1  UNL1        0.0479
     19 C           6.9021   74.4828   26.5322 C.ar    1  UNL1        0.0145
     20 C           5.9126   73.5650   26.8890 C.ar    1  UNL1        0.0012
     21 C           5.1210   73.7885   28.0178 C.ar    1  UNL1        0.0039
     22 C           5.2992   74.9473   28.7928 C.ar    1  UNL1        0.0726
     23 C           6.3160   75.8537   28.4428 C.ar    1  UNL1        0.0184
     24 C           4.4803   75.1660   30.0402 C.3     1  UNL1        0.4186
     25 F           3.6626   76.2739   29.8984 F       1  UNL1       -0.1659
     26 F           5.3294   75.3670   31.1124 F       1  UNL1       -0.1659
     27 F           3.6786   74.0678   30.2995 F       1  UNL1       -0.1659
     28 C          14.4037   84.7970   23.7870 C.3     1  UNL1        0.1535
     29 C          14.5894   84.7307   22.2904 C.2     1  UNL1        0.2443
     30 O          15.3365   83.8447   21.7918 O.2     1  UNL1       -0.2730
     31 N          13.8458   85.6169   21.4373 N.am    1  UNL1       -0.2825
     32 H          13.0561   86.1543   21.8618 H       1  UNL1        0.1549
     33 C          13.9893   85.6561   20.0083 C.ar    1  UNL1        0.0535
     34 C          14.3982   84.5262   19.2811 C.ar    1  UNL1        0.0353
     35 C          14.5417   84.6155   17.8942 C.ar    1  UNL1        0.1002
     36 N          14.2990   85.7916   17.2571 N.ar    1  UNL1       -0.2422
     37 C          13.9183   86.9047   17.9379 C.ar    1  UNL1        0.1002
     38 C          13.7648   86.8590   19.3256 C.ar    1  UNL1        0.0353
     39 C          14.0481   86.2287   24.2608 C.3     1  UNL1        0.0569
     40 C          15.3618   87.9604   26.9446 C.ar    1  UNL1       -0.0214
     41 C          16.2168   88.7186   27.7843 C.ar    1  UNL1       -0.0042
     42 C          17.3797   89.3294   27.2922 C.ar    1  UNL1        0.0012
     43 C          17.7210   89.2137   25.9452 C.ar    1  UNL1        0.0169
     44 C          16.8979   88.4573   25.1186 C.ar    1  UNL1        0.0560
     45 N          17.0816   88.2822   23.8034 N.ar    1  UNL1       -0.3523
     46 C          16.0720   87.5048   23.3826 C.ar    1  UNL1        0.0681
     47 C          15.2417   87.1467   24.4419 C.ar    1  UNL1       -0.0020
     48 C          15.7600   87.8087   25.5787 C.ar    1  UNL1        0.0091
     49 H          17.8460   88.6816   23.2143 H       1  UNL1        0.1660
     50 C          14.3292   86.2363   28.4945 C.3     1  UNL1        0.0047
     51 C          14.0742   87.4358   27.5640 C.3     1  UNL1        0.0224
     52 C          13.2105   88.5629   28.1565 C.3     1  UNL1        0.0047
@<TRIPOS>BOND
     1    50    51    1
     2    51    52    1
     3    51    40    1
     4    40    41   ar
     5    41    42   ar
     6    42    43   ar
     7    43    44   ar
     8    44    45   ar
     9    45    46   ar
    10    46    47   ar
    11    47    39    1
    12    39    28    1
    13    28     1    1
    14     1     2   am
    15     2     3    2
    16     2     5    1
    17     5     6   ar
    18     6     7   ar
    19     7     8   ar
    20     8    12    1
    21    12    13    1
    22    13    14    1
    23    14    15    1
    24    15    18    1
    25    18    19   ar
    26    19    20   ar
    27    20    21   ar
    28    21    22   ar
    29    22    24    1
    30    24    25    1
    31    24    26    1
    32    24    27    1
    33    22    23   ar
    34    15    16    1
    35    16    17    1
    36     8     9   ar
    37     9    10   ar
    38    10    11    1
    39    28    29    1
    40    29    30    2
    41    29    31   am
    42    31    33    1
    43    33    34   ar
    44    34    35   ar
    45    35    36   ar
    46    36    37   ar
    47    37    38   ar
    48    47    48   ar
    49    48    40   ar
    50    48    44   ar
    51    10     5   ar
    52    38    33   ar
    53    17    12    1
    54    23    18   ar
    55    45    49    1
    56     1     4    1
    57    31    32    1
@<TRIPOS>MOLECULE
*****
 52 57 0 0 0
SMALL
GASTEIGER

@<TRIPOS>ATOM
      1 N           9.3082   78.0015   24.5021 N.am    1  UNL1       -0.2945
      2 C          10.6936   78.0445   24.8819 C.2     1  UNL1        0.2483
      3 O          11.3094   76.9734   25.1369 O.2     1  UNL1       -0.2701
      4 H           8.8551   78.8824   24.1693 H       1  UNL1        0.1501
      5 C          11.4242   79.3296   24.9437 C.ar    1  UNL1        0.0808
      6 C          10.7026   80.5319   25.0287 C.ar    1  UNL1        0.0080
      7 C          11.3699   81.7572   25.0975 C.ar    1  UNL1        0.0148
      8 C          12.7712   81.8057   25.0712 C.ar    1  UNL1        0.0502
      9 C          13.4952   80.6070   24.9705 C.ar    1  UNL1        0.0443
     10 C          12.8312   79.3782   24.9018 C.ar    1  UNL1        0.1457
     11 F          13.5655   78.2483   24.7414 F       1  UNL1       -0.2040
     12 N          13.4531   83.0719   25.1467 N.pl3   1  UNL1       -0.3040
     13 C          13.7469   83.8223   23.9200 C.3     1  UNL1        0.1122
     14 C          13.5456   85.3166   24.1642 C.3     1  UNL1        0.1122
     15 N          14.2484   85.7218   25.3875 N.pl3   1  UNL1       -0.3041
     16 C          13.9681   84.9737   26.6190 C.3     1  UNL1        0.1122
     17 C          14.1452   83.4726   26.3777 C.3     1  UNL1        0.1122
     18 C          14.9250   86.9920   25.4422 C.ar    1  UNL1        0.0479
     19 C          14.4286   88.0188   26.2592 C.ar    1  UNL1        0.0145
     20 C          15.0865   89.2483   26.3247 C.ar    1  UNL1        0.0012
     21 C          16.2398   89.4692   25.5685 C.ar    1  UNL1        0.0039
     22 C          16.7373   88.4646   24.7209 C.ar    1  UNL1        0.0726
     23 C          16.0848   87.2194   24.6808 C.ar    1  UNL1        0.0184
     24 C          18.0103   88.6827   23.9422 C.3     1  UNL1        0.4186
     25 F          18.6434   87.4766   23.6954 F       1  UNL1       -0.1659
     26 F          18.8572   89.4948   24.6730 F       1  UNL1       -0.1659
     27 F          17.7439   89.2874   22.7258 F       1  UNL1       -0.1659
     28 C           8.5411   76.7507   24.4743 C.3     1  UNL1        0.1535
     29 C           9.1650   75.7615   23.5197 C.2     1  UNL1        0.2443
     30 O           9.0836   75.9566   22.2758 O.2     1  UNL1       -0.2730
     31 N           9.9239   74.6538   24.0323 N.am    1  UNL1       -0.2825
     32 H          10.1838   74.6672   25.0446 H       1  UNL1        0.1549
     33 C          10.5155   73.6401   23.2035 C.ar    1  UNL1        0.0535
     34 C          11.8770   73.6761   22.8601 C.ar    1  UNL1        0.0353
     35 C          12.4053   72.6786   22.0367 C.ar    1  UNL1        0.1002
     36 N          11.6032   71.6889   21.5624 N.ar    1  UNL1       -0.2422
     37 C          10.2790   71.6393   21.8652 C.ar    1  UNL1        0.1002
     38 C           9.7103   72.6179   22.6838 C.ar    1  UNL1        0.0353
     39 C           8.3628   76.1501   25.8914 C.3     1  UNL1        0.0569
     40 C           6.8562   77.7984   28.5258 C.ar    1  UNL1       -0.0214
     41 C           5.8961   78.3481   29.4130 C.ar    1  UNL1       -0.0042
     42 C           4.5342   78.0263   29.3156 C.ar    1  UNL1        0.0012
     43 C           4.0879   77.1375   28.3384 C.ar    1  UNL1        0.0169
     44 C           5.0199   76.6077   27.4531 C.ar    1  UNL1        0.0560
     45 N           4.7445   75.7227   26.4860 N.ar    1  UNL1       -0.3523
     46 C           5.9088   75.4623   25.8718 C.ar    1  UNL1        0.0681
     47 C           6.9450   76.2094   26.4266 C.ar    1  UNL1       -0.0020
     48 C           6.3689   76.9321   27.4965 C.ar    1  UNL1        0.0091
     49 H           3.8151   75.3030   26.2607 H       1  UNL1        0.1660
     50 C           8.7995   79.3241   27.9453 C.3     1  UNL1        0.0047
     51 C           8.3162   78.1346   28.7945 C.3     1  UNL1        0.0224
     52 C           8.6267   78.2243   30.2989 C.3     1  UNL1        0.0047
@<TRIPOS>BOND
     1    50    51    1
     2    51    52    1
     3    51    40    1
     4    40    41   ar
     5    41    42   ar
     6    42    43   ar
     7    43    44   ar
     8    44    45   ar
     9    45    46   ar
    10    46    47   ar
    11    47    39    1
    12    39    28    1
    13    28     1    1
    14     1     2   am
    15     2     3    2
    16     2     5    1
    17     5     6   ar
    18     6     7   ar
    19     7     8   ar
    20     8    12    1
    21    12    13    1
    22    13    14    1
    23    14    15    1
    24    15    18    1
    25    18    19   ar
    26    19    20   ar
    27    20    21   ar
    28    21    22   ar
    29    22    24    1
    30    24    25    1
    31    24    26    1
    32    24    27    1
    33    22    23   ar
    34    15    16    1
    35    16    17    1
    36     8     9   ar
    37     9    10   ar
    38    10    11    1
    39    28    29    1
    40    29    30    2
    41    29    31   am
    42    31    33    1
    43    33    34   ar
    44    34    35   ar
    45    35    36   ar
    46    36    37   ar
    47    37    38   ar
    48    47    48   ar
    49    48    40   ar
    50    48    44   ar
    51    10     5   ar
    52    38    33   ar
    53    17    12    1
    54    23    18   ar
    55    45    49    1
    56     1     4    1
    57    31    32    1
@<TRIPOS>MOLECULE
*****
 52 57 0 0 0
SMALL
GASTEIGER

@<TRIPOS>ATOM
      1 N           9.2697   78.1463   24.1083 N.am    1  UNL1       -0.2945
      2 C          10.5856   78.1599   24.6861 C.2     1  UNL1        0.2483
      3 O          11.1187   77.0802   25.0621 O.2     1  UNL1       -0.2701
      4 H           8.9020   79.0282   23.6853 H       1  UNL1        0.1501
      5 C          11.3451   79.4231   24.8147 C.ar    1  UNL1        0.0808
      6 C          10.6507   80.6393   24.9255 C.ar    1  UNL1        0.0080
      7 C          11.3453   81.8441   25.0571 C.ar    1  UNL1        0.0148
      8 C          12.7475   81.8583   25.0691 C.ar    1  UNL1        0.0502
      9 C          13.4448   80.6463   24.9428 C.ar    1  UNL1        0.0443
     10 C          12.7534   79.4378   24.8112 C.ar    1  UNL1        0.1457
     11 F          13.4643   78.2965   24.6281 F       1  UNL1       -0.2040
     12 N          13.4575   83.1033   25.2093 N.pl3   1  UNL1       -0.3040
     13 C          13.8077   83.8875   24.0190 C.3     1  UNL1        0.1122
     14 C          13.6355   85.3772   24.3090 C.3     1  UNL1        0.1122
     15 N          14.3096   85.7224   25.5664 N.pl3   1  UNL1       -0.3041
     16 C          13.9729   84.9400   26.7620 C.3     1  UNL1        0.1122
     17 C          14.1206   83.4440   26.4740 C.3     1  UNL1        0.1122
     18 C          15.0150   86.9722   25.6859 C.ar    1  UNL1        0.0479
     19 C          14.6006   87.9268   26.6268 C.ar    1  UNL1        0.0145
     20 C          15.2873   89.1354   26.7546 C.ar    1  UNL1        0.0012
     21 C          16.3876   89.4081   25.9387 C.ar    1  UNL1        0.0039
     22 C          16.8014   88.4785   24.9693 C.ar    1  UNL1        0.0726
     23 C          16.1216   87.2518   24.8649 C.ar    1  UNL1        0.0184
     24 C          18.0194   88.7487   24.1219 C.3     1  UNL1        0.4186
     25 F          18.9533   89.4841   24.8313 F       1  UNL1       -0.1659
     26 F          17.6432   89.4615   22.9989 F       1  UNL1       -0.1659
     27 F          18.6140   87.5631   23.7254 F       1  UNL1       -0.1659
     28 C           8.4704   76.9196   24.0070 C.3     1  UNL1        0.1535
     29 C           9.1767   75.8893   23.1593 C.2     1  UNL1        0.2443
     30 O           9.3080   76.0833   21.9196 O.2     1  UNL1       -0.2730
     31 N           9.7735   74.7389   23.7809 N.am    1  UNL1       -0.2825
     32 H           9.8679   74.7408   24.8219 H       1  UNL1        0.1549
     33 C          10.4263   73.6867   23.0522 C.ar    1  UNL1        0.0535
     34 C          11.8006   73.7358   22.7666 C.ar    1  UNL1        0.0353
     35 C          12.3896   72.6984   22.0393 C.ar    1  UNL1        0.1002
     36 N          11.6338   71.6567   21.6017 N.ar    1  UNL1       -0.2422
     37 C          10.2989   71.5921   21.8495 C.ar    1  UNL1        0.1002
     38 C           9.6703   72.6093   22.5715 C.ar    1  UNL1        0.0353
     39 C           8.0931   76.3585   25.4010 C.3     1  UNL1        0.0569
     40 C           4.8924   76.2658   24.1071 C.ar    1  UNL1       -0.0214
     41 C           3.4828   76.3273   23.9652 C.ar    1  UNL1       -0.0042
     42 C           2.6620   76.8387   24.9813 C.ar    1  UNL1        0.0012
     43 C           3.2212   77.3156   26.1663 C.ar    1  UNL1        0.0169
     44 C           4.6009   77.2426   26.3210 C.ar    1  UNL1        0.0560
     45 N           5.2791   77.6869   27.3872 N.ar    1  UNL1       -0.3523
     46 C           6.5745   77.4402   27.1387 C.ar    1  UNL1        0.0681
     47 C           6.7354   76.8013   25.9116 C.ar    1  UNL1       -0.0020
     48 C           5.4401   76.7091   25.3524 C.ar    1  UNL1        0.0091
     49 H           4.8861   78.1489   28.2375 H       1  UNL1        0.1660
     50 C           5.7584   74.2572   22.8200 C.3     1  UNL1        0.0047
     51 C           5.6876   75.7929   22.8985 C.3     1  UNL1        0.0224
     52 C           5.2583   76.5040   21.6033 C.3     1  UNL1        0.0047
@<TRIPOS>BOND
     1    50    51    1
     2    51    52    1
     3    51    40    1
     4    40    41   ar
     5    41    42   ar
     6    42    43   ar
     7    43    44   ar
     8    44    45   ar
     9    45    46   ar
    10    46    47   ar
    11    47    39    1
    12    39    28    1
    13    28     1    1
    14     1     2   am
    15     2     3    2
    16     2     5    1
    17     5     6   ar
    18     6     7   ar
    19     7     8   ar
    20     8    12    1
    21    12    13    1
    22    13    14    1
    23    14    15    1
    24    15    18    1
    25    18    19   ar
    26    19    20   ar
    27    20    21   ar
    28    21    22   ar
    29    22    24    1
    30    24    25    1
    31    24    26    1
    32    24    27    1
    33    22    23   ar
    34    15    16    1
    35    16    17    1
    36     8     9   ar
    37     9    10   ar
    38    10    11    1
    39    28    29    1
    40    29    30    2
    41    29    31   am
    42    31    33    1
    43    33    34   ar
    44    34    35   ar
    45    35    36   ar
    46    36    37   ar
    47    37    38   ar
    48    47    48   ar
    49    48    40   ar
    50    48    44   ar
    51    10     5   ar
    52    38    33   ar
    53    17    12    1
    54    23    18   ar
    55    45    49    1
    56     1     4    1
    57    31    32    1
@<TRIPOS>MOLECULE
*****
 52 57 0 0 0
SMALL
GASTEIGER

@<TRIPOS>ATOM
      1 N          12.6063   84.4861   24.2206 N.am    1  UNL1       -0.2945
      2 C          13.1812   83.1712   24.2974 C.2     1  UNL1        0.2483
      3 O          14.3930   82.9958   23.9939 O.2     1  UNL1       -0.2701
      4 H          11.6436   84.6320   24.6000 H       1  UNL1        0.1501
      5 C          12.3799   82.0185   24.7647 C.ar    1  UNL1        0.0808
      6 C          11.0070   82.1851   25.0111 C.ar    1  UNL1        0.0080
      7 C          10.2275   81.1098   25.4441 C.ar    1  UNL1        0.0148
      8 C          10.8072   79.8496   25.6502 C.ar    1  UNL1        0.0502
      9 C          12.1822   79.6833   25.4200 C.ar    1  UNL1        0.0443
     10 C          12.9661   80.7571   24.9861 C.ar    1  UNL1        0.1457
     11 F          14.3019   80.5706   24.8363 F       1  UNL1       -0.2040
     12 N           9.9973   78.7440   26.0926 N.pl3   1  UNL1       -0.3040
     13 C           9.1371   78.8895   27.2729 C.3     1  UNL1        0.1122
     14 C           7.8128   78.1639   27.0434 C.3     1  UNL1        0.1122
     15 N           8.0670   76.8023   26.5577 N.pl3   1  UNL1       -0.3041
     16 C           8.9320   76.6439   25.3823 C.3     1  UNL1        0.1122
     17 C          10.2531   77.3872   25.5940 C.3     1  UNL1        0.1122
     18 C           7.2460   75.7102   27.0131 C.ar    1  UNL1        0.0479
     19 C           6.9662   74.6354   26.1559 C.ar    1  UNL1        0.0145
     20 C           6.1801   73.5689   26.5955 C.ar    1  UNL1        0.0012
     21 C           5.6571   73.5685   27.8905 C.ar    1  UNL1        0.0039
     22 C           5.9003   74.6491   28.7557 C.ar    1  UNL1        0.0726
     23 C           6.7155   75.7070   28.3151 C.ar    1  UNL1        0.0184
     24 C           5.3790   74.6277   30.1707 C.3     1  UNL1        0.4186
     25 F           4.5378   73.5456   30.3639 F       1  UNL1       -0.1659
     26 F           4.6771   75.7933   30.4147 F       1  UNL1       -0.1659
     27 F           6.4217   74.5312   31.0761 F       1  UNL1       -0.1659
     28 C          13.3579   85.6425   23.7190 C.3     1  UNL1        0.1535
     29 C          13.5646   86.6618   24.8131 C.2     1  UNL1        0.2443
     30 O          12.8774   87.7199   24.8197 O.2     1  UNL1       -0.2730
     31 N          14.4758   86.3818   25.8888 N.am    1  UNL1       -0.2825
     32 H          14.8289   85.4028   25.9869 H       1  UNL1        0.1549
     33 C          14.7691   87.3075   26.9477 C.ar    1  UNL1        0.0535
     34 C          14.0085   87.3362   28.1282 C.ar    1  UNL1        0.0353
     35 C          14.3187   88.2659   29.1240 C.ar    1  UNL1        0.1002
     36 N          15.3413   89.1433   28.9442 N.ar    1  UNL1       -0.2422
     37 C          16.0828   89.1486   27.8050 C.ar    1  UNL1        0.1002
     38 C          15.8048   88.2369   26.7838 C.ar    1  UNL1        0.0353
     39 C          14.6970   85.2215   23.0631 C.3     1  UNL1        0.0569
     40 C          14.4468   87.5349   20.5111 C.ar    1  UNL1       -0.0214
     41 C          14.6526   88.6610   19.6741 C.ar    1  UNL1       -0.0042
     42 C          15.7591   89.5076   19.8375 C.ar    1  UNL1        0.0012
     43 C          16.7014   89.2521   20.8329 C.ar    1  UNL1        0.0169
     44 C          16.4980   88.1604   21.6695 C.ar    1  UNL1        0.0560
     45 N          17.3297   87.7754   22.6464 N.ar    1  UNL1       -0.3523
     46 C          16.7788   86.6851   23.2017 C.ar    1  UNL1        0.0681
     47 C          15.5616   86.3777   22.5986 C.ar    1  UNL1       -0.0020
     48 C          15.3961   87.3232   21.5606 C.ar    1  UNL1        0.0091
     49 H          18.2354   88.2204   22.9160 H       1  UNL1        0.1660
     50 C          11.9200   87.3016   20.4678 C.3     1  UNL1        0.0047
     51 C          13.2723   86.6282   20.1717 C.3     1  UNL1        0.0224
     52 C          13.4072   85.9973   18.7749 C.3     1  UNL1        0.0047
@<TRIPOS>BOND
     1    50    51    1
     2    51    52    1
     3    51    40    1
     4    40    41   ar
     5    41    42   ar
     6    42    43   ar
     7    43    44   ar
     8    44    45   ar
     9    45    46   ar
    10    46    47   ar
    11    47    39    1
    12    39    28    1
    13    28     1    1
    14     1     2   am
    15     2     3    2
    16     2     5    1
    17     5     6   ar
    18     6     7   ar
    19     7     8   ar
    20     8    12    1
    21    12    13    1
    22    13    14    1
    23    14    15    1
    24    15    18    1
    25    18    19   ar
    26    19    20   ar
    27    20    21   ar
    28    21    22   ar
    29    22    24    1
    30    24    25    1
    31    24    26    1
    32    24    27    1
    33    22    23   ar
    34    15    16    1
    35    16    17    1
    36     8     9   ar
    37     9    10   ar
    38    10    11    1
    39    28    29    1
    40    29    30    2
    41    29    31   am
    42    31    33    1
    43    33    34   ar
    44    34    35   ar
    45    35    36   ar
    46    36    37   ar
    47    37    38   ar
    48    47    48   ar
    49    48    40   ar
    50    48    44   ar
    51    10     5   ar
    52    38    33   ar
    53    17    12    1
    54    23    18   ar
    55    45    49    1
    56     1     4    1
    57    31    32    1
@<TRIPOS>MOLECULE
*****
 52 57 0 0 0
SMALL
GASTEIGER

@<TRIPOS>ATOM
      1 N           9.3807   78.1502   24.1569 N.am    1  UNL1       -0.2945
      2 C          10.5744   78.2447   24.9516 C.2     1  UNL1        0.2483
      3 O          10.9983   77.2319   25.5729 O.2     1  UNL1       -0.2701
      4 H           9.1215   78.9595   23.5488 H       1  UNL1        0.1501
      5 C          11.3397   79.5089   25.0245 C.ar    1  UNL1        0.0808
      6 C          10.6553   80.7221   25.2061 C.ar    1  UNL1        0.0080
      7 C          11.3563   81.9277   25.2871 C.ar    1  UNL1        0.0148
      8 C          12.7542   81.9456   25.1769 C.ar    1  UNL1        0.0502
      9 C          13.4402   80.7367   24.9797 C.ar    1  UNL1        0.0443
     10 C          12.7424   79.5275   24.8983 C.ar    1  UNL1        0.1457
     11 F          13.4369   78.3897   24.6440 F       1  UNL1       -0.2040
     12 N          13.4712   83.1914   25.2655 N.pl3   1  UNL1       -0.3040
     13 C          13.7697   83.9554   24.0484 C.3     1  UNL1        0.1122
     14 C          13.6123   85.4500   24.3214 C.3     1  UNL1        0.1122
     15 N          14.3414   85.8142   25.5421 N.pl3   1  UNL1       -0.3041
     16 C          14.0566   85.0520   26.7640 C.3     1  UNL1        0.1122
     17 C          14.1896   83.5512   26.4941 C.3     1  UNL1        0.1122
     18 C          15.0530   87.0644   25.6102 C.ar    1  UNL1        0.0479
     19 C          14.5978   88.0878   26.4550 C.ar    1  UNL1        0.0145
     20 C          15.2898   89.2977   26.5333 C.ar    1  UNL1        0.0012
     21 C          16.4364   89.5025   25.7625 C.ar    1  UNL1        0.0039
     22 C          16.8927   88.5019   24.8874 C.ar    1  UNL1        0.0726
     23 C          16.2062   87.2757   24.8342 C.ar    1  UNL1        0.0184
     24 C          18.1585   88.7011   24.0921 C.3     1  UNL1        0.4186
     25 F          17.9072   89.4502   22.9555 F       1  UNL1       -0.1659
     26 F          18.6593   87.4683   23.7176 F       1  UNL1       -0.1659
     27 F          19.1116   89.3652   24.8450 F       1  UNL1       -0.1659
     28 C           8.5727   76.9265   24.0980 C.3     1  UNL1        0.1535
     29 C           7.1435   77.2094   24.4932 C.2     1  UNL1        0.2443
     30 O           6.9045   77.9105   25.5146 O.2     1  UNL1       -0.2730
     31 N           6.0667   76.7562   23.6561 N.am    1  UNL1       -0.2825
     32 H           6.3054   76.4081   22.6998 H       1  UNL1        0.1549
     33 C           4.6775   76.9402   23.9731 C.ar    1  UNL1        0.0535
     34 C           4.1692   76.6347   25.2464 C.ar    1  UNL1        0.0353
     35 C           2.8077   76.8125   25.5044 C.ar    1  UNL1        0.1002
     36 N           1.9808   77.2659   24.5254 N.ar    1  UNL1       -0.2422
     37 C           2.4428   77.5533   23.2798 C.ar    1  UNL1        0.1002
     38 C           3.7970   77.3879   22.9793 C.ar    1  UNL1        0.0353
     39 C           8.6622   76.2408   22.7115 C.3     1  UNL1        0.0569
     40 C           9.0997   72.8491   22.2291 C.ar    1  UNL1       -0.0214
     41 C           9.6637   71.5798   21.9435 C.ar    1  UNL1       -0.0042
     42 C          11.0460   71.4088   21.7766 C.ar    1  UNL1        0.0012
     43 C          11.9108   72.4955   21.9007 C.ar    1  UNL1        0.0169
     44 C          11.3647   73.7469   22.1629 C.ar    1  UNL1        0.0560
     45 N          12.0702   74.8721   22.3369 N.ar    1  UNL1       -0.3523
     46 C          11.1761   75.8436   22.5765 C.ar    1  UNL1        0.0681
     47 C           9.8751   75.3491   22.5271 C.ar    1  UNL1       -0.0020
     48 C           9.9995   73.9595   22.2974 C.ar    1  UNL1        0.0091
     49 H          13.1091   74.9762   22.3094 H       1  UNL1        0.1660
     50 C           7.2839   73.4172   23.9087 C.3     1  UNL1        0.0047
     51 C           7.6019   72.8944   22.4963 C.3     1  UNL1        0.0224
     52 C           6.8251   73.5657   21.3502 C.3     1  UNL1        0.0047
@<TRIPOS>BOND
     1    50    51    1
     2    51    52    1
     3    51    40    1
     4    40    41   ar
     5    41    42   ar
     6    42    43   ar
     7    43    44   ar
     8    44    45   ar
     9    45    46   ar
    10    46    47   ar
    11    47    39    1
    12    39    28    1
    13    28     1    1
    14     1     2   am
    15     2     3    2
    16     2     5    1
    17     5     6   ar
    18     6     7   ar
    19     7     8   ar
    20     8    12    1
    21    12    13    1
    22    13    14    1
    23    14    15    1
    24    15    18    1
    25    18    19   ar
    26    19    20   ar
    27    20    21   ar
    28    21    22   ar
    29    22    24    1
    30    24    25    1
    31    24    26    1
    32    24    27    1
    33    22    23   ar
    34    15    16    1
    35    16    17    1
    36     8     9   ar
    37     9    10   ar
    38    10    11    1
    39    28    29    1
    40    29    30    2
    41    29    31   am
    42    31    33    1
    43    33    34   ar
    44    34    35   ar
    45    35    36   ar
    46    36    37   ar
    47    37    38   ar
    48    47    48   ar
    49    48    40   ar
    50    48    44   ar
    51    10     5   ar
    52    38    33   ar
    53    17    12    1
    54    23    18   ar
    55    45    49    1
    56     1     4    1
    57    31    32    1
@<TRIPOS>MOLECULE
*****
 52 57 0 0 0
SMALL
GASTEIGER

@<TRIPOS>ATOM
      1 N           9.3247   78.0023   23.8162 N.am    1  UNL1       -0.2945
      2 C          10.4108   78.1247   24.7494 C.2     1  UNL1        0.2483
      3 O          10.7300   77.1436   25.4754 O.2     1  UNL1       -0.2701
      4 H           9.1626   78.7784   23.1356 H       1  UNL1        0.1501
      5 C          11.1895   79.3789   24.8475 C.ar    1  UNL1        0.0808
      6 C          10.5140   80.6045   24.9703 C.ar    1  UNL1        0.0080
      7 C          11.2272   81.8012   25.0737 C.ar    1  UNL1        0.0148
      8 C          12.6292   81.7975   25.0450 C.ar    1  UNL1        0.0502
      9 C          13.3073   80.5760   24.9067 C.ar    1  UNL1        0.0443
     10 C          12.5973   79.3756   24.8032 C.ar    1  UNL1        0.1457
     11 F          13.2882   78.2242   24.6072 F       1  UNL1       -0.2040
     12 N          13.3586   83.0343   25.1563 N.pl3   1  UNL1       -0.3040
     13 C          13.6738   83.8123   23.9523 C.3     1  UNL1        0.1122
     14 C          13.5301   85.3044   24.2453 C.3     1  UNL1        0.1122
     15 N          14.2541   85.6436   25.4762 N.pl3   1  UNL1       -0.3041
     16 C          13.9526   84.8673   26.6851 C.3     1  UNL1        0.1122
     17 C          14.0719   83.3692   26.3949 C.3     1  UNL1        0.1122
     18 C          14.9782   86.8852   25.5670 C.ar    1  UNL1        0.0479
     19 C          14.5356   87.8960   26.4335 C.ar    1  UNL1        0.0145
     20 C          15.2397   89.0972   26.5337 C.ar    1  UNL1        0.0012
     21 C          16.3860   89.3061   25.7637 C.ar    1  UNL1        0.0039
     22 C          16.8299   88.3187   24.8674 C.ar    1  UNL1        0.0726
     23 C          16.1311   87.1006   24.7918 C.ar    1  UNL1        0.0184
     24 C          18.0953   88.5214   24.0723 C.3     1  UNL1        0.4186
     25 F          18.6047   87.3060   23.6486 F       1  UNL1       -0.1659
     26 F          19.0353   89.1518   24.8659 F       1  UNL1       -0.1659
     27 F          17.8528   89.3012   22.9545 F       1  UNL1       -0.1659
     28 C           8.5028   76.7899   23.7242 C.3     1  UNL1        0.1535
     29 C           7.1274   77.0310   24.2978 C.2     1  UNL1        0.2443
     30 O           7.0086   77.5843   25.4254 O.2     1  UNL1       -0.2730
     31 N           5.9618   76.7124   23.5195 N.am    1  UNL1       -0.2825
     32 H           6.0958   76.4995   22.5049 H       1  UNL1        0.1549
     33 C           4.6159   76.8662   23.9983 C.ar    1  UNL1        0.0535
     34 C           4.2017   76.3013   25.2158 C.ar    1  UNL1        0.0353
     35 C           2.8780   76.4613   25.6333 C.ar    1  UNL1        0.1002
     36 N           1.9963   77.1480   24.8595 N.ar    1  UNL1       -0.2422
     37 C           2.3660   77.6906   23.6693 C.ar    1  UNL1        0.1002
     38 C           3.6793   77.5524   23.2139 C.ar    1  UNL1        0.0353
     39 C           8.4355   76.2456   22.2751 C.3     1  UNL1        0.0569
     40 C           5.6647   76.3709   20.2174 C.ar    1  UNL1       -0.0214
     41 C           4.6565   76.8114   19.3228 C.ar    1  UNL1       -0.0042
     42 C           4.7447   78.0470   18.6645 C.ar    1  UNL1        0.0012
     43 C           5.8462   78.8773   18.8682 C.ar    1  UNL1        0.0169
     44 C           6.8308   78.4612   19.7573 C.ar    1  UNL1        0.0560
     45 N           7.9551   79.1363   20.0299 N.ar    1  UNL1       -0.3523
     46 C           8.6326   78.3951   20.9199 C.ar    1  UNL1        0.0681
     47 C           7.9259   77.2416   21.2512 C.ar    1  UNL1       -0.0020
     48 C           6.7585   77.2625   20.4538 C.ar    1  UNL1        0.0091
     49 H           8.2576   80.0491   19.6222 H       1  UNL1        0.1660
     50 C           4.0402   74.5967   21.0262 C.3     1  UNL1        0.0047
     51 C           5.5151   74.9682   20.7891 C.3     1  UNL1        0.0224
     52 C           6.3438   73.9303   20.0123 C.3     1  UNL1        0.0047
@<TRIPOS>BOND
     1    50    51    1
     2    51    52    1
     3    51    40    1
     4    40    41   ar
     5    41    42   ar
     6    42    43   ar
     7    43    44   ar
     8    44    45   ar
     9    45    46   ar
    10    46    47   ar
    11    47    39    1
    12    39    28    1
    13    28     1    1
    14     1     2   am
    15     2     3    2
    16     2     5    1
    17     5     6   ar
    18     6     7   ar
    19     7     8   ar
    20     8    12    1
    21    12    13    1
    22    13    14    1
    23    14    15    1
    24    15    18    1
    25    18    19   ar
    26    19    20   ar
    27    20    21   ar
    28    21    22   ar
    29    22    24    1
    30    24    25    1
    31    24    26    1
    32    24    27    1
    33    22    23   ar
    34    15    16    1
    35    16    17    1
    36     8     9   ar
    37     9    10   ar
    38    10    11    1
    39    28    29    1
    40    29    30    2
    41    29    31   am
    42    31    33    1
    43    33    34   ar
    44    34    35   ar
    45    35    36   ar
    46    36    37   ar
    47    37    38   ar
    48    47    48   ar
    49    48    40   ar
    50    48    44   ar
    51    10     5   ar
    52    38    33   ar
    53    17    12    1
    54    23    18   ar
    55    45    49    1
    56     1     4    1
    57    31    32    1
@<TRIPOS>MOLECULE
*****
 52 57 0 0 0
SMALL
GASTEIGER

@<TRIPOS>ATOM
      1 N          13.1896   84.6885   24.5742 N.am    1  UNL1       -0.2945
      2 C          13.5420   83.3419   24.2167 C.2     1  UNL1        0.2483
      3 O          14.5704   83.1248   23.5190 O.2     1  UNL1       -0.2701
      4 H          12.4135   84.8357   25.2583 H       1  UNL1        0.1501
      5 C          12.7335   82.1954   24.6871 C.ar    1  UNL1        0.0808
      6 C          11.3554   82.3629   24.9019 C.ar    1  UNL1        0.0080
      7 C          10.5694   81.2932   25.3370 C.ar    1  UNL1        0.0148
      8 C          11.1474   80.0382   25.5769 C.ar    1  UNL1        0.0502
      9 C          12.5272   79.8714   25.3784 C.ar    1  UNL1        0.0443
     10 C          13.3177   80.9395   24.9425 C.ar    1  UNL1        0.1457
     11 F          14.6567   80.7538   24.8238 F       1  UNL1       -0.2040
     12 N          10.3308   78.9384   26.0214 N.pl3   1  UNL1       -0.3040
     13 C           9.5698   79.0468   27.2718 C.3     1  UNL1        0.1122
     14 C           8.2042   78.3823   27.1083 C.3     1  UNL1        0.1122
     15 N           8.3667   77.0424   26.5315 N.pl3   1  UNL1       -0.3041
     16 C           9.1323   76.9207   25.2850 C.3     1  UNL1        0.1122
     17 C          10.4940   77.6039   25.4319 C.3     1  UNL1        0.1122
     18 C           7.5405   75.9557   26.9905 C.ar    1  UNL1        0.0479
     19 C           7.1086   74.9711   26.0893 C.ar    1  UNL1        0.0145
     20 C           6.3168   73.9095   26.5307 C.ar    1  UNL1        0.0012
     21 C           5.9397   73.8249   27.8728 C.ar    1  UNL1        0.0039
     22 C           6.3365   74.8163   28.7865 C.ar    1  UNL1        0.0726
     23 C           7.1566   75.8680   28.3402 C.ar    1  UNL1        0.0184
     24 C           5.9731   74.7006   30.2457 C.3     1  UNL1        0.4186
     25 F           4.8326   73.9325   30.4045 F       1  UNL1       -0.1659
     26 F           5.7410   75.9632   30.7582 F       1  UNL1       -0.1659
     27 F           6.9980   74.1050   30.9607 F       1  UNL1       -0.1659
     28 C          13.9419   85.8512   24.0884 C.3     1  UNL1        0.1535
     29 C          13.7057   86.0627   22.6124 C.2     1  UNL1        0.2443
     30 O          12.7973   86.8510   22.2314 O.2     1  UNL1       -0.2730
     31 N          14.5730   85.4368   21.6523 N.am    1  UNL1       -0.2825
     32 H          15.4583   85.0054   22.0028 H       1  UNL1        0.1549
     33 C          14.3992   85.5449   20.2302 C.ar    1  UNL1        0.0535
     34 C          14.8539   84.5425   19.3576 C.ar    1  UNL1        0.0353
     35 C          14.6793   84.6985   17.9802 C.ar    1  UNL1        0.1002
     36 N          14.0851   85.8184   17.4898 N.ar    1  UNL1       -0.2422
     37 C          13.6509   86.8114   18.3102 C.ar    1  UNL1        0.1002
     38 C          13.8076   86.6961   19.6935 C.ar    1  UNL1        0.0353
     39 C          13.6295   87.1268   24.9106 C.3     1  UNL1        0.0569
     40 C          16.6916   88.6527   24.4390 C.ar    1  UNL1       -0.0214
     41 C          17.9254   89.3171   24.6561 C.ar    1  UNL1       -0.0042
     42 C          18.4423   89.5076   25.9461 C.ar    1  UNL1        0.0012
     43 C          17.7513   89.0317   27.0598 C.ar    1  UNL1        0.0169
     44 C          16.5321   88.3949   26.8574 C.ar    1  UNL1        0.0560
     45 N          15.7737   87.8619   27.8243 N.ar    1  UNL1       -0.3523
     46 C          14.6979   87.3408   27.2145 C.ar    1  UNL1        0.0681
     47 C          14.7443   87.5651   25.8408 C.ar    1  UNL1       -0.0020
     48 C          15.9729   88.2216   25.5987 C.ar    1  UNL1        0.0091
     49 H          15.9805   87.8385   28.8478 H       1  UNL1        0.1660
     50 C          15.3403   89.5053   22.4671 C.3     1  UNL1        0.0047
     51 C          16.2842   88.4088   22.9928 C.3     1  UNL1        0.0224
     52 C          17.4902   88.0850   22.0939 C.3     1  UNL1        0.0047
@<TRIPOS>BOND
     1    50    51    1
     2    51    52    1
     3    51    40    1
     4    40    41   ar
     5    41    42   ar
     6    42    43   ar
     7    43    44   ar
     8    44    45   ar
     9    45    46   ar
    10    46    47   ar
    11    47    39    1
    12    39    28    1
    13    28     1    1
    14     1     2   am
    15     2     3    2
    16     2     5    1
    17     5     6   ar
    18     6     7   ar
    19     7     8   ar
    20     8    12    1
    21    12    13    1
    22    13    14    1
    23    14    15    1
    24    15    18    1
    25    18    19   ar
    26    19    20   ar
    27    20    21   ar
    28    21    22   ar
    29    22    24    1
    30    24    25    1
    31    24    26    1
    32    24    27    1
    33    22    23   ar
    34    15    16    1
    35    16    17    1
    36     8     9   ar
    37     9    10   ar
    38    10    11    1
    39    28    29    1
    40    29    30    2
    41    29    31   am
    42    31    33    1
    43    33    34   ar
    44    34    35   ar
    45    35    36   ar
    46    36    37   ar
    47    37    38   ar
    48    47    48   ar
    49    48    40   ar
    50    48    44   ar
    51    10     5   ar
    52    38    33   ar
    53    17    12    1
    54    23    18   ar
    55    45    49    1
    56     1     4    1
    57    31    32    1
@<TRIPOS>MOLECULE
*****
 52 57 0 0 0
SMALL
GASTEIGER

@<TRIPOS>ATOM
      1 N           9.0117   78.0368   24.2626 N.am    1  UNL1       -0.2945
      2 C          10.4470   78.0616   24.3302 C.2     1  UNL1        0.2483
      3 O          11.1024   76.9941   24.1804 O.2     1  UNL1       -0.2701
      4 H           8.4972   78.9463   24.2578 H       1  UNL1        0.1501
      5 C          11.1753   79.3327   24.5379 C.ar    1  UNL1        0.0808
      6 C          12.5598   79.3059   24.7741 C.ar    1  UNL1        0.0080
      7 C          13.2710   80.4932   24.9639 C.ar    1  UNL1        0.0148
      8 C          12.6104   81.7298   24.9327 C.ar    1  UNL1        0.0502
      9 C          11.2241   81.7594   24.7125 C.ar    1  UNL1        0.0443
     10 C          10.5084   80.5732   24.5216 C.ar    1  UNL1        0.1457
     11 F           9.1610   80.6410   24.3750 F       1  UNL1       -0.2040
     12 N          13.3500   82.9504   25.1250 N.pl3   1  UNL1       -0.3040
     13 C          13.6993   83.7874   23.9709 C.3     1  UNL1        0.1122
     14 C          13.5648   85.2635   24.3398 C.3     1  UNL1        0.1122
     15 N          14.2655   85.5286   25.6020 N.pl3   1  UNL1       -0.3041
     16 C          13.9297   84.6930   26.7612 C.3     1  UNL1        0.1122
     17 C          14.0397   83.2111   26.3944 C.3     1  UNL1        0.1122
     18 C          15.0003   86.7552   25.7739 C.ar    1  UNL1        0.0479
     19 C          14.6947   87.6149   26.8397 C.ar    1  UNL1        0.0145
     20 C          15.4110   88.7998   27.0176 C.ar    1  UNL1        0.0012
     21 C          16.4321   89.1439   26.1289 C.ar    1  UNL1        0.0039
     22 C          16.7347   88.3118   25.0374 C.ar    1  UNL1        0.0726
     23 C          16.0272   87.1066   24.8802 C.ar    1  UNL1        0.0184
     24 C          17.8698   88.6556   24.1059 C.3     1  UNL1        0.4186
     25 F          17.4171   89.4278   23.0500 F       1  UNL1       -0.1659
     26 F          18.4189   87.4888   23.6078 F       1  UNL1       -0.1659
     27 F          18.8524   89.3680   24.7718 F       1  UNL1       -0.1659
     28 C           8.2556   76.7891   24.1033 C.3     1  UNL1        0.1535
     29 C           9.0118   75.8122   23.2359 C.2     1  UNL1        0.2443
     30 O           9.1220   76.0306   21.9981 O.2     1  UNL1       -0.2730
     31 N           9.6773   74.6887   23.8365 N.am    1  UNL1       -0.2825
     32 H           9.7799   74.6813   24.8767 H       1  UNL1        0.1549
     33 C          10.3823   73.6852   23.0880 C.ar    1  UNL1        0.0535
     34 C          11.7541   73.8054   22.8113 C.ar    1  UNL1        0.0353
     35 C          12.3947   72.8137   22.0642 C.ar    1  UNL1        0.1002
     36 N          11.6910   71.7478   21.5989 N.ar    1  UNL1       -0.2422
     37 C          10.3594   71.6148   21.8376 C.ar    1  UNL1        0.1002
     38 C           9.6802   72.5847   22.5788 C.ar    1  UNL1        0.0353
     39 C           7.8702   76.1682   25.4696 C.3     1  UNL1        0.0569
     40 C           9.6645   77.4103   28.1462 C.ar    1  UNL1       -0.0214
     41 C          10.0898   78.1917   29.2506 C.ar    1  UNL1       -0.0042
     42 C           9.2574   79.1595   29.8320 C.ar    1  UNL1        0.0012
     43 C           7.9706   79.3710   29.3385 C.ar    1  UNL1        0.0169
     44 C           7.5519   78.6219   28.2447 C.ar    1  UNL1        0.0560
     45 N           6.3380   78.6941   27.6831 N.ar    1  UNL1       -0.3523
     46 C           6.3372   77.8101   26.6736 C.ar    1  UNL1        0.0681
     47 C           7.5739   77.1798   26.5600 C.ar    1  UNL1       -0.0020
     48 C           8.3615   77.6822   27.6213 C.ar    1  UNL1        0.0091
     49 H           5.5416   79.3024   27.9776 H       1  UNL1        0.1660
     50 C          12.0175   76.8656   27.3666 C.3     1  UNL1        0.0047
     51 C          10.6108   76.3180   27.6685 C.3     1  UNL1        0.0224
     52 C          10.5637   75.0709   28.5684 C.3     1  UNL1        0.0047
@<TRIPOS>BOND
     1    50    51    1
     2    51    52    1
     3    51    40    1
     4    40    41   ar
     5    41    42   ar
     6    42    43   ar
     7    43    44   ar
     8    44    45   ar
     9    45    46   ar
    10    46    47   ar
    11    47    39    1
    12    39    28    1
    13    28     1    1
    14     1     2   am
    15     2     3    2
    16     2     5    1
    17     5     6   ar
    18     6     7   ar
    19     7     8   ar
    20     8    12    1
    21    12    13    1
    22    13    14    1
    23    14    15    1
    24    15    18    1
    25    18    19   ar
    26    19    20   ar
    27    20    21   ar
    28    21    22   ar
    29    22    24    1
    30    24    25    1
    31    24    26    1
    32    24    27    1
    33    22    23   ar
    34    15    16    1
    35    16    17    1
    36     8     9   ar
    37     9    10   ar
    38    10    11    1
    39    28    29    1
    40    29    30    2
    41    29    31   am
    42    31    33    1
    43    33    34   ar
    44    34    35   ar
    45    35    36   ar
    46    36    37   ar
    47    37    38   ar
    48    47    48   ar
    49    48    40   ar
    50    48    44   ar
    51    10     5   ar
    52    38    33   ar
    53    17    12    1
    54    23    18   ar
    55    45    49    1
    56     1     4    1
    57    31    32    1
@<TRIPOS>MOLECULE
*****
 52 57 0 0 0
SMALL
GASTEIGER

@<TRIPOS>ATOM
      1 N           9.8654   77.7603   26.0812 N.am    1  UNL1       -0.2945
      2 C          10.1946   78.4903   24.8879 C.2     1  UNL1        0.2483
      3 O           9.7411   78.1113   23.7733 O.2     1  UNL1       -0.2701
      4 H          10.1412   78.1642   27.0046 H       1  UNL1        0.1501
      5 C          11.0324   79.7082   24.9499 C.ar    1  UNL1        0.0808
      6 C          10.4214   80.9590   25.1387 C.ar    1  UNL1        0.0080
      7 C          11.1917   82.1222   25.2098 C.ar    1  UNL1        0.0148
      8 C          12.5869   82.0593   25.0823 C.ar    1  UNL1        0.0502
      9 C          13.1995   80.8127   24.8779 C.ar    1  UNL1        0.0443
     10 C          12.4321   79.6458   24.8064 C.ar    1  UNL1        0.1457
     11 F          13.0566   78.4697   24.5446 F       1  UNL1       -0.2040
     12 N          13.3757   83.2616   25.1608 N.pl3   1  UNL1       -0.3040
     13 C          13.7419   83.9813   23.9351 C.3     1  UNL1        0.1122
     14 C          13.6695   85.4879   24.1758 C.3     1  UNL1        0.1122
     15 N          14.3965   85.8330   25.4034 N.pl3   1  UNL1       -0.3041
     16 C          14.0440   85.1144   26.6340 C.3     1  UNL1        0.1122
     17 C          14.0916   83.6032   26.3960 C.3     1  UNL1        0.1122
     18 C          15.1804   87.0397   25.4611 C.ar    1  UNL1        0.0479
     19 C          14.8646   88.0399   26.3927 C.ar    1  UNL1        0.0145
     20 C          15.6277   89.2069   26.4606 C.ar    1  UNL1        0.0012
     21 C          16.7069   89.3921   25.5935 C.ar    1  UNL1        0.0039
     22 C          17.0225   88.4160   24.6328 C.ar    1  UNL1        0.0726
     23 C          16.2661   87.2312   24.5885 C.ar    1  UNL1        0.0184
     24 C          18.2175   88.5908   23.7296 C.3     1  UNL1        0.4186
     25 F          18.8804   87.3875   23.5600 F       1  UNL1       -0.1659
     26 F          19.0846   89.5072   24.2945 F       1  UNL1       -0.1659
     27 F          17.8273   89.0484   22.4827 F       1  UNL1       -0.1659
     28 C           9.0754   76.5238   26.0513 C.3     1  UNL1        0.1535
     29 C           9.4332   75.6892   24.8454 C.2     1  UNL1        0.2443
     30 O           8.5252   75.3104   24.0556 O.2     1  UNL1       -0.2730
     31 N          10.8122   75.4072   24.5543 N.am    1  UNL1       -0.2825
     32 H          11.5409   75.9445   25.0766 H       1  UNL1        0.1549
     33 C          11.2446   74.5872   23.4565 C.ar    1  UNL1        0.0535
     34 C          11.5534   73.2285   23.6334 C.ar    1  UNL1        0.0353
     35 C          11.9874   72.4738   22.5406 C.ar    1  UNL1        0.1002
     36 N          12.1211   73.0553   21.3192 N.ar    1  UNL1       -0.2422
     37 C          11.8453   74.3718   21.1235 C.ar    1  UNL1        0.1002
     38 C          11.4103   75.1626   22.1897 C.ar    1  UNL1        0.0353
     39 C           9.2096   75.7198   27.3690 C.3     1  UNL1        0.0569
     40 C           6.2828   75.4493   29.1822 C.ar    1  UNL1       -0.0214
     41 C           5.2937   75.5743   30.1907 C.ar    1  UNL1       -0.0042
     42 C           5.4398   76.4726   31.2581 C.ar    1  UNL1        0.0012
     43 C           6.5709   77.2830   31.3478 C.ar    1  UNL1        0.0169
     44 C           7.5539   77.1542   30.3731 C.ar    1  UNL1        0.0560
     45 N           8.6761   77.8831   30.3124 N.ar    1  UNL1       -0.3523
     46 C           9.3419   77.4591   29.2272 C.ar    1  UNL1        0.0681
     47 C           8.6590   76.4231   28.5947 C.ar    1  UNL1       -0.0020
     48 C           7.4600   76.2503   29.3237 C.ar    1  UNL1        0.0091
     49 H           8.9716   78.6423   30.9660 H       1  UNL1        0.1660
     50 C           5.1420   73.3004   28.4597 C.3     1  UNL1        0.0047
     51 C           5.9670   74.5223   28.0170 C.3     1  UNL1        0.0224
     52 C           5.4209   75.2843   26.7969 C.3     1  UNL1        0.0047
@<TRIPOS>BOND
     1    50    51    1
     2    51    52    1
     3    51    40    1
     4    40    41   ar
     5    41    42   ar
     6    42    43   ar
     7    43    44   ar
     8    44    45   ar
     9    45    46   ar
    10    46    47   ar
    11    47    39    1
    12    39    28    1
    13    28     1    1
    14     1     2   am
    15     2     3    2
    16     2     5    1
    17     5     6   ar
    18     6     7   ar
    19     7     8   ar
    20     8    12    1
    21    12    13    1
    22    13    14    1
    23    14    15    1
    24    15    18    1
    25    18    19   ar
    26    19    20   ar
    27    20    21   ar
    28    21    22   ar
    29    22    24    1
    30    24    25    1
    31    24    26    1
    32    24    27    1
    33    22    23   ar
    34    15    16    1
    35    16    17    1
    36     8     9   ar
    37     9    10   ar
    38    10    11    1
    39    28    29    1
    40    29    30    2
    41    29    31   am
    42    31    33    1
    43    33    34   ar
    44    34    35   ar
    45    35    36   ar
    46    36    37   ar
    47    37    38   ar
    48    47    48   ar
    49    48    40   ar
    50    48    44   ar
    51    10     5   ar
    52    38    33   ar
    53    17    12    1
    54    23    18   ar
    55    45    49    1
    56     1     4    1
    57    31    32    1
