@<TRIPOS>MOLECULE
*****
 48 53 0 0 0
SMALL
GASTEIGER

@<TRIPOS>ATOM
      1 O         -62.9833  -54.7608  -22.6391 O.2     1  UNL1       -0.2701
      2 C         -63.9378  -53.9445  -22.7581 C.2     1  UNL1        0.2483
      3 N         -65.2571  -54.3278  -22.3353 N.am    1  UNL1       -0.2945
      4 H         -66.0025  -53.5975  -22.2777 H       1  UNL1        0.1501
      5 C         -63.6816  -52.5981  -23.3241 C.ar    1  UNL1        0.0808
      6 C         -64.5232  -52.0732  -24.3210 C.ar    1  UNL1        0.0080
      7 C         -64.2809  -50.8082  -24.8625 C.ar    1  UNL1        0.0148
      8 C         -63.1916  -50.0421  -24.4203 C.ar    1  UNL1        0.0502
      9 C         -62.3439  -50.5659  -23.4337 C.ar    1  UNL1        0.0443
     10 C         -62.5813  -51.8322  -22.8903 C.ar    1  UNL1        0.1457
     11 F         -61.7459  -52.2964  -21.9264 F       1  UNL1       -0.2040
     12 N         -62.9358  -48.7383  -24.9759 N.pl3   1  UNL1       -0.3040
     13 C         -62.0993  -47.7804  -24.2427 C.3     1  UNL1        0.1122
     14 C         -61.2219  -46.9942  -25.2173 C.3     1  UNL1        0.1122
     15 N         -62.0367  -46.4839  -26.3264 N.pl3   1  UNL1       -0.3040
     16 C         -62.8734  -47.4418  -27.0595 C.3     1  UNL1        0.1122
     17 C         -63.7508  -48.2282  -26.0850 C.3     1  UNL1        0.1122
     18 C         -61.7803  -45.1803  -26.8820 C.ar    1  UNL1        0.0488
     19 C         -60.6669  -44.9746  -27.7111 C.ar    1  UNL1        0.0154
     20 C         -60.4151  -43.7131  -28.2561 C.ar    1  UNL1        0.0135
     21 C         -61.2715  -42.6417  -27.9814 C.ar    1  UNL1        0.0683
     22 CL        -60.9217  -41.0690  -28.6857 Cl      1  UNL1       -0.0814
     23 C         -62.3901  -42.8377  -27.1540 C.ar    1  UNL1        0.0694
     24 CL        -63.4905  -41.5177  -26.7814 Cl      1  UNL1       -0.0813
     25 C         -62.6405  -44.1029  -26.6096 C.ar    1  UNL1        0.0268
     26 C         -65.5550  -55.6784  -21.8506 C.3     1  UNL1        0.1535
     27 C         -66.5585  -55.6052  -20.7288 C.2     1  UNL1        0.2444
     28 O         -66.6675  -56.5793  -19.9354 O.2     1  UNL1       -0.2730
     29 N         -67.3618  -54.4279  -20.5493 N.am    1  UNL1       -0.2807
     30 H         -67.0371  -53.5414  -20.9971 H       1  UNL1        0.1550
     31 C         -68.5542  -54.3872  -19.7468 C.ar    1  UNL1        0.0813
     32 C         -68.5712  -54.8986  -18.4376 C.ar    1  UNL1        0.0376
     33 C         -69.7574  -54.8685  -17.7008 C.ar    1  UNL1        0.1003
     34 N         -70.8905  -54.3591  -18.2516 N.ar    1  UNL1       -0.2399
     35 C         -70.9088  -53.8727  -19.5204 C.ar    1  UNL1        0.1297
     36 C         -69.7451  -53.8851  -20.2939 C.ar    1  UNL1        0.1725
     37 F         -69.7744  -53.3972  -21.5597 F       1  UNL1       -0.2012
     38 C         -66.0768  -56.5559  -23.0044 C.3     1  UNL1        0.0569
     39 C         -67.1954  -55.8855  -23.7499 C.ar    1  UNL1       -0.0017
     40 C         -67.0654  -54.9372  -24.7604 C.ar    1  UNL1        0.0681
     41 N         -68.2815  -54.4851  -25.1426 N.ar    1  UNL1       -0.3523
     42 C         -69.1762  -55.1319  -24.3751 C.ar    1  UNL1        0.0563
     43 C         -70.5625  -54.9842  -24.3863 C.ar    1  UNL1        0.0170
     44 C         -71.3127  -55.7502  -23.4751 C.ar    1  UNL1        0.0015
     45 C         -70.6675  -56.6336  -22.5810 C.ar    1  UNL1        0.0001
     46 C         -69.2664  -56.7602  -22.5906 C.ar    1  UNL1        0.0012
     47 C         -68.5507  -55.9919  -23.5089 C.ar    1  UNL1        0.0131
     48 H         -68.4795  -53.7664  -25.8736 H       1  UNL1        0.1660
@<TRIPOS>BOND
     1     1     2    2
     2     2     3   am
     3     3    26    1
     4    26    38    1
     5    38    39    1
     6    39    40   ar
     7    40    41   ar
     8    41    42   ar
     9    42    43   ar
    10    43    44   ar
    11    44    45   ar
    12    45    46   ar
    13    46    47   ar
    14    26    27    1
    15    27    28    2
    16    27    29   am
    17    29    31    1
    18    31    32   ar
    19    32    33   ar
    20    33    34   ar
    21    34    35   ar
    22    35    36   ar
    23    36    37    1
    24     2     5    1
    25     5     6   ar
    26     6     7   ar
    27     7     8   ar
    28     8    12    1
    29    12    13    1
    30    13    14    1
    31    14    15    1
    32    15    18    1
    33    18    19   ar
    34    19    20   ar
    35    20    21   ar
    36    21    22    1
    37    21    23   ar
    38    23    24    1
    39    23    25   ar
    40    15    16    1
    41    16    17    1
    42     8     9   ar
    43     9    10   ar
    44    10    11    1
    45    47    39   ar
    46    36    31   ar
    47    10     5   ar
    48    47    42   ar
    49    17    12    1
    50    25    18   ar
    51     3     4    1
    52    41    48    1
    53    29    30    1
@<TRIPOS>MOLECULE
*****
 48 53 0 0 0
SMALL
GASTEIGER

@<TRIPOS>ATOM
      1 O         -60.4248  -46.7159  -24.9213 O.2     1  UNL1       -0.2701
      2 C         -61.5482  -46.1733  -25.1082 C.2     1  UNL1        0.2483
      3 N         -62.4954  -46.7890  -25.9969 N.am    1  UNL1       -0.2945
      4 H         -63.4774  -46.4318  -26.0168 H       1  UNL1        0.1501
      5 C         -61.8776  -44.9125  -24.4004 C.ar    1  UNL1        0.0808
      6 C         -61.9019  -44.8707  -22.9950 C.ar    1  UNL1        0.0080
      7 C         -62.2192  -43.6869  -22.3242 C.ar    1  UNL1        0.0148
      8 C         -62.5203  -42.5205  -23.0439 C.ar    1  UNL1        0.0502
      9 C         -62.5071  -42.5603  -24.4456 C.ar    1  UNL1        0.0443
     10 C         -62.1922  -43.7433  -25.1212 C.ar    1  UNL1        0.1457
     11 F         -62.1756  -43.7358  -26.4785 F       1  UNL1       -0.2040
     12 N         -62.8497  -41.2977  -22.3582 N.pl3   1  UNL1       -0.3040
     13 C         -64.0401  -40.5343  -22.7520 C.3     1  UNL1        0.1122
     14 C         -64.7210  -39.9464  -21.5155 C.3     1  UNL1        0.1122
     15 N         -63.7280  -39.2778  -20.6661 N.pl3   1  UNL1       -0.3040
     16 C         -62.5375  -40.0412  -20.2725 C.3     1  UNL1        0.1122
     17 C         -61.8566  -40.6292  -21.5088 C.3     1  UNL1        0.1122
     18 C         -64.0579  -38.0553  -19.9802 C.ar    1  UNL1        0.0488
     19 C         -65.3950  -37.7572  -19.6757 C.ar    1  UNL1        0.0154
     20 C         -65.7207  -36.5746  -19.0070 C.ar    1  UNL1        0.0135
     21 C         -64.7165  -35.6754  -18.6331 C.ar    1  UNL1        0.0683
     22 CL        -65.1656  -34.1975  -17.7929 Cl      1  UNL1       -0.0814
     23 C         -63.3746  -35.9655  -18.9317 C.ar    1  UNL1        0.0694
     24 CL        -62.0818  -34.8616  -18.4818 Cl      1  UNL1       -0.0813
     25 C         -63.0506  -37.1515  -19.6013 C.ar    1  UNL1        0.0268
     26 C         -62.1661  -47.9881  -26.7724 C.3     1  UNL1        0.1535
     27 C         -62.3491  -49.2135  -25.9147 C.2     1  UNL1        0.2444
     28 O         -63.4867  -49.7534  -25.8466 O.2     1  UNL1       -0.2730
     29 N         -61.2339  -49.7757  -25.2050 N.am    1  UNL1       -0.2807
     30 H         -60.2722  -49.5191  -25.5230 H       1  UNL1        0.1550
     31 C         -61.3644  -50.7105  -24.1202 C.ar    1  UNL1        0.0813
     32 C         -62.5592  -50.8165  -23.3873 C.ar    1  UNL1        0.0376
     33 C         -62.6367  -51.7150  -22.3208 C.ar    1  UNL1        0.1003
     34 N         -61.5591  -52.4726  -21.9867 N.ar    1  UNL1       -0.2399
     35 C         -60.3858  -52.3802  -22.6662 C.ar    1  UNL1        0.1297
     36 C         -60.2636  -51.4929  -23.7387 C.ar    1  UNL1        0.1725
     37 F         -59.0875  -51.4084  -24.4102 F       1  UNL1       -0.2012
     38 C         -63.0416  -48.0619  -28.0379 C.3     1  UNL1        0.0569
     39 C         -63.1727  -46.7206  -28.7014 C.ar    1  UNL1       -0.0017
     40 C         -64.3457  -46.1456  -29.1816 C.ar    1  UNL1        0.0681
     41 N         -64.0781  -44.9712  -29.7970 N.ar    1  UNL1       -0.3523
     42 C         -62.7461  -44.8059  -29.7183 C.ar    1  UNL1        0.0563
     43 C         -61.9940  -43.7496  -30.2306 C.ar    1  UNL1        0.0170
     44 C         -60.5987  -43.7890  -30.0527 C.ar    1  UNL1        0.0015
     45 C         -59.9933  -44.8726  -29.3779 C.ar    1  UNL1        0.0001
     46 C         -60.7774  -45.9261  -28.8735 C.ar    1  UNL1        0.0012
     47 C         -62.1580  -45.8559  -29.0606 C.ar    1  UNL1        0.0131
     48 H         -64.7674  -44.3342  -30.2545 H       1  UNL1        0.1660
@<TRIPOS>BOND
     1     1     2    2
     2     2     3   am
     3     3    26    1
     4    26    38    1
     5    38    39    1
     6    39    40   ar
     7    40    41   ar
     8    41    42   ar
     9    42    43   ar
    10    43    44   ar
    11    44    45   ar
    12    45    46   ar
    13    46    47   ar
    14    26    27    1
    15    27    28    2
    16    27    29   am
    17    29    31    1
    18    31    32   ar
    19    32    33   ar
    20    33    34   ar
    21    34    35   ar
    22    35    36   ar
    23    36    37    1
    24     2     5    1
    25     5     6   ar
    26     6     7   ar
    27     7     8   ar
    28     8    12    1
    29    12    13    1
    30    13    14    1
    31    14    15    1
    32    15    18    1
    33    18    19   ar
    34    19    20   ar
    35    20    21   ar
    36    21    22    1
    37    21    23   ar
    38    23    24    1
    39    23    25   ar
    40    15    16    1
    41    16    17    1
    42     8     9   ar
    43     9    10   ar
    44    10    11    1
    45    47    39   ar
    46    36    31   ar
    47    10     5   ar
    48    47    42   ar
    49    17    12    1
    50    25    18   ar
    51     3     4    1
    52    41    48    1
    53    29    30    1
@<TRIPOS>MOLECULE
*****
 48 53 0 0 0
SMALL
GASTEIGER

@<TRIPOS>ATOM
      1 O         -60.1591  -46.0187  -25.7426 O.2     1  UNL1       -0.2701
      2 C         -61.3631  -45.8011  -25.4353 C.2     1  UNL1        0.2483
      3 N         -62.3767  -46.7437  -25.8232 N.am    1  UNL1       -0.2945
      4 H         -63.3376  -46.6471  -25.4236 H       1  UNL1        0.1501
      5 C         -61.7128  -44.5800  -24.6702 C.ar    1  UNL1        0.0808
      6 C         -61.4229  -44.4931  -23.2968 C.ar    1  UNL1        0.0080
      7 C         -61.7575  -43.3475  -22.5705 C.ar    1  UNL1        0.0148
      8 C         -62.3902  -42.2653  -23.2011 C.ar    1  UNL1        0.0502
      9 C         -62.6903  -42.3517  -24.5681 C.ar    1  UNL1        0.0443
     10 C         -62.3591  -43.4971  -25.2986 C.ar    1  UNL1        0.1457
     11 F         -62.6531  -43.5346  -26.6233 F       1  UNL1       -0.2040
     12 N         -62.7391  -41.0824  -22.4574 N.pl3   1  UNL1       -0.3040
     13 C         -63.9355  -40.3138  -22.8218 C.3     1  UNL1        0.1122
     14 C         -64.6324  -39.7967  -21.5628 C.3     1  UNL1        0.1122
     15 N         -63.6537  -39.1604  -20.6730 N.pl3   1  UNL1       -0.3040
     16 C         -62.4571  -39.9290  -20.3088 C.3     1  UNL1        0.1122
     17 C         -61.7602  -40.4462  -21.5676 C.3     1  UNL1        0.1122
     18 C         -64.0031  -37.9779  -19.9291 C.ar    1  UNL1        0.0488
     19 C         -65.3292  -37.7692  -19.5200 C.ar    1  UNL1        0.0154
     20 C         -65.6733  -36.6258  -18.7949 C.ar    1  UNL1        0.0135
     21 C         -64.6987  -35.6770  -18.4682 C.ar    1  UNL1        0.0683
     22 CL        -65.1703  -34.2508  -17.5543 Cl      1  UNL1       -0.0814
     23 C         -63.3678  -35.8776  -18.8715 C.ar    1  UNL1        0.0694
     24 CL        -62.1122  -34.7090  -18.4839 Cl      1  UNL1       -0.0813
     25 C         -63.0253  -37.0245  -19.5975 C.ar    1  UNL1        0.0268
     26 C         -62.0721  -47.9145  -26.6502 C.3     1  UNL1        0.1535
     27 C         -62.3168  -49.1730  -25.8582 C.2     1  UNL1        0.2444
     28 O         -63.4727  -49.6770  -25.8443 O.2     1  UNL1       -0.2730
     29 N         -61.2390  -49.8059  -25.1501 N.am    1  UNL1       -0.2807
     30 H         -60.2616  -49.5667  -25.4318 H       1  UNL1        0.1550
     31 C         -61.4278  -50.7869  -24.1159 C.ar    1  UNL1        0.0813
     32 C         -62.7114  -51.1156  -23.6466 C.ar    1  UNL1        0.0376
     33 C         -62.8514  -52.0515  -22.6193 C.ar    1  UNL1        0.1003
     34 N         -61.7521  -52.6308  -22.0691 N.ar    1  UNL1       -0.2399
     35 C         -60.4978  -52.3209  -22.4905 C.ar    1  UNL1        0.1297
     36 C         -60.3116  -51.3885  -23.5145 C.ar    1  UNL1        0.1725
     37 F         -59.0549  -51.0862  -23.9276 F       1  UNL1       -0.2012
     38 C         -62.9211  -47.8949  -27.9356 C.3     1  UNL1        0.0569
     39 C         -62.6708  -46.6562  -28.7477 C.ar    1  UNL1       -0.0017
     40 C         -61.4307  -46.1567  -29.1349 C.ar    1  UNL1        0.0681
     41 N         -61.5777  -44.9772  -29.7802 N.ar    1  UNL1       -0.3523
     42 C         -62.8980  -44.7235  -29.7941 C.ar    1  UNL1        0.0563
     43 C         -63.5385  -43.6079  -30.3317 C.ar    1  UNL1        0.0170
     44 C         -64.9388  -43.5340  -30.2151 C.ar    1  UNL1        0.0015
     45 C         -65.6586  -44.5632  -29.5680 C.ar    1  UNL1        0.0001
     46 C         -64.9852  -45.6763  -29.0327 C.ar    1  UNL1        0.0012
     47 C         -63.5977  -45.7236  -29.1687 C.ar    1  UNL1        0.0131
     48 H         -60.8158  -44.3796  -30.1710 H       1  UNL1        0.1660
@<TRIPOS>BOND
     1     1     2    2
     2     2     3   am
     3     3    26    1
     4    26    38    1
     5    38    39    1
     6    39    40   ar
     7    40    41   ar
     8    41    42   ar
     9    42    43   ar
    10    43    44   ar
    11    44    45   ar
    12    45    46   ar
    13    46    47   ar
    14    26    27    1
    15    27    28    2
    16    27    29   am
    17    29    31    1
    18    31    32   ar
    19    32    33   ar
    20    33    34   ar
    21    34    35   ar
    22    35    36   ar
    23    36    37    1
    24     2     5    1
    25     5     6   ar
    26     6     7   ar
    27     7     8   ar
    28     8    12    1
    29    12    13    1
    30    13    14    1
    31    14    15    1
    32    15    18    1
    33    18    19   ar
    34    19    20   ar
    35    20    21   ar
    36    21    22    1
    37    21    23   ar
    38    23    24    1
    39    23    25   ar
    40    15    16    1
    41    16    17    1
    42     8     9   ar
    43     9    10   ar
    44    10    11    1
    45    47    39   ar
    46    36    31   ar
    47    10     5   ar
    48    47    42   ar
    49    17    12    1
    50    25    18   ar
    51     3     4    1
    52    41    48    1
    53    29    30    1
@<TRIPOS>MOLECULE
*****
 48 53 0 0 0
SMALL
GASTEIGER

@<TRIPOS>ATOM
      1 O         -60.0524  -46.2551  -23.7731 O.2     1  UNL1       -0.2701
      2 C         -61.1192  -45.6769  -24.1183 C.2     1  UNL1        0.2483
      3 N         -61.8901  -46.2023  -25.2119 N.am    1  UNL1       -0.2945
      4 H         -62.8496  -45.8248  -25.3825 H       1  UNL1        0.1501
      5 C         -61.5662  -44.4687  -23.3839 C.ar    1  UNL1        0.0808
      6 C         -61.8061  -43.2658  -24.0718 C.ar    1  UNL1        0.0080
      7 C         -62.2200  -42.1231  -23.3826 C.ar    1  UNL1        0.0148
      8 C         -62.4012  -42.1581  -21.9916 C.ar    1  UNL1        0.0502
      9 C         -62.1532  -43.3527  -21.3004 C.ar    1  UNL1        0.0443
     10 C         -61.7370  -44.4983  -21.9856 C.ar    1  UNL1        0.1457
     11 F         -61.5224  -45.6388  -21.2813 F       1  UNL1       -0.2040
     12 N         -62.8260  -40.9830  -21.2755 N.pl3   1  UNL1       -0.3040
     13 C         -61.8486  -39.9458  -20.9236 C.3     1  UNL1        0.1122
     14 C         -62.4768  -38.5594  -21.0701 C.3     1  UNL1        0.1122
     15 N         -63.7822  -38.5267  -20.3998 N.pl3   1  UNL1       -0.3040
     16 C         -64.7595  -39.5641  -20.7516 C.3     1  UNL1        0.1122
     17 C         -64.1315  -40.9505  -20.6053 C.3     1  UNL1        0.1122
     18 C         -64.2069  -37.3514  -19.6843 C.ar    1  UNL1        0.0488
     19 C         -63.3295  -36.7132  -18.7941 C.ar    1  UNL1        0.0154
     20 C         -63.7345  -35.5705  -18.1000 C.ar    1  UNL1        0.0135
     21 C         -65.0195  -35.0498  -18.2862 C.ar    1  UNL1        0.0683
     22 CL        -65.4929  -33.6100  -17.3948 Cl      1  UNL1       -0.0814
     23 C         -65.9049  -35.6802  -19.1766 C.ar    1  UNL1        0.0694
     24 CL        -67.5295  -35.0602  -19.4381 Cl      1  UNL1       -0.0813
     25 C         -65.4964  -36.8249  -19.8714 C.ar    1  UNL1        0.0268
     26 C         -61.4303  -47.3438  -26.0078 C.3     1  UNL1        0.1535
     27 C         -61.8616  -48.6286  -25.3489 C.2     1  UNL1        0.2444
     28 O         -63.0922  -48.8778  -25.2316 O.2     1  UNL1       -0.2730
     29 N         -60.8816  -49.5708  -24.8849 N.am    1  UNL1       -0.2807
     30 H         -59.9136  -49.5002  -25.2720 H       1  UNL1        0.1550
     31 C         -61.1688  -50.6356  -23.9622 C.ar    1  UNL1        0.0813
     32 C         -62.4888  -50.9420  -23.5887 C.ar    1  UNL1        0.0376
     33 C         -62.7251  -51.9637  -22.6661 C.ar    1  UNL1        0.1003
     34 N         -61.6838  -52.6483  -22.1241 N.ar    1  UNL1       -0.2399
     35 C         -60.3963  -52.3638  -22.4534 C.ar    1  UNL1        0.1297
     36 C         -60.1143  -51.3481  -23.3708 C.ar    1  UNL1        0.1725
     37 F         -58.8253  -51.0721  -23.6924 F       1  UNL1       -0.2012
     38 C         -61.9776  -47.2471  -27.4446 C.3     1  UNL1        0.0569
     39 C         -61.0557  -46.4678  -28.3387 C.ar    1  UNL1       -0.0017
     40 C         -59.6660  -46.4357  -28.2687 C.ar    1  UNL1        0.0681
     41 N         -59.1682  -45.5601  -29.1715 N.ar    1  UNL1       -0.3523
     42 C         -60.2317  -45.0325  -29.8026 C.ar    1  UNL1        0.0563
     43 C         -60.2244  -44.0638  -30.8053 C.ar    1  UNL1        0.0170
     44 C         -61.4642  -43.6348  -31.3141 C.ar    1  UNL1        0.0015
     45 C         -62.6695  -44.1747  -30.8123 C.ar    1  UNL1        0.0001
     46 C         -62.6464  -45.1495  -29.7982 C.ar    1  UNL1        0.0012
     47 C         -61.4021  -45.5584  -29.3181 C.ar    1  UNL1        0.0131
     48 H         -58.1620  -45.3308  -29.3303 H       1  UNL1        0.1660
@<TRIPOS>BOND
     1     1     2    2
     2     2     3   am
     3     3    26    1
     4    26    38    1
     5    38    39    1
     6    39    40   ar
     7    40    41   ar
     8    41    42   ar
     9    42    43   ar
    10    43    44   ar
    11    44    45   ar
    12    45    46   ar
    13    46    47   ar
    14    26    27    1
    15    27    28    2
    16    27    29   am
    17    29    31    1
    18    31    32   ar
    19    32    33   ar
    20    33    34   ar
    21    34    35   ar
    22    35    36   ar
    23    36    37    1
    24     2     5    1
    25     5     6   ar
    26     6     7   ar
    27     7     8   ar
    28     8    12    1
    29    12    13    1
    30    13    14    1
    31    14    15    1
    32    15    18    1
    33    18    19   ar
    34    19    20   ar
    35    20    21   ar
    36    21    22    1
    37    21    23   ar
    38    23    24    1
    39    23    25   ar
    40    15    16    1
    41    16    17    1
    42     8     9   ar
    43     9    10   ar
    44    10    11    1
    45    47    39   ar
    46    36    31   ar
    47    10     5   ar
    48    47    42   ar
    49    17    12    1
    50    25    18   ar
    51     3     4    1
    52    41    48    1
    53    29    30    1
@<TRIPOS>MOLECULE
*****
 48 53 0 0 0
SMALL
GASTEIGER

@<TRIPOS>ATOM
      1 O         -60.6794  -46.8282  -24.5729 O.2     1  UNL1       -0.2701
      2 C         -60.8774  -45.7020  -25.1058 C.2     1  UNL1        0.2483
      3 N         -60.6955  -45.5449  -26.5230 N.am    1  UNL1       -0.2945
      4 H         -61.0219  -44.6640  -26.9808 H       1  UNL1        0.1501
      5 C         -61.3039  -44.5594  -24.2624 C.ar    1  UNL1        0.0808
      6 C         -60.8787  -44.4640  -22.9253 C.ar    1  UNL1        0.0080
      7 C         -61.2844  -43.3930  -22.1249 C.ar    1  UNL1        0.0148
      8 C         -62.1247  -42.3960  -22.6434 C.ar    1  UNL1        0.0502
      9 C         -62.5592  -42.4925  -23.9732 C.ar    1  UNL1        0.0443
     10 C         -62.1574  -43.5635  -24.7774 C.ar    1  UNL1        0.1457
     11 F         -62.5879  -43.6118  -26.0638 F       1  UNL1       -0.2040
     12 N         -62.5475  -41.2906  -21.8228 N.pl3   1  UNL1       -0.3040
     13 C         -61.5476  -40.4536  -21.1487 C.3     1  UNL1        0.1122
     14 C         -61.9892  -38.9898  -21.1654 C.3     1  UNL1        0.1122
     15 N         -63.3844  -38.8815  -20.7228 N.pl3   1  UNL1       -0.3040
     16 C         -64.3844  -39.7187  -21.3969 C.3     1  UNL1        0.1122
     17 C         -63.9429  -41.1825  -21.3803 C.3     1  UNL1        0.1122
     18 C         -63.8071  -37.7758  -19.9027 C.ar    1  UNL1        0.0488
     19 C         -65.1259  -37.7154  -19.4268 C.ar    1  UNL1        0.0154
     20 C         -65.5407  -36.6472  -18.6277 C.ar    1  UNL1        0.0135
     21 C         -64.6446  -35.6266  -18.2927 C.ar    1  UNL1        0.0683
     22 CL        -65.2036  -34.2987  -17.2848 Cl      1  UNL1       -0.0814
     23 C         -63.3214  -35.6787  -18.7625 C.ar    1  UNL1        0.0694
     24 CL        -62.1637  -34.4156  -18.3670 Cl      1  UNL1       -0.0813
     25 C         -62.9081  -36.7505  -19.5627 C.ar    1  UNL1        0.0268
     26 C         -60.1949  -46.6338  -27.3666 C.3     1  UNL1        0.1535
     27 C         -61.3335  -47.5435  -27.7498 C.2     1  UNL1        0.2444
     28 O         -61.1958  -48.7904  -27.6207 O.2     1  UNL1       -0.2730
     29 N         -62.5709  -46.9945  -28.2303 N.am    1  UNL1       -0.2807
     30 H         -62.7722  -45.9897  -28.0261 H       1  UNL1        0.1550
     31 C         -63.5692  -47.7599  -28.9269 C.ar    1  UNL1        0.0813
     32 C         -63.8640  -49.0837  -28.5574 C.ar    1  UNL1        0.0376
     33 C         -64.8187  -49.8047  -29.2783 C.ar    1  UNL1        0.1003
     34 N         -65.4490  -49.2331  -30.3378 N.ar    1  UNL1       -0.2399
     35 C         -65.1732  -47.9611  -30.7287 C.ar    1  UNL1        0.1297
     36 C         -64.2236  -47.2043  -30.0372 C.ar    1  UNL1        0.1725
     37 F         -63.9557  -45.9354  -30.4359 F       1  UNL1       -0.2012
     38 C         -59.4974  -46.0628  -28.6160 C.3     1  UNL1        0.0569
     39 C         -60.3550  -45.0470  -29.3153 C.ar    1  UNL1       -0.0017
     40 C         -61.4859  -44.4216  -28.7983 C.ar    1  UNL1        0.0681
     41 N         -62.0589  -43.6327  -29.7357 N.ar    1  UNL1       -0.3523
     42 C         -61.3058  -43.7631  -30.8418 C.ar    1  UNL1        0.0563
     43 C         -61.5116  -43.1575  -32.0805 C.ar    1  UNL1        0.0170
     44 C         -60.6059  -43.4537  -33.1158 C.ar    1  UNL1        0.0015
     45 C         -59.5295  -44.3413  -32.8933 C.ar    1  UNL1        0.0001
     46 C         -59.3479  -44.9399  -31.6331 C.ar    1  UNL1        0.0012
     47 C         -60.2589  -44.6224  -30.6255 C.ar    1  UNL1        0.0131
     48 H         -62.9215  -43.0550  -29.6237 H       1  UNL1        0.1660
@<TRIPOS>BOND
     1     1     2    2
     2     2     3   am
     3     3    26    1
     4    26    38    1
     5    38    39    1
     6    39    40   ar
     7    40    41   ar
     8    41    42   ar
     9    42    43   ar
    10    43    44   ar
    11    44    45   ar
    12    45    46   ar
    13    46    47   ar
    14    26    27    1
    15    27    28    2
    16    27    29   am
    17    29    31    1
    18    31    32   ar
    19    32    33   ar
    20    33    34   ar
    21    34    35   ar
    22    35    36   ar
    23    36    37    1
    24     2     5    1
    25     5     6   ar
    26     6     7   ar
    27     7     8   ar
    28     8    12    1
    29    12    13    1
    30    13    14    1
    31    14    15    1
    32    15    18    1
    33    18    19   ar
    34    19    20   ar
    35    20    21   ar
    36    21    22    1
    37    21    23   ar
    38    23    24    1
    39    23    25   ar
    40    15    16    1
    41    16    17    1
    42     8     9   ar
    43     9    10   ar
    44    10    11    1
    45    47    39   ar
    46    36    31   ar
    47    10     5   ar
    48    47    42   ar
    49    17    12    1
    50    25    18   ar
    51     3     4    1
    52    41    48    1
    53    29    30    1
@<TRIPOS>MOLECULE
*****
 48 53 0 0 0
SMALL
GASTEIGER

@<TRIPOS>ATOM
      1 O         -62.8229  -46.7085  -24.1730 O.2     1  UNL1       -0.2701
      2 C         -61.9989  -45.7537  -24.2008 C.2     1  UNL1        0.2483
      3 N         -60.7245  -45.9336  -24.8407 N.am    1  UNL1       -0.2945
      4 H         -60.1200  -45.0979  -25.0094 H       1  UNL1        0.1501
      5 C         -62.3621  -44.4568  -23.5801 C.ar    1  UNL1        0.0808
      6 C         -62.5555  -44.3622  -22.1904 C.ar    1  UNL1        0.0080
      7 C         -62.9052  -43.1440  -21.6025 C.ar    1  UNL1        0.0148
      8 C         -63.0705  -41.9952  -22.3912 C.ar    1  UNL1        0.0502
      9 C         -62.8885  -42.0873  -23.7786 C.ar    1  UNL1        0.0443
     10 C         -62.5405  -43.3048  -24.3716 C.ar    1  UNL1        0.1457
     11 F         -62.3587  -43.3481  -25.7161 F       1  UNL1       -0.2040
     12 N         -63.4326  -40.7371  -21.7912 N.pl3   1  UNL1       -0.3040
     13 C         -64.7905  -40.2068  -21.9633 C.3     1  UNL1        0.1122
     14 C         -65.2599  -39.5335  -20.6732 C.3     1  UNL1        0.1122
     15 N         -64.2242  -38.6183  -20.1793 N.pl3   1  UNL1       -0.3040
     16 C         -62.8662  -39.1485  -20.0073 C.3     1  UNL1        0.1122
     17 C         -62.3967  -39.8219  -21.2973 C.3     1  UNL1        0.1122
     18 C         -64.5866  -37.3605  -19.5789 C.ar    1  UNL1        0.0488
     19 C         -63.6675  -36.6758  -18.7690 C.ar    1  UNL1        0.0154
     20 C         -64.0120  -35.4534  -18.1870 C.ar    1  UNL1        0.0135
     21 C         -65.2772  -34.8986  -18.4065 C.ar    1  UNL1        0.0683
     22 CL        -65.6740  -33.3583  -17.6570 Cl      1  UNL1       -0.0814
     23 C         -66.2039  -35.5752  -19.2174 C.ar    1  UNL1        0.0694
     24 CL        -67.8057  -34.9144  -19.5172 Cl      1  UNL1       -0.0813
     25 C         -65.8562  -36.7998  -19.8000 C.ar    1  UNL1        0.0268
     26 C         -60.3066  -47.2273  -25.3880 C.3     1  UNL1        0.1535
     27 C         -60.4861  -48.3011  -24.3460 C.2     1  UNL1        0.2444
     28 O         -59.8004  -48.2543  -23.2888 O.2     1  UNL1       -0.2730
     29 N         -61.4475  -49.3501  -24.5433 N.am    1  UNL1       -0.2807
     30 H         -62.2060  -49.1929  -25.2445 H       1  UNL1        0.1550
     31 C         -61.4572  -50.5780  -23.7950 C.ar    1  UNL1        0.0813
     32 C         -60.2651  -51.1578  -23.3276 C.ar    1  UNL1        0.0376
     33 C         -60.3134  -52.3672  -22.6306 C.ar    1  UNL1        0.1003
     34 N         -61.5049  -52.9850  -22.4170 N.ar    1  UNL1       -0.2399
     35 C         -62.6719  -52.4570  -22.8710 C.ar    1  UNL1        0.1297
     36 C         -62.6696  -51.2497  -23.5748 C.ar    1  UNL1        0.1725
     37 F         -63.8404  -50.7315  -24.0238 F       1  UNL1       -0.2012
     38 C         -61.1095  -47.5519  -26.6621 C.3     1  UNL1        0.0569
     39 C         -60.6936  -46.6853  -27.8164 C.ar    1  UNL1       -0.0017
     40 C         -59.4169  -46.5908  -28.3628 C.ar    1  UNL1        0.0681
     41 N         -59.3870  -45.6479  -29.3320 N.ar    1  UNL1       -0.3523
     42 C         -60.6303  -45.1399  -29.3944 C.ar    1  UNL1        0.0563
     43 C         -61.0863  -44.1222  -30.2312 C.ar    1  UNL1        0.0170
     44 C         -62.4317  -43.7272  -30.1130 C.ar    1  UNL1        0.0015
     45 C         -63.2800  -44.3485  -29.1695 C.ar    1  UNL1        0.0001
     46 C         -62.7915  -45.3714  -28.3362 C.ar    1  UNL1        0.0012
     47 C         -61.4552  -45.7447  -28.4807 C.ar    1  UNL1        0.0131
     48 H         -58.5594  -45.3633  -29.9015 H       1  UNL1        0.1660
@<TRIPOS>BOND
     1     1     2    2
     2     2     3   am
     3     3    26    1
     4    26    38    1
     5    38    39    1
     6    39    40   ar
     7    40    41   ar
     8    41    42   ar
     9    42    43   ar
    10    43    44   ar
    11    44    45   ar
    12    45    46   ar
    13    46    47   ar
    14    26    27    1
    15    27    28    2
    16    27    29   am
    17    29    31    1
    18    31    32   ar
    19    32    33   ar
    20    33    34   ar
    21    34    35   ar
    22    35    36   ar
    23    36    37    1
    24     2     5    1
    25     5     6   ar
    26     6     7   ar
    27     7     8   ar
    28     8    12    1
    29    12    13    1
    30    13    14    1
    31    14    15    1
    32    15    18    1
    33    18    19   ar
    34    19    20   ar
    35    20    21   ar
    36    21    22    1
    37    21    23   ar
    38    23    24    1
    39    23    25   ar
    40    15    16    1
    41    16    17    1
    42     8     9   ar
    43     9    10   ar
    44    10    11    1
    45    47    39   ar
    46    36    31   ar
    47    10     5   ar
    48    47    42   ar
    49    17    12    1
    50    25    18   ar
    51     3     4    1
    52    41    48    1
    53    29    30    1
@<TRIPOS>MOLECULE
*****
 48 53 0 0 0
SMALL
GASTEIGER

@<TRIPOS>ATOM
      1 O         -63.4192  -55.4648  -21.9873 O.2     1  UNL1       -0.2701
      2 C         -64.2783  -54.6410  -22.4057 C.2     1  UNL1        0.2483
      3 N         -65.6757  -54.9657  -22.3175 N.am    1  UNL1       -0.2945
      4 H         -66.3820  -54.2187  -22.5055 H       1  UNL1        0.1501
      5 C         -63.8327  -53.3459  -22.9741 C.ar    1  UNL1        0.0808
      6 C         -62.7085  -52.6861  -22.4461 C.ar    1  UNL1        0.0080
      7 C         -62.2898  -51.4620  -22.9736 C.ar    1  UNL1        0.0148
      8 C         -62.9866  -50.8709  -24.0386 C.ar    1  UNL1        0.0502
      9 C         -64.1141  -51.5204  -24.5614 C.ar    1  UNL1        0.0443
     10 C         -64.5380  -52.7447  -24.0353 C.ar    1  UNL1        0.1457
     11 F         -65.6252  -53.3482  -24.5799 F       1  UNL1       -0.2040
     12 N         -62.5608  -49.6085  -24.5855 N.pl3   1  UNL1       -0.3040
     13 C         -63.2305  -49.0601  -25.7711 C.3     1  UNL1        0.1122
     14 C         -63.3634  -47.5420  -25.6453 C.3     1  UNL1        0.1122
     15 N         -62.0760  -46.9564  -25.2530 N.pl3   1  UNL1       -0.3040
     16 C         -61.4062  -47.5049  -24.0675 C.3     1  UNL1        0.1122
     17 C         -61.2733  -49.0230  -24.1931 C.3     1  UNL1        0.1122
     18 C         -61.6507  -45.6938  -25.7997 C.ar    1  UNL1        0.0488
     19 C         -61.8846  -44.5050  -25.0914 C.ar    1  UNL1        0.0154
     20 C         -61.4710  -43.2775  -25.6149 C.ar    1  UNL1        0.0135
     21 C         -60.8182  -43.2211  -26.8508 C.ar    1  UNL1        0.0683
     22 CL        -60.3126  -41.6576  -27.4768 Cl      1  UNL1       -0.0814
     23 C         -60.5776  -44.4058  -27.5668 C.ar    1  UNL1        0.0694
     24 CL        -59.7625  -44.3793  -29.1248 Cl      1  UNL1       -0.0813
     25 C         -60.9925  -45.6346  -27.0399 C.ar    1  UNL1        0.0268
     26 C         -66.1407  -56.2703  -21.8382 C.3     1  UNL1        0.1535
     27 C         -67.1553  -56.0758  -20.7411 C.2     1  UNL1        0.2444
     28 O         -67.5371  -57.0737  -20.0712 O.2     1  UNL1       -0.2730
     29 N         -67.6606  -54.7643  -20.4441 N.am    1  UNL1       -0.2807
     30 H         -67.1091  -53.9410  -20.7757 H       1  UNL1        0.1550
     31 C         -68.8492  -54.5202  -19.6726 C.ar    1  UNL1        0.0813
     32 C         -68.9414  -54.9182  -18.3276 C.ar    1  UNL1        0.0376
     33 C         -70.1243  -54.6907  -17.6206 C.ar    1  UNL1        0.1003
     34 N         -71.1832  -54.0994  -18.2337 N.ar    1  UNL1       -0.2399
     35 C         -71.1294  -53.7187  -19.5372 C.ar    1  UNL1        0.1297
     36 C         -69.9663  -53.9291  -20.2827 C.ar    1  UNL1        0.1725
     37 F         -69.9234  -53.5454  -21.5834 F       1  UNL1       -0.2012
     38 C         -66.7336  -57.0860  -23.0029 C.3     1  UNL1        0.0569
     39 C         -68.0044  -56.4737  -23.5193 C.ar    1  UNL1       -0.0017
     40 C         -69.2536  -56.5191  -22.9073 C.ar    1  UNL1        0.0681
     41 N         -70.1869  -55.9394  -23.6961 N.ar    1  UNL1       -0.3523
     42 C         -69.5395  -55.5384  -24.8042 C.ar    1  UNL1        0.0563
     43 C         -70.0860  -54.9056  -25.9199 C.ar    1  UNL1        0.0170
     44 C         -69.2232  -54.5921  -26.9863 C.ar    1  UNL1        0.0015
     45 C         -67.8503  -54.9178  -26.9159 C.ar    1  UNL1        0.0001
     46 C         -67.3270  -55.5587  -25.7781 C.ar    1  UNL1        0.0012
     47 C         -68.2060  -55.8516  -24.7353 C.ar    1  UNL1        0.0131
     48 H         -71.2058  -55.8413  -23.4899 H       1  UNL1        0.1660
@<TRIPOS>BOND
     1     1     2    2
     2     2     3   am
     3     3    26    1
     4    26    38    1
     5    38    39    1
     6    39    40   ar
     7    40    41   ar
     8    41    42   ar
     9    42    43   ar
    10    43    44   ar
    11    44    45   ar
    12    45    46   ar
    13    46    47   ar
    14    26    27    1
    15    27    28    2
    16    27    29   am
    17    29    31    1
    18    31    32   ar
    19    32    33   ar
    20    33    34   ar
    21    34    35   ar
    22    35    36   ar
    23    36    37    1
    24     2     5    1
    25     5     6   ar
    26     6     7   ar
    27     7     8   ar
    28     8    12    1
    29    12    13    1
    30    13    14    1
    31    14    15    1
    32    15    18    1
    33    18    19   ar
    34    19    20   ar
    35    20    21   ar
    36    21    22    1
    37    21    23   ar
    38    23    24    1
    39    23    25   ar
    40    15    16    1
    41    16    17    1
    42     8     9   ar
    43     9    10   ar
    44    10    11    1
    45    47    39   ar
    46    36    31   ar
    47    10     5   ar
    48    47    42   ar
    49    17    12    1
    50    25    18   ar
    51     3     4    1
    52    41    48    1
    53    29    30    1
@<TRIPOS>MOLECULE
*****
 48 53 0 0 0
SMALL
GASTEIGER

@<TRIPOS>ATOM
      1 O         -63.1205  -54.7613  -22.2376 O.2     1  UNL1       -0.2701
      2 C         -64.0443  -54.0104  -22.6549 C.2     1  UNL1        0.2483
      3 N         -65.4131  -54.4307  -22.5283 N.am    1  UNL1       -0.2945
      4 H         -66.1744  -53.7400  -22.7170 H       1  UNL1        0.1501
      5 C         -63.7037  -52.7009  -23.2616 C.ar    1  UNL1        0.0808
      6 C         -64.5172  -52.1494  -24.2675 C.ar    1  UNL1        0.0080
      7 C         -64.1957  -50.9195  -24.8472 C.ar    1  UNL1        0.0148
      8 C         -63.0538  -50.2158  -24.4350 C.ar    1  UNL1        0.0502
      9 C         -62.2343  -50.7669  -23.4395 C.ar    1  UNL1        0.0443
     10 C         -62.5509  -51.9985  -22.8579 C.ar    1  UNL1        0.1457
     11 F         -61.7399  -52.4899  -21.8867 F       1  UNL1       -0.2040
     12 N         -62.7163  -48.9485  -25.0300 N.pl3   1  UNL1       -0.3040
     13 C         -62.9989  -48.7070  -26.4500 C.3     1  UNL1        0.1122
     14 C         -63.4666  -47.2659  -26.6559 C.3     1  UNL1        0.1122
     15 N         -62.5562  -46.3402  -25.9712 N.pl3   1  UNL1       -0.3040
     16 C         -62.2734  -46.5818  -24.5510 C.3     1  UNL1        0.1122
     17 C         -61.8058  -48.0230  -24.3451 C.3     1  UNL1        0.1122
     18 C         -62.2193  -45.0728  -26.5661 C.ar    1  UNL1        0.0488
     19 C         -61.0965  -44.9627  -27.4008 C.ar    1  UNL1        0.0154
     20 C         -60.7669  -43.7367  -27.9839 C.ar    1  UNL1        0.0135
     21 C         -61.5539  -42.6058  -27.7421 C.ar    1  UNL1        0.0683
     22 CL        -61.1071  -41.0802  -28.4939 Cl      1  UNL1       -0.0814
     23 C         -62.6811  -42.7059  -26.9095 C.ar    1  UNL1        0.0694
     24 CL        -63.6958  -41.3086  -26.5776 Cl      1  UNL1       -0.0813
     25 C         -63.0097  -43.9357  -26.3269 C.ar    1  UNL1        0.0268
     26 C         -65.7742  -55.7531  -22.0099 C.3     1  UNL1        0.1535
     27 C         -66.8263  -55.6092  -20.9407 C.2     1  UNL1        0.2444
     28 O         -67.0548  -56.5784  -20.1670 O.2     1  UNL1       -0.2730
     29 N         -67.5409  -54.3725  -20.7876 N.am    1  UNL1       -0.2807
     30 H         -67.1230  -53.5111  -21.2061 H       1  UNL1        0.1550
     31 C         -68.7669  -54.2428  -20.0475 C.ar    1  UNL1        0.0813
     32 C         -69.9538  -53.8181  -20.6694 C.ar    1  UNL1        0.0376
     33 C         -71.1174  -53.6752  -19.9100 C.ar    1  UNL1        0.1003
     34 N         -71.0979  -53.9334  -18.5759 N.ar    1  UNL1       -0.2399
     35 C         -69.9619  -54.3296  -17.9441 C.ar    1  UNL1        0.1297
     36 C         -68.7747  -54.4836  -18.6650 C.ar    1  UNL1        0.1725
     37 F         -67.6461  -54.8795  -18.0242 F       1  UNL1       -0.2012
     38 C         -66.2678  -56.6581  -23.1548 C.3     1  UNL1        0.0569
     39 C         -67.6325  -56.2527  -23.6340 C.ar    1  UNL1       -0.0017
     40 C         -68.8406  -56.4801  -22.9812 C.ar    1  UNL1        0.0681
     41 N         -69.8754  -56.0589  -23.7435 N.ar    1  UNL1       -0.3523
     42 C         -69.3315  -55.5778  -24.8751 C.ar    1  UNL1        0.0563
     43 C         -70.0025  -55.0493  -25.9770 C.ar    1  UNL1        0.0170
     44 C         -69.2312  -54.6213  -27.0733 C.ar    1  UNL1        0.0015
     45 C         -67.8231  -54.7335  -27.0453 C.ar    1  UNL1        0.0001
     46 C         -67.1731  -55.2733  -25.9204 C.ar    1  UNL1        0.0012
     47 C         -67.9644  -55.6835  -24.8474 C.ar    1  UNL1        0.0131
     48 H         -70.8905  -56.1144  -23.5049 H       1  UNL1        0.1660
@<TRIPOS>BOND
     1     1     2    2
     2     2     3   am
     3     3    26    1
     4    26    38    1
     5    38    39    1
     6    39    40   ar
     7    40    41   ar
     8    41    42   ar
     9    42    43   ar
    10    43    44   ar
    11    44    45   ar
    12    45    46   ar
    13    46    47   ar
    14    26    27    1
    15    27    28    2
    16    27    29   am
    17    29    31    1
    18    31    32   ar
    19    32    33   ar
    20    33    34   ar
    21    34    35   ar
    22    35    36   ar
    23    36    37    1
    24     2     5    1
    25     5     6   ar
    26     6     7   ar
    27     7     8   ar
    28     8    12    1
    29    12    13    1
    30    13    14    1
    31    14    15    1
    32    15    18    1
    33    18    19   ar
    34    19    20   ar
    35    20    21   ar
    36    21    22    1
    37    21    23   ar
    38    23    24    1
    39    23    25   ar
    40    15    16    1
    41    16    17    1
    42     8     9   ar
    43     9    10   ar
    44    10    11    1
    45    47    39   ar
    46    36    31   ar
    47    10     5   ar
    48    47    42   ar
    49    17    12    1
    50    25    18   ar
    51     3     4    1
    52    41    48    1
    53    29    30    1
@<TRIPOS>MOLECULE
*****
 48 53 0 0 0
SMALL
GASTEIGER

@<TRIPOS>ATOM
      1 O         -66.2954  -40.9308  -21.7322 O.2     1  UNL1       -0.2701
      2 C         -65.1036  -40.6218  -22.0072 C.2     1  UNL1        0.2483
      3 N         -64.2844  -39.9919  -21.0080 N.am    1  UNL1       -0.2945
      4 H         -63.2586  -39.8940  -21.1822 H       1  UNL1        0.1501
      5 C         -64.5634  -40.9218  -23.3552 C.ar    1  UNL1        0.0808
      6 C         -65.1021  -40.2956  -24.4933 C.ar    1  UNL1        0.0080
      7 C         -64.6012  -40.5811  -25.7660 C.ar    1  UNL1        0.0148
      8 C         -63.5527  -41.4995  -25.9280 C.ar    1  UNL1        0.0502
      9 C         -63.0194  -42.1338  -24.7968 C.ar    1  UNL1        0.0443
     10 C         -63.5188  -41.8527  -23.5214 C.ar    1  UNL1        0.1457
     11 F         -62.9647  -42.4767  -22.4508 F       1  UNL1       -0.2040
     12 N         -63.0333  -41.7992  -27.2374 N.pl3   1  UNL1       -0.3040
     13 C         -61.6026  -41.6249  -27.5159 C.3     1  UNL1        0.1122
     14 C         -61.1041  -42.7449  -28.4297 C.3     1  UNL1        0.1122
     15 N         -62.0110  -42.9005  -29.5733 N.pl3   1  UNL1       -0.3040
     16 C         -63.4418  -43.0745  -29.2948 C.3     1  UNL1        0.1122
     17 C         -63.9404  -41.9546  -28.3809 C.3     1  UNL1        0.1122
     18 C         -61.4914  -43.2006  -30.8824 C.ar    1  UNL1        0.0488
     19 C         -60.1968  -43.7236  -31.0234 C.ar    1  UNL1        0.0154
     20 C         -59.6886  -44.0203  -32.2905 C.ar    1  UNL1        0.0135
     21 C         -60.4661  -43.7997  -33.4323 C.ar    1  UNL1        0.0683
     22 CL        -59.7921  -44.1855  -35.0099 Cl      1  UNL1       -0.0814
     23 C         -61.7642  -43.2782  -33.3017 C.ar    1  UNL1        0.0694
     24 CL        -62.7740  -42.9835  -34.7109 Cl      1  UNL1       -0.0813
     25 C         -62.2714  -42.9822  -32.0308 C.ar    1  UNL1        0.0268
     26 C         -64.8161  -39.6087  -19.6972 C.3     1  UNL1        0.1535
     27 C         -65.2531  -40.8403  -18.9468 C.2     1  UNL1        0.2444
     28 O         -65.4543  -40.7654  -17.7042 O.2     1  UNL1       -0.2730
     29 N         -65.4644  -42.0782  -19.6443 N.am    1  UNL1       -0.2807
     30 H         -65.6056  -42.0387  -20.6788 H       1  UNL1        0.1550
     31 C         -65.5462  -43.3587  -18.9953 C.ar    1  UNL1        0.0813
     32 C         -66.2034  -43.5118  -17.7622 C.ar    1  UNL1        0.0376
     33 C         -66.2350  -44.7662  -17.1486 C.ar    1  UNL1        0.1003
     34 N         -65.6231  -45.8286  -17.7349 N.ar    1  UNL1       -0.2399
     35 C         -64.9662  -45.7077  -18.9184 C.ar    1  UNL1        0.1297
     36 C         -64.9081  -44.4708  -19.5660 C.ar    1  UNL1        0.1725
     37 F         -64.2494  -44.3611  -20.7471 F       1  UNL1       -0.2012
     38 C         -63.7573  -38.8217  -18.9016 C.3     1  UNL1        0.0569
     39 C         -63.8075  -37.3529  -19.2124 C.ar    1  UNL1       -0.0017
     40 C         -64.8278  -36.4692  -18.8729 C.ar    1  UNL1        0.0681
     41 N         -64.5820  -35.2437  -19.3898 N.ar    1  UNL1       -0.3523
     42 C         -63.4216  -35.3494  -20.0606 C.ar    1  UNL1        0.0563
     43 C         -62.7683  -34.3508  -20.7815 C.ar    1  UNL1        0.0170
     44 C         -61.5665  -34.6881  -21.4312 C.ar    1  UNL1        0.0015
     45 C         -61.0529  -36.0017  -21.3497 C.ar    1  UNL1        0.0001
     46 C         -61.7352  -36.9899  -20.6168 C.ar    1  UNL1        0.0012
     47 C         -62.9208  -36.6236  -19.9794 C.ar    1  UNL1        0.0131
     48 H         -65.1834  -34.3950  -19.2985 H       1  UNL1        0.1660
@<TRIPOS>BOND
     1     1     2    2
     2     2     3   am
     3     3    26    1
     4    26    38    1
     5    38    39    1
     6    39    40   ar
     7    40    41   ar
     8    41    42   ar
     9    42    43   ar
    10    43    44   ar
    11    44    45   ar
    12    45    46   ar
    13    46    47   ar
    14    26    27    1
    15    27    28    2
    16    27    29   am
    17    29    31    1
    18    31    32   ar
    19    32    33   ar
    20    33    34   ar
    21    34    35   ar
    22    35    36   ar
    23    36    37    1
    24     2     5    1
    25     5     6   ar
    26     6     7   ar
    27     7     8   ar
    28     8    12    1
    29    12    13    1
    30    13    14    1
    31    14    15    1
    32    15    18    1
    33    18    19   ar
    34    19    20   ar
    35    20    21   ar
    36    21    22    1
    37    21    23   ar
    38    23    24    1
    39    23    25   ar
    40    15    16    1
    41    16    17    1
    42     8     9   ar
    43     9    10   ar
    44    10    11    1
    45    47    39   ar
    46    36    31   ar
    47    10     5   ar
    48    47    42   ar
    49    17    12    1
    50    25    18   ar
    51     3     4    1
    52    41    48    1
    53    29    30    1
