@<TRIPOS>MOLECULE
*****
 41 45 0 0 0
SMALL
GASTEIGER

@<TRIPOS>ATOM
      1 C         -31.5802   49.5572   -8.9589 C.3     1  UNL1        0.1333
      2 N         -30.2188   49.5403   -8.4225 N.ar    1  UNL1       -0.2950
      3 C         -29.7831   49.0416   -7.2327 C.ar    1  UNL1        0.2019
      4 N         -28.4369   49.1027   -7.0766 N.ar    1  UNL1       -0.2129
      5 C         -28.0263   49.6980   -8.2120 C.ar    1  UNL1        0.1086
      6 C         -26.7162   50.0257   -8.5689 C.ar    1  UNL1        0.0482
      7 S         -25.3602   49.5997   -7.4672 S.3     1  UNL1       -0.1397
      8 C         -26.5051   50.6553   -9.8250 C.ar    1  UNL1        0.0975
      9 C         -27.6195   50.9419  -10.6593 C.ar    1  UNL1        0.1787
     10 C         -28.9278   50.6160  -10.2487 C.ar    1  UNL1        0.1897
     11 C         -29.0924   49.9701   -9.0220 C.ar    1  UNL1        0.1178
     12 O         -30.0095   50.9623  -11.0643 O.3     1  UNL1       -0.4669
     13 C         -29.8495   51.8681  -12.1577 C.3     1  UNL1        0.2527
     14 C         -28.5089   51.6202  -12.8584 C.3     1  UNL1        0.2526
     15 O         -27.4519   51.5748  -11.8976 O.3     1  UNL1       -0.4682
     16 H         -25.1934   48.3410   -8.0742 H       1  UNL1        0.1072
     17 C         -25.1431   51.0154  -10.2694 C.2     1  UNL1        0.2531
     18 O         -24.6709   50.4745  -11.3059 O.2     1  UNL1       -0.2697
     19 N         -24.3551   51.9482   -9.5103 N.am    1  UNL1       -0.2803
     20 H         -24.7068   52.2487   -8.5733 H       1  UNL1        0.1552
     21 C         -23.0701   52.4390   -9.9269 C.ar    1  UNL1        0.0506
     22 C         -22.9332   53.0027  -11.2020 C.ar    1  UNL1        0.0170
     23 C         -21.6904   53.4598  -11.6424 C.ar    1  UNL1        0.0309
     24 C         -20.5672   53.3501  -10.8191 C.ar    1  UNL1        0.1441
     25 F         -19.3674   53.7882  -11.2784 F       1  UNL1       -0.2042
     26 C         -20.6788   52.7773   -9.5383 C.ar    1  UNL1        0.1000
     27 C         -21.9339   52.3047   -9.1083 C.ar    1  UNL1        0.0208
     28 C         -19.4495   52.6252   -8.6742 C.3     1  UNL1        0.4207
     29 F         -18.8875   53.8517   -8.3637 F       1  UNL1       -0.1658
     30 F         -19.7936   51.9845   -7.4981 F       1  UNL1       -0.1658
     31 F         -18.4999   51.8699   -9.3390 F       1  UNL1       -0.1658
     32 N         -30.6373   48.4902   -6.2212 N.pl3   1  UNL1       -0.2814
     33 H         -30.9950   47.5203   -6.3710 H       1  UNL1        0.1551
     34 C         -30.8928   49.1228   -4.9551 C.ar    1  UNL1        0.0889
     35 C         -31.3466   50.4569   -4.8890 C.ar    1  UNL1        0.1543
     36 F         -31.5318   51.1867   -6.0178 F       1  UNL1       -0.2028
     37 C         -31.5830   51.0592   -3.6499 C.ar    1  UNL1        0.0310
     38 C         -31.3608   50.3485   -2.4696 C.ar    1  UNL1        0.0033
     39 C         -30.8950   49.0336   -2.5227 C.ar    1  UNL1        0.0128
     40 C         -30.6546   48.4193   -3.7572 C.ar    1  UNL1        0.0733
     41 CL        -30.0949   46.7519   -3.7760 Cl      1  UNL1       -0.0809
@<TRIPOS>BOND
     1     1     2    1
     2     2     3   ar
     3     3    32    1
     4    32    34    1
     5    34    35   ar
     6    35    36    1
     7    35    37   ar
     8    37    38   ar
     9    38    39   ar
    10    39    40   ar
    11    40    41    1
    12     3     4   ar
    13     4     5   ar
    14     5     6   ar
    15     6     7    1
    16     6     8   ar
    17     8    17    1
    18    17    18    2
    19    17    19   am
    20    19    21    1
    21    21    22   ar
    22    22    23   ar
    23    23    24   ar
    24    24    25    1
    25    24    26   ar
    26    26    28    1
    27    28    29    1
    28    28    30    1
    29    28    31    1
    30    26    27   ar
    31     8     9   ar
    32     9    10   ar
    33    10    11   ar
    34    10    12    1
    35    12    13    1
    36    13    14    1
    37    14    15    1
    38    11     2   ar
    39    40    34   ar
    40    11     5   ar
    41    27    21   ar
    42    15     9    1
    43    32    33    1
    44     7    16    1
    45    19    20    1
@<TRIPOS>MOLECULE
*****
 41 45 0 0 0
SMALL
GASTEIGER

@<TRIPOS>ATOM
      1 C         -31.5840   49.0704   -8.3655 C.3     1  UNL1        0.1333
      2 N         -30.1628   49.0762   -8.0165 N.ar    1  UNL1       -0.2950
      3 C         -29.5483   48.4820   -6.9565 C.ar    1  UNL1        0.2019
      4 N         -28.1973   48.6040   -6.9715 N.ar    1  UNL1       -0.2129
      5 C         -27.9710   49.3373   -8.0775 C.ar    1  UNL1        0.1086
      6 C         -26.7369   49.7755   -8.5636 C.ar    1  UNL1        0.0482
      7 S         -25.2267   49.3157   -7.7024 S.3     1  UNL1       -0.1397
      8 C         -26.7259   50.5438   -9.7587 C.ar    1  UNL1        0.0975
      9 C         -27.9546   50.8511  -10.4035 C.ar    1  UNL1        0.1787
     10 C         -29.1797   50.4093   -9.8645 C.ar    1  UNL1        0.1897
     11 C         -29.1480   49.6304   -8.7062 C.ar    1  UNL1        0.1178
     12 O         -30.3761   50.7758  -10.4885 O.3     1  UNL1       -0.4669
     13 C         -30.4055   51.7984  -11.4860 C.3     1  UNL1        0.2527
     14 C         -29.1631   51.7027  -12.3787 C.3     1  UNL1        0.2526
     15 O         -27.9843   51.6184  -11.5750 O.3     1  UNL1       -0.4682
     16 H         -25.0897   48.1389   -8.4620 H       1  UNL1        0.1072
     17 C         -25.4538   51.0262  -10.3342 C.2     1  UNL1        0.2531
     18 O         -25.1586   50.7171  -11.5204 O.2     1  UNL1       -0.2697
     19 N         -24.5498   51.8126   -9.5392 N.am    1  UNL1       -0.2803
     20 H         -24.7429   51.9096   -8.5169 H       1  UNL1        0.1552
     21 C         -23.3487   52.4151  -10.0491 C.ar    1  UNL1        0.0506
     22 C         -23.3609   53.7695  -10.4066 C.ar    1  UNL1        0.0170
     23 C         -22.2168   54.3717  -10.9319 C.ar    1  UNL1        0.0309
     24 C         -21.0499   53.6263  -11.1163 C.ar    1  UNL1        0.1441
     25 F         -19.9562   54.2330  -11.6437 F       1  UNL1       -0.2042
     26 C         -21.0176   52.2614  -10.7742 C.ar    1  UNL1        0.1000
     27 C         -22.1816   51.6584  -10.2592 C.ar    1  UNL1        0.0208
     28 C         -19.7635   51.4558  -11.0179 C.3     1  UNL1        0.4207
     29 F         -19.9527   50.1151  -10.7293 F       1  UNL1       -0.1658
     30 F         -19.3934   51.5760  -12.3447 F       1  UNL1       -0.1658
     31 F         -18.7389   51.9302  -10.2182 F       1  UNL1       -0.1658
     32 N         -30.2326   47.7798   -5.9098 N.pl3   1  UNL1       -0.2814
     33 H         -31.1781   48.1289   -5.6356 H       1  UNL1        0.1551
     34 C         -29.7704   46.5435   -5.3383 C.ar    1  UNL1        0.0889
     35 C         -29.0476   46.5296   -4.1270 C.ar    1  UNL1        0.1543
     36 F         -28.7486   47.6844   -3.4805 F       1  UNL1       -0.2028
     37 C         -28.5992   45.3197   -3.5890 C.ar    1  UNL1        0.0310
     38 C         -28.8538   44.1187   -4.2525 C.ar    1  UNL1        0.0033
     39 C         -29.5530   44.1223   -5.4608 C.ar    1  UNL1        0.0128
     40 C         -30.0072   45.3270   -6.0097 C.ar    1  UNL1        0.0733
     41 CL        -30.9080   45.2806   -7.5198 Cl      1  UNL1       -0.0809
@<TRIPOS>BOND
     1     1     2    1
     2     2     3   ar
     3     3    32    1
     4    32    34    1
     5    34    35   ar
     6    35    36    1
     7    35    37   ar
     8    37    38   ar
     9    38    39   ar
    10    39    40   ar
    11    40    41    1
    12     3     4   ar
    13     4     5   ar
    14     5     6   ar
    15     6     7    1
    16     6     8   ar
    17     8    17    1
    18    17    18    2
    19    17    19   am
    20    19    21    1
    21    21    22   ar
    22    22    23   ar
    23    23    24   ar
    24    24    25    1
    25    24    26   ar
    26    26    28    1
    27    28    29    1
    28    28    30    1
    29    28    31    1
    30    26    27   ar
    31     8     9   ar
    32     9    10   ar
    33    10    11   ar
    34    10    12    1
    35    12    13    1
    36    13    14    1
    37    14    15    1
    38    11     2   ar
    39    40    34   ar
    40    11     5   ar
    41    27    21   ar
    42    15     9    1
    43    32    33    1
    44     7    16    1
    45    19    20    1
@<TRIPOS>MOLECULE
*****
 41 45 0 0 0
SMALL
GASTEIGER

@<TRIPOS>ATOM
      1 C         -27.2982   51.3711  -11.3007 C.3     1  UNL1        0.1333
      2 N         -26.9863   51.4910   -9.8760 N.ar    1  UNL1       -0.2950
      3 C         -26.0903   52.3193   -9.2716 C.ar    1  UNL1        0.2019
      4 N         -26.1077   52.2456   -7.9172 N.ar    1  UNL1       -0.2129
      5 C         -27.0371   51.3019   -7.6765 C.ar    1  UNL1        0.1086
      6 C         -27.4450   50.8147   -6.4325 C.ar    1  UNL1        0.0482
      7 S         -26.7336   51.5016   -4.9305 S.3     1  UNL1       -0.1397
      8 C         -28.4493   49.8100   -6.4067 C.ar    1  UNL1        0.0975
      9 C         -28.9876   49.3282   -7.6307 C.ar    1  UNL1        0.1787
     10 C         -28.5290   49.8306   -8.8651 C.ar    1  UNL1        0.1897
     11 C         -27.5638   50.8392   -8.8492 C.ar    1  UNL1        0.1178
     12 O         -29.0351   49.2966  -10.0542 O.3     1  UNL1       -0.4669
     13 C         -29.7914   48.0843  -10.0561 C.3     1  UNL1        0.2527
     14 C         -30.7103   48.0319   -8.8304 C.3     1  UNL1        0.2526
     15 O         -29.9683   48.3281   -7.6454 O.3     1  UNL1       -0.4682
     16 H         -27.7289   52.4934   -4.8503 H       1  UNL1        0.1072
     17 C         -28.9359   49.2619   -5.1242 C.2     1  UNL1        0.2531
     18 O         -30.0512   49.6428   -4.6759 O.2     1  UNL1       -0.2697
     19 N         -28.1318   48.3292   -4.3820 N.am    1  UNL1       -0.2803
     20 H         -27.1483   48.1632   -4.6935 H       1  UNL1        0.1552
     21 C         -28.5721   47.6630   -3.1870 C.ar    1  UNL1        0.0506
     22 C         -28.4362   46.2722   -3.0891 C.ar    1  UNL1        0.0170
     23 C         -28.8827   45.5972   -1.9522 C.ar    1  UNL1        0.0309
     24 C         -29.4797   46.3014   -0.9039 C.ar    1  UNL1        0.1441
     25 F         -29.9194   45.6182    0.1835 F       1  UNL1       -0.2042
     26 C         -29.6366   47.6977   -0.9849 C.ar    1  UNL1        0.1000
     27 C         -29.1971   48.3685   -2.1427 C.ar    1  UNL1        0.0208
     28 C         -30.3221   48.4426    0.1360 C.3     1  UNL1        0.4207
     29 F         -29.4910   48.5939    1.2328 F       1  UNL1       -0.1658
     30 F         -30.6992   49.6955   -0.3110 F       1  UNL1       -0.1658
     31 F         -31.4490   47.7487    0.5394 F       1  UNL1       -0.1658
     32 N         -25.2025   53.2037   -9.9694 N.pl3   1  UNL1       -0.2814
     33 H         -25.5299   54.1820  -10.1330 H       1  UNL1        0.1551
     34 C         -23.8437   52.8743  -10.3064 C.ar    1  UNL1        0.0889
     35 C         -23.4430   51.5323  -10.4752 C.ar    1  UNL1        0.1543
     36 F         -24.3236   50.5148  -10.3010 F       1  UNL1       -0.2028
     37 C         -22.1165   51.2290  -10.7955 C.ar    1  UNL1        0.0310
     38 C         -21.1772   52.2511  -10.9392 C.ar    1  UNL1        0.0033
     39 C         -21.5588   53.5815  -10.7572 C.ar    1  UNL1        0.0128
     40 C         -22.8839   53.8982  -10.4364 C.ar    1  UNL1        0.0733
     41 CL        -23.3251   55.5900  -10.2438 Cl      1  UNL1       -0.0809
@<TRIPOS>BOND
     1     1     2    1
     2     2     3   ar
     3     3    32    1
     4    32    34    1
     5    34    35   ar
     6    35    36    1
     7    35    37   ar
     8    37    38   ar
     9    38    39   ar
    10    39    40   ar
    11    40    41    1
    12     3     4   ar
    13     4     5   ar
    14     5     6   ar
    15     6     7    1
    16     6     8   ar
    17     8    17    1
    18    17    18    2
    19    17    19   am
    20    19    21    1
    21    21    22   ar
    22    22    23   ar
    23    23    24   ar
    24    24    25    1
    25    24    26   ar
    26    26    28    1
    27    28    29    1
    28    28    30    1
    29    28    31    1
    30    26    27   ar
    31     8     9   ar
    32     9    10   ar
    33    10    11   ar
    34    10    12    1
    35    12    13    1
    36    13    14    1
    37    14    15    1
    38    11     2   ar
    39    40    34   ar
    40    11     5   ar
    41    27    21   ar
    42    15     9    1
    43    32    33    1
    44     7    16    1
    45    19    20    1
@<TRIPOS>MOLECULE
*****
 41 45 0 0 0
SMALL
GASTEIGER

@<TRIPOS>ATOM
      1 C         -25.9605   47.3525   -7.1683 C.3     1  UNL1        0.1333
      2 N         -27.1348   47.9813   -6.5625 N.ar    1  UNL1       -0.2950
      3 C         -28.0280   48.8355   -7.1342 C.ar    1  UNL1        0.2019
      4 N         -29.0612   49.1682   -6.3205 N.ar    1  UNL1       -0.2129
      5 C         -28.7731   48.5125   -5.1806 C.ar    1  UNL1        0.1086
      6 C         -29.5071   48.5203   -3.9921 C.ar    1  UNL1        0.0482
      7 S         -31.0457   49.4468   -3.9019 S.3     1  UNL1       -0.1397
      8 C         -29.0187   47.7510   -2.9020 C.ar    1  UNL1        0.0975
      9 C         -27.8078   47.0213   -3.0483 C.ar    1  UNL1        0.1787
     10 C         -27.0858   47.0615   -4.2581 C.ar    1  UNL1        0.1897
     11 C         -27.6134   47.8032   -5.3167 C.ar    1  UNL1        0.1178
     12 O         -25.8683   46.3806   -4.3538 O.3     1  UNL1       -0.4669
     13 C         -25.2101   45.8778   -3.1896 C.3     1  UNL1        0.2527
     14 C         -26.2385   45.3164   -2.2011 C.3     1  UNL1        0.2526
     15 O         -27.2879   46.2636   -1.9911 O.3     1  UNL1       -0.4682
     16 H         -31.7981   48.3412   -4.3403 H       1  UNL1        0.1072
     17 C         -29.7541   47.7042   -1.6217 C.2     1  UNL1        0.2531
     18 O         -30.9758   47.3921   -1.6249 O.2     1  UNL1       -0.2697
     19 N         -29.0910   48.0414   -0.3913 N.am    1  UNL1       -0.2803
     20 H         -28.1325   48.4547   -0.4405 H       1  UNL1        0.1552
     21 C         -29.6950   47.9159    0.9068 C.ar    1  UNL1        0.0506
     22 C         -30.3598   46.7288    1.2404 C.ar    1  UNL1        0.0170
     23 C         -30.9804   46.5921    2.4830 C.ar    1  UNL1        0.0309
     24 C         -30.9535   47.6427    3.4032 C.ar    1  UNL1        0.1441
     25 F         -31.5785   47.4889    4.5983 F       1  UNL1       -0.2042
     26 C         -30.3007   48.8485    3.0855 C.ar    1  UNL1        0.1000
     27 C         -29.6906   48.9831    1.8233 C.ar    1  UNL1        0.0208
     28 C         -30.3150   49.9925    4.0716 C.3     1  UNL1        0.4207
     29 F         -31.5838   50.2142    4.5792 F       1  UNL1       -0.1658
     30 F         -29.4619   49.7027    5.1206 F       1  UNL1       -0.1658
     31 F         -29.8887   51.1525    3.4498 F       1  UNL1       -0.1658
     32 N         -27.9214   49.3488   -8.4692 N.pl3   1  UNL1       -0.2814
     33 H         -28.7054   49.1415   -9.1274 H       1  UNL1        0.1551
     34 C         -26.8921   50.2566   -8.8994 C.ar    1  UNL1        0.0889
     35 C         -25.9723   49.8875   -9.9033 C.ar    1  UNL1        0.1543
     36 F         -26.0194   48.6572  -10.4734 F       1  UNL1       -0.2028
     37 C         -24.9734   50.7792  -10.3046 C.ar    1  UNL1        0.0310
     38 C         -24.8722   52.0362   -9.7068 C.ar    1  UNL1        0.0033
     39 C         -25.7662   52.4053   -8.7002 C.ar    1  UNL1        0.0128
     40 C         -26.7708   51.5215   -8.2895 C.ar    1  UNL1        0.0733
     41 CL        -27.8919   52.0401   -7.0373 Cl      1  UNL1       -0.0809
@<TRIPOS>BOND
     1     1     2    1
     2     2     3   ar
     3     3    32    1
     4    32    34    1
     5    34    35   ar
     6    35    36    1
     7    35    37   ar
     8    37    38   ar
     9    38    39   ar
    10    39    40   ar
    11    40    41    1
    12     3     4   ar
    13     4     5   ar
    14     5     6   ar
    15     6     7    1
    16     6     8   ar
    17     8    17    1
    18    17    18    2
    19    17    19   am
    20    19    21    1
    21    21    22   ar
    22    22    23   ar
    23    23    24   ar
    24    24    25    1
    25    24    26   ar
    26    26    28    1
    27    28    29    1
    28    28    30    1
    29    28    31    1
    30    26    27   ar
    31     8     9   ar
    32     9    10   ar
    33    10    11   ar
    34    10    12    1
    35    12    13    1
    36    13    14    1
    37    14    15    1
    38    11     2   ar
    39    40    34   ar
    40    11     5   ar
    41    27    21   ar
    42    15     9    1
    43    32    33    1
    44     7    16    1
    45    19    20    1
@<TRIPOS>MOLECULE
*****
 41 45 0 0 0
SMALL
GASTEIGER

@<TRIPOS>ATOM
      1 C         -30.5604   50.1060  -13.7282 C.3     1  UNL1        0.1333
      2 N         -30.4009   48.8270  -13.0350 N.ar    1  UNL1       -0.2950
      3 C         -30.7731   47.5853  -13.4518 C.ar    1  UNL1        0.2019
      4 N         -30.3983   46.5920  -12.6073 N.ar    1  UNL1       -0.2129
      5 C         -29.7942   47.2575  -11.6051 C.ar    1  UNL1        0.1086
      6 C         -29.2308   46.7141  -10.4481 C.ar    1  UNL1        0.0482
      7 S         -29.2280   44.9315  -10.2118 S.3     1  UNL1       -0.1397
      8 C         -28.6395   47.6052   -9.5127 C.ar    1  UNL1        0.0975
      9 C         -28.6540   49.0025   -9.7728 C.ar    1  UNL1        0.1787
     10 C         -29.2557   49.5100  -10.9420 C.ar    1  UNL1        0.1897
     11 C         -29.7986   48.6012  -11.8522 C.ar    1  UNL1        0.1178
     12 O         -29.3063   50.8928  -11.1431 O.3     1  UNL1       -0.4669
     13 C         -29.0137   51.8044  -10.0825 C.3     1  UNL1        0.2527
     14 C         -27.8537   51.2730   -9.2329 C.3     1  UNL1        0.2526
     15 O         -28.0940   49.9124   -8.8671 O.3     1  UNL1       -0.4682
     16 H         -27.9867   44.7948  -10.8609 H       1  UNL1        0.1072
     17 C         -28.0136   47.0950   -8.2757 C.2     1  UNL1        0.2531
     18 O         -26.9427   46.4342   -8.3553 O.2     1  UNL1       -0.2697
     19 N         -28.6364   47.3233   -7.0000 N.am    1  UNL1       -0.2803
     20 H         -29.6007   47.7253   -6.9827 H       1  UNL1        0.1552
     21 C         -28.0439   46.9621   -5.7414 C.ar    1  UNL1        0.0506
     22 C         -28.0822   45.6249   -5.3257 C.ar    1  UNL1        0.0170
     23 C         -27.5406   45.2522   -4.0946 C.ar    1  UNL1        0.0309
     24 C         -26.9638   46.2118   -3.2593 C.ar    1  UNL1        0.1441
     25 F         -26.4586   45.8245   -2.0604 F       1  UNL1       -0.2042
     26 C         -26.9237   47.5629   -3.6515 C.ar    1  UNL1        0.1000
     27 C         -27.4865   47.9321   -4.8887 C.ar    1  UNL1        0.0208
     28 C         -26.3359   48.5976   -2.7214 C.3     1  UNL1        0.4207
     29 F         -26.2418   49.8376   -3.3298 F       1  UNL1       -0.1658
     30 F         -27.1375   48.7130   -1.6006 F       1  UNL1       -0.1658
     31 F         -25.0665   48.2095   -2.3310 F       1  UNL1       -0.1658
     32 N         -31.4878   47.3161  -14.6658 N.pl3   1  UNL1       -0.2814
     33 H         -32.4719   47.6603  -14.7301 H       1  UNL1        0.1551
     34 C         -30.8843   46.7532  -15.8437 C.ar    1  UNL1        0.0889
     35 C         -30.6559   45.3651  -15.9492 C.ar    1  UNL1        0.1543
     36 F         -30.9779   44.5265  -14.9323 F       1  UNL1       -0.2028
     37 C         -30.0615   44.8351  -17.0981 C.ar    1  UNL1        0.0310
     38 C         -29.6797   45.6770  -18.1436 C.ar    1  UNL1        0.0033
     39 C         -29.8850   47.0541  -18.0425 C.ar    1  UNL1        0.0128
     40 C         -30.4792   47.5970  -16.8975 C.ar    1  UNL1        0.0733
     41 CL        -30.7436   49.3345  -16.8260 Cl      1  UNL1       -0.0809
@<TRIPOS>BOND
     1     1     2    1
     2     2     3   ar
     3     3    32    1
     4    32    34    1
     5    34    35   ar
     6    35    36    1
     7    35    37   ar
     8    37    38   ar
     9    38    39   ar
    10    39    40   ar
    11    40    41    1
    12     3     4   ar
    13     4     5   ar
    14     5     6   ar
    15     6     7    1
    16     6     8   ar
    17     8    17    1
    18    17    18    2
    19    17    19   am
    20    19    21    1
    21    21    22   ar
    22    22    23   ar
    23    23    24   ar
    24    24    25    1
    25    24    26   ar
    26    26    28    1
    27    28    29    1
    28    28    30    1
    29    28    31    1
    30    26    27   ar
    31     8     9   ar
    32     9    10   ar
    33    10    11   ar
    34    10    12    1
    35    12    13    1
    36    13    14    1
    37    14    15    1
    38    11     2   ar
    39    40    34   ar
    40    11     5   ar
    41    27    21   ar
    42    15     9    1
    43    32    33    1
    44     7    16    1
    45    19    20    1
@<TRIPOS>MOLECULE
*****
 41 45 0 0 0
SMALL
GASTEIGER

@<TRIPOS>ATOM
      1 C         -22.5115   53.8363  -12.2923 C.3     1  UNL1        0.1333
      2 N         -22.7583   52.9825  -11.1298 N.ar    1  UNL1       -0.2950
      3 C         -22.0248   52.8734   -9.9876 C.ar    1  UNL1        0.2019
      4 N         -22.5787   52.0522   -9.0608 N.ar    1  UNL1       -0.2129
      5 C         -23.6914   51.6081   -9.6749 C.ar    1  UNL1        0.1086
      6 C         -24.6341   50.7093   -9.1703 C.ar    1  UNL1        0.0482
      7 S         -24.4416   50.0586   -7.5050 S.3     1  UNL1       -0.1397
      8 C         -25.7429   50.3743   -9.9932 C.ar    1  UNL1        0.0975
      9 C         -25.8475   50.9440  -11.2911 C.ar    1  UNL1        0.1787
     10 C         -24.8597   51.8281  -11.7701 C.ar    1  UNL1        0.1897
     11 C         -23.8017   52.1575  -10.9209 C.ar    1  UNL1        0.1178
     12 O         -24.9588   52.3275  -13.0723 O.3     1  UNL1       -0.4669
     13 C         -25.8731   51.7609  -14.0129 C.3     1  UNL1        0.2527
     14 C         -27.1861   51.3876  -13.3156 C.3     1  UNL1        0.2526
     15 O         -26.9184   50.6261  -12.1362 O.3     1  UNL1       -0.4682
     16 H         -25.1797   51.1198   -6.9487 H       1  UNL1        0.1072
     17 C         -26.7832   49.4411   -9.5148 C.2     1  UNL1        0.2531
     18 O         -27.8368   49.9052   -9.0006 O.2     1  UNL1       -0.2697
     19 N         -26.5814   48.0204   -9.6066 N.am    1  UNL1       -0.2803
     20 H         -25.6360   47.6696   -9.8806 H       1  UNL1        0.1552
     21 C         -27.5812   47.0442   -9.2706 C.ar    1  UNL1        0.0506
     22 C         -28.1471   46.2658  -10.2886 C.ar    1  UNL1        0.0170
     23 C         -29.1410   45.3315   -9.9936 C.ar    1  UNL1        0.0309
     24 C         -29.5890   45.1706   -8.6803 C.ar    1  UNL1        0.1441
     25 F         -30.5679   44.2658   -8.4237 F       1  UNL1       -0.2042
     26 C         -29.0426   45.9492   -7.6430 C.ar    1  UNL1        0.1000
     27 C         -28.0511   46.9005   -7.9525 C.ar    1  UNL1        0.0208
     28 C         -29.5652   45.7964   -6.2342 C.3     1  UNL1        0.4207
     29 F         -30.9238   46.0521   -6.1622 F       1  UNL1       -0.1658
     30 F         -29.3331   44.5049   -5.7980 F       1  UNL1       -0.1658
     31 F         -28.9131   46.6812   -5.3939 F       1  UNL1       -0.1658
     32 N         -20.7844   53.5532   -9.7508 N.pl3   1  UNL1       -0.2814
     33 H         -20.8244   54.5854   -9.5957 H       1  UNL1        0.1551
     34 C         -19.5274   52.8826   -9.5540 C.ar    1  UNL1        0.0889
     35 C         -18.7990   52.3707  -10.6483 C.ar    1  UNL1        0.1543
     36 F         -19.2764   52.4765  -11.9139 F       1  UNL1       -0.2028
     37 C         -17.5823   51.7150  -10.4389 C.ar    1  UNL1        0.0310
     38 C         -17.0856   51.5525   -9.1449 C.ar    1  UNL1        0.0033
     39 C         -17.8065   52.0397   -8.0532 C.ar    1  UNL1        0.0128
     40 C         -19.0259   52.6980   -8.2498 C.ar    1  UNL1        0.0733
     41 CL        -19.8858   53.3197   -6.8469 Cl      1  UNL1       -0.0809
@<TRIPOS>BOND
     1     1     2    1
     2     2     3   ar
     3     3    32    1
     4    32    34    1
     5    34    35   ar
     6    35    36    1
     7    35    37   ar
     8    37    38   ar
     9    38    39   ar
    10    39    40   ar
    11    40    41    1
    12     3     4   ar
    13     4     5   ar
    14     5     6   ar
    15     6     7    1
    16     6     8   ar
    17     8    17    1
    18    17    18    2
    19    17    19   am
    20    19    21    1
    21    21    22   ar
    22    22    23   ar
    23    23    24   ar
    24    24    25    1
    25    24    26   ar
    26    26    28    1
    27    28    29    1
    28    28    30    1
    29    28    31    1
    30    26    27   ar
    31     8     9   ar
    32     9    10   ar
    33    10    11   ar
    34    10    12    1
    35    12    13    1
    36    13    14    1
    37    14    15    1
    38    11     2   ar
    39    40    34   ar
    40    11     5   ar
    41    27    21   ar
    42    15     9    1
    43    32    33    1
    44     7    16    1
    45    19    20    1
@<TRIPOS>MOLECULE
*****
 41 45 0 0 0
SMALL
GASTEIGER

@<TRIPOS>ATOM
      1 C         -24.5464   52.1781  -12.3648 C.3     1  UNL1        0.1333
      2 N         -24.5304   51.6490  -11.0005 N.ar    1  UNL1       -0.2950
      3 C         -23.4605   51.4469  -10.1827 C.ar    1  UNL1        0.2019
      4 N         -23.7981   51.0253   -8.9383 N.ar    1  UNL1       -0.2129
      5 C         -25.1394   50.9318   -9.0029 C.ar    1  UNL1        0.1086
      6 C         -26.0080   50.5190   -7.9897 C.ar    1  UNL1        0.0482
      7 S         -25.3493   50.0899   -6.3723 S.3     1  UNL1       -0.1397
      8 C         -27.3999   50.4944   -8.2738 C.ar    1  UNL1        0.0975
      9 C         -27.8562   50.8699   -9.5664 C.ar    1  UNL1        0.1787
     10 C         -26.9422   51.2564  -10.5674 C.ar    1  UNL1        0.1897
     11 C         -25.5854   51.2981  -10.2412 C.ar    1  UNL1        0.1178
     12 O         -27.4152   51.5646  -11.8466 O.3     1  UNL1       -0.4669
     13 C         -28.7501   51.2392  -12.2386 C.3     1  UNL1        0.2527
     14 C         -29.7160   51.4724  -11.0714 C.3     1  UNL1        0.2526
     15 O         -29.2193   50.8441   -9.8878 O.3     1  UNL1       -0.4682
     16 H         -25.4700   51.4149   -5.9137 H       1  UNL1        0.1072
     17 C         -28.3736   50.0816   -7.2425 C.2     1  UNL1        0.2531
     18 O         -29.2771   49.2556   -7.5448 O.2     1  UNL1       -0.2697
     19 N         -28.3094   50.6400   -5.9191 N.am    1  UNL1       -0.2803
     20 H         -27.6594   51.4402   -5.7484 H       1  UNL1        0.1552
     21 C         -29.1419   50.2151   -4.8272 C.ar    1  UNL1        0.0506
     22 C         -30.3841   50.8328   -4.6330 C.ar    1  UNL1        0.0170
     23 C         -31.1988   50.4598   -3.5631 C.ar    1  UNL1        0.0309
     24 C         -30.7785   49.4728   -2.6684 C.ar    1  UNL1        0.1441
     25 F         -31.5837   49.1402   -1.6274 F       1  UNL1       -0.2042
     26 C         -29.5297   48.8461   -2.8376 C.ar    1  UNL1        0.1000
     27 C         -28.7075   49.2400   -3.9111 C.ar    1  UNL1        0.0208
     28 C         -29.0677   47.8109   -1.8394 C.3     1  UNL1        0.4207
     29 F         -29.8349   46.6603   -1.9037 F       1  UNL1       -0.1658
     30 F         -27.7504   47.4809   -2.0994 F       1  UNL1       -0.1658
     31 F         -29.1609   48.3221   -0.5571 F       1  UNL1       -0.1658
     32 N         -22.0944   51.6568  -10.5654 N.pl3   1  UNL1       -0.2814
     33 H         -21.7316   51.1033  -11.3734 H       1  UNL1        0.1551
     34 C         -21.2568   52.6882  -10.0147 C.ar    1  UNL1        0.0889
     35 C         -20.8276   52.6346   -8.6720 C.ar    1  UNL1        0.1543
     36 F         -21.2129   51.6204   -7.8572 F       1  UNL1       -0.2028
     37 C         -20.0197   53.6492   -8.1505 C.ar    1  UNL1        0.0310
     38 C         -19.6417   54.7277   -8.9514 C.ar    1  UNL1        0.0033
     39 C         -20.0750   54.7999  -10.2764 C.ar    1  UNL1        0.0128
     40 C         -20.8842   53.7903  -10.8104 C.ar    1  UNL1        0.0733
     41 CL        -21.3832   53.9092  -12.4929 Cl      1  UNL1       -0.0809
@<TRIPOS>BOND
     1     1     2    1
     2     2     3   ar
     3     3    32    1
     4    32    34    1
     5    34    35   ar
     6    35    36    1
     7    35    37   ar
     8    37    38   ar
     9    38    39   ar
    10    39    40   ar
    11    40    41    1
    12     3     4   ar
    13     4     5   ar
    14     5     6   ar
    15     6     7    1
    16     6     8   ar
    17     8    17    1
    18    17    18    2
    19    17    19   am
    20    19    21    1
    21    21    22   ar
    22    22    23   ar
    23    23    24   ar
    24    24    25    1
    25    24    26   ar
    26    26    28    1
    27    28    29    1
    28    28    30    1
    29    28    31    1
    30    26    27   ar
    31     8     9   ar
    32     9    10   ar
    33    10    11   ar
    34    10    12    1
    35    12    13    1
    36    13    14    1
    37    14    15    1
    38    11     2   ar
    39    40    34   ar
    40    11     5   ar
    41    27    21   ar
    42    15     9    1
    43    32    33    1
    44     7    16    1
    45    19    20    1
