@<TRIPOS>MOLECULE
*****
 37 42 0 0 0
SMALL
GASTEIGER

@<TRIPOS>ATOM
      1 C          48.6091   12.0574  -25.5529 C.ar    1  UNL1        0.1092
      2 N          48.5699   11.4893  -26.7846 N.ar    1  UNL1       -0.1677
      3 N          47.3002   11.4173  -27.1670 N.ar    1  UNL1       -0.2319
      4 C          46.8494   10.7705  -28.3917 C.3     1  UNL1        0.1554
      5 C          46.5316   11.8891  -26.1733 C.ar    1  UNL1        0.1654
      6 N          45.1784   11.8795  -26.1101 N.ar    1  UNL1       -0.2050
      7 C          44.5843   12.3510  -24.9740 C.ar    1  UNL1        0.2014
      8 N          45.3445   12.8283  -23.9381 N.ar    1  UNL1       -0.2089
      9 C          46.7105   12.8313  -23.9922 C.ar    1  UNL1        0.1379
     10 C          47.3093   12.3219  -25.1454 C.ar    1  UNL1        0.0865
     11 C          50.7019   13.1162  -24.5150 C.ar    1  UNL1        0.0805
     12 C          49.8192   12.0696  -24.7188 C.ar    1  UNL1        0.0520
     13 C          50.3448   11.0114  -23.9906 C.ar    1  UNL1        0.0811
     14 N          51.4821   11.4121  -23.3836 N.ar    1  UNL1       -0.1736
     15 N          51.6865   12.6822  -23.6973 N.ar    1  UNL1       -0.2491
     16 C          52.8174   13.4537  -23.1930 C.3     1  UNL1        0.1537
     17 C          50.1344   18.4992  -26.5719 C.3     1  UNL1        0.0310
     18 C          50.3191   17.1057  -26.0490 C.ar    1  UNL1       -0.0218
     19 C          50.6327   16.8932  -24.6983 C.ar    1  UNL1       -0.0042
     20 C          50.7678   15.5935  -24.2021 C.ar    1  UNL1        0.0012
     21 C          50.5757   14.4893  -25.0463 C.ar    1  UNL1        0.0174
     22 C          50.2477   14.7022  -26.3933 C.ar    1  UNL1        0.0012
     23 C          50.1135   16.0018  -26.8900 C.ar    1  UNL1       -0.0042
     24 C          49.8240    9.5929  -23.9683 C.3     1  UNL1        0.0421
     25 C          49.5966    9.0992  -22.5346 C.3     1  UNL1        0.0064
     26 C          50.7931    8.6566  -24.6981 C.3     1  UNL1        0.0064
     27 N          47.4701   13.4519  -22.9483 N.pl3   1  UNL1       -0.2917
     28 C          47.5879   14.8987  -22.8579 C.3     1  UNL1        0.0937
     29 C          48.2842   15.1742  -21.5352 C.3     1  UNL1        0.0391
     30 C          48.0159   13.9262  -20.6845 C.3     1  UNL1        0.0790
     31 C          47.7430   12.7900  -21.6825 C.3     1  UNL1        0.1081
     32 N          49.0953   13.6591  -19.6983 N.3     1  UNL1       -0.2723
     33 C          50.3304   13.0178  -20.2244 C.3     1  UNL1        0.0721
     34 C          50.8530   11.8715  -19.3446 C.3     1  UNL1        0.0174
     35 C          49.7274   10.8988  -18.9861 C.3     1  UNL1        0.0029
     36 C          48.4989   11.6041  -18.3829 C.3     1  UNL1        0.0174
     37 C          48.6057   13.1369  -18.4028 C.3     1  UNL1        0.0721
@<TRIPOS>BOND
     1    17    18    1
     2    18    19   ar
     3    19    20   ar
     4    20    21   ar
     5    21    11    1
     6    11    12   ar
     7    12     1    1
     8     1     2   ar
     9     2     3   ar
    10     3     4    1
    11     3     5   ar
    12     5     6   ar
    13     6     7   ar
    14     7     8   ar
    15     8     9   ar
    16     9    27    1
    17    27    28    1
    18    28    29    1
    19    29    30    1
    20    30    32    1
    21    32    33    1
    22    33    34    1
    23    34    35    1
    24    35    36    1
    25    36    37    1
    26    30    31    1
    27     9    10   ar
    28    12    13   ar
    29    13    24    1
    30    24    25    1
    31    24    26    1
    32    13    14   ar
    33    14    15   ar
    34    15    16    1
    35    21    22   ar
    36    22    23   ar
    37    23    18   ar
    38    15    11   ar
    39    10     1   ar
    40    10     5   ar
    41    31    27    1
    42    37    32    1
@<TRIPOS>MOLECULE
*****
 37 42 0 0 0
SMALL
GASTEIGER

@<TRIPOS>ATOM
      1 C          49.4829   10.4583  -26.1083 C.ar    1  UNL1        0.1092
      2 N          49.3123    9.3053  -26.8030 N.ar    1  UNL1       -0.1677
      3 N          50.3855    9.1167  -27.5621 N.ar    1  UNL1       -0.2319
      4 C          50.5246    8.0368  -28.5296 C.3     1  UNL1        0.1554
      5 C          51.2124   10.1598  -27.3923 C.ar    1  UNL1        0.1654
      6 N          52.3567   10.4161  -28.0708 N.ar    1  UNL1       -0.2050
      7 C          53.0243   11.5747  -27.7914 C.ar    1  UNL1        0.2014
      8 N          52.5474   12.4407  -26.8420 N.ar    1  UNL1       -0.2089
      9 C          51.3882   12.1922  -26.1613 C.ar    1  UNL1        0.1379
     10 C          50.6982   11.0198  -26.4732 C.ar    1  UNL1        0.0865
     11 C          47.2939   11.7726  -25.8655 C.ar    1  UNL1        0.0805
     12 C          48.3966   11.1062  -25.3596 C.ar    1  UNL1        0.0520
     13 C          48.2777   11.2130  -23.9809 C.ar    1  UNL1        0.0811
     14 N          47.1584   11.9070  -23.6846 N.ar    1  UNL1       -0.1736
     15 N          46.5671   12.2336  -24.8234 N.ar    1  UNL1       -0.2491
     16 C          45.3095   12.9707  -24.8837 C.3     1  UNL1        0.1537
     17 C          45.7967   12.3317  -31.4310 C.3     1  UNL1        0.0310
     18 C          46.2216   12.1931  -29.9993 C.ar    1  UNL1       -0.0218
     19 C          46.2172   13.3091  -29.1494 C.ar    1  UNL1       -0.0042
     20 C          46.5770   13.1730  -27.8056 C.ar    1  UNL1        0.0012
     21 C          46.9308   11.9167  -27.2906 C.ar    1  UNL1        0.0174
     22 C          46.9209   10.7986  -28.1374 C.ar    1  UNL1        0.0012
     23 C          46.5620   10.9345  -29.4815 C.ar    1  UNL1       -0.0042
     24 C          49.2889   10.7533  -22.9561 C.3     1  UNL1        0.0421
     25 C          49.3600    9.2235  -22.8823 C.3     1  UNL1        0.0064
     26 C          48.9515   11.3301  -21.5769 C.3     1  UNL1        0.0064
     27 N          50.9855   13.0524  -25.0889 N.pl3   1  UNL1       -0.2917
     28 C          51.6678   13.0286  -23.8048 C.3     1  UNL1        0.0937
     29 C          51.0999   14.1958  -23.0141 C.3     1  UNL1        0.0391
     30 C          50.5519   15.1579  -24.0758 C.3     1  UNL1        0.0790
     31 C          50.2638   14.2947  -25.3141 C.3     1  UNL1        0.1081
     32 N          49.4049   15.9650  -23.5839 N.3     1  UNL1       -0.2723
     33 C          48.1718   15.2143  -23.2240 C.3     1  UNL1        0.0721
     34 C          46.8811   15.8571  -23.7552 C.3     1  UNL1        0.0174
     35 C          47.0119   16.2026  -25.2402 C.3     1  UNL1        0.0029
     36 C          48.2680   17.0373  -25.5503 C.3     1  UNL1        0.0174
     37 C          49.1918   17.2217  -24.3362 C.3     1  UNL1        0.0721
@<TRIPOS>BOND
     1    17    18    1
     2    18    19   ar
     3    19    20   ar
     4    20    21   ar
     5    21    11    1
     6    11    12   ar
     7    12     1    1
     8     1     2   ar
     9     2     3   ar
    10     3     4    1
    11     3     5   ar
    12     5     6   ar
    13     6     7   ar
    14     7     8   ar
    15     8     9   ar
    16     9    27    1
    17    27    28    1
    18    28    29    1
    19    29    30    1
    20    30    32    1
    21    32    33    1
    22    33    34    1
    23    34    35    1
    24    35    36    1
    25    36    37    1
    26    30    31    1
    27     9    10   ar
    28    12    13   ar
    29    13    24    1
    30    24    25    1
    31    24    26    1
    32    13    14   ar
    33    14    15   ar
    34    15    16    1
    35    21    22   ar
    36    22    23   ar
    37    23    18   ar
    38    15    11   ar
    39    10     1   ar
    40    10     5   ar
    41    31    27    1
    42    37    32    1
@<TRIPOS>MOLECULE
*****
 37 42 0 0 0
SMALL
GASTEIGER

@<TRIPOS>ATOM
      1 C          47.9865   12.7884  -25.9086 C.ar    1  UNL1        0.1092
      2 N          47.2728   12.4780  -27.0201 N.ar    1  UNL1       -0.1677
      3 N          46.9456   13.6105  -27.6316 N.ar    1  UNL1       -0.2319
      4 C          46.0876   13.6883  -28.8062 C.3     1  UNL1        0.1554
      5 C          47.4023   14.6357  -26.8963 C.ar    1  UNL1        0.1654
      6 N          47.1771   15.9556  -27.1029 N.ar    1  UNL1       -0.2050
      7 C          47.6798   16.8437  -26.1949 C.ar    1  UNL1        0.2014
      8 N          48.3998   16.4022  -25.1153 N.ar    1  UNL1       -0.2089
      9 C          48.6218   15.0713  -24.8963 C.ar    1  UNL1        0.1379
     10 C          48.0806   14.1697  -25.8140 C.ar    1  UNL1        0.0865
     11 C          49.2501   10.7981  -24.8986 C.ar    1  UNL1        0.0805
     12 C          48.3010   11.8051  -24.8625 C.ar    1  UNL1        0.0520
     13 C          47.6766   11.6642  -23.6310 C.ar    1  UNL1        0.0811
     14 N          48.2302   10.6260  -22.9691 N.ar    1  UNL1       -0.1736
     15 N          49.1818   10.1146  -23.7347 N.ar    1  UNL1       -0.2491
     16 C          50.0129    8.9880  -23.3243 C.3     1  UNL1        0.1537
     17 C          53.0556    9.7146  -29.1263 C.3     1  UNL1        0.0310
     18 C          52.0540   10.0230  -28.0534 C.ar    1  UNL1       -0.0218
     19 C          50.8430    9.3176  -27.9929 C.ar    1  UNL1       -0.0042
     20 C          49.9257    9.5784  -26.9710 C.ar    1  UNL1        0.0012
     21 C          50.2141   10.5368  -25.9876 C.ar    1  UNL1        0.0174
     22 C          51.4314   11.2314  -26.0403 C.ar    1  UNL1        0.0012
     23 C          52.3486   10.9715  -27.0626 C.ar    1  UNL1       -0.0042
     24 C          46.4807   12.4457  -23.1381 C.3     1  UNL1        0.0421
     25 C          46.0475   11.9895  -21.7399 C.3     1  UNL1        0.0064
     26 C          45.3120   12.3095  -24.1200 C.3     1  UNL1        0.0064
     27 N          49.4830   14.6516  -23.8313 N.pl3   1  UNL1       -0.2917
     28 C          50.8295   14.1692  -24.0944 C.3     1  UNL1        0.0937
     29 C          51.4865   14.0159  -22.7323 C.3     1  UNL1        0.0391
     30 C          50.6944   14.9501  -21.8086 C.3     1  UNL1        0.0790
     31 C          49.3135   15.1134  -22.4627 C.3     1  UNL1        0.1081
     32 N          50.6772   14.4847  -20.3972 N.3     1  UNL1       -0.2723
     33 C          51.8686   13.7223  -19.9357 C.3     1  UNL1        0.0721
     34 C          51.5200   12.4657  -19.1230 C.3     1  UNL1        0.0174
     35 C          50.4589   11.6270  -19.8388 C.3     1  UNL1        0.0029
     36 C          49.2175   12.4471  -20.2350 C.3     1  UNL1        0.0174
     37 C          49.3678   13.9514  -19.9595 C.3     1  UNL1        0.0721
@<TRIPOS>BOND
     1    17    18    1
     2    18    19   ar
     3    19    20   ar
     4    20    21   ar
     5    21    11    1
     6    11    12   ar
     7    12     1    1
     8     1     2   ar
     9     2     3   ar
    10     3     4    1
    11     3     5   ar
    12     5     6   ar
    13     6     7   ar
    14     7     8   ar
    15     8     9   ar
    16     9    27    1
    17    27    28    1
    18    28    29    1
    19    29    30    1
    20    30    32    1
    21    32    33    1
    22    33    34    1
    23    34    35    1
    24    35    36    1
    25    36    37    1
    26    30    31    1
    27     9    10   ar
    28    12    13   ar
    29    13    24    1
    30    24    25    1
    31    24    26    1
    32    13    14   ar
    33    14    15   ar
    34    15    16    1
    35    21    22   ar
    36    22    23   ar
    37    23    18   ar
    38    15    11   ar
    39    10     1   ar
    40    10     5   ar
    41    31    27    1
    42    37    32    1
@<TRIPOS>MOLECULE
*****
 37 42 0 0 0
SMALL
GASTEIGER

@<TRIPOS>ATOM
      1 C          49.1303   11.7337  -24.3733 C.ar    1  UNL1        0.1092
      2 N          49.0737   10.4162  -24.0538 N.ar    1  UNL1       -0.1677
      3 N          50.1260    9.8135  -24.5951 N.ar    1  UNL1       -0.2319
      4 C          50.3546    8.3754  -24.5580 C.3     1  UNL1        0.1554
      5 C          50.8225   10.7238  -25.2928 C.ar    1  UNL1        0.1654
      6 N          51.8931   10.4986  -26.0919 N.ar    1  UNL1       -0.2050
      7 C          52.4224   11.5586  -26.7718 C.ar    1  UNL1        0.2014
      8 N          51.8850   12.8120  -26.6335 N.ar    1  UNL1       -0.2089
      9 C          50.7988   13.0434  -25.8365 C.ar    1  UNL1        0.1379
     10 C          50.2476   11.9494  -25.1676 C.ar    1  UNL1        0.0865
     11 C          47.0436   13.0549  -25.0650 C.ar    1  UNL1        0.0805
     12 C          48.0071   12.6561  -24.1547 C.ar    1  UNL1        0.0520
     13 C          47.7068   13.3483  -22.9898 C.ar    1  UNL1        0.0811
     14 N          46.6176   14.1178  -23.1992 N.ar    1  UNL1       -0.1736
     15 N          46.2191   13.9300  -24.4479 N.ar    1  UNL1       -0.2491
     16 C          45.0466   14.5867  -25.0157 C.3     1  UNL1        0.1537
     17 C          46.3858   11.1759  -30.5025 C.3     1  UNL1        0.0310
     18 C          46.5944   11.6664  -29.1006 C.ar    1  UNL1       -0.0218
     19 C          46.4660   13.0312  -28.8027 C.ar    1  UNL1       -0.0042
     20 C          46.6232   13.4837  -27.4896 C.ar    1  UNL1        0.0012
     21 C          46.8952   12.5758  -26.4550 C.ar    1  UNL1        0.0174
     22 C          47.0090   11.2095  -26.7512 C.ar    1  UNL1        0.0012
     23 C          46.8528   10.7567  -28.0644 C.ar    1  UNL1       -0.0042
     24 C          48.5246   13.3611  -21.7190 C.3     1  UNL1        0.0421
     25 C          47.7826   12.6762  -20.5652 C.3     1  UNL1        0.0064
     26 C          48.8857   14.7989  -21.3306 C.3     1  UNL1        0.0064
     27 N          50.3413   14.3827  -25.6154 N.pl3   1  UNL1       -0.2917
     28 C          50.7397   15.1315  -24.4340 C.3     1  UNL1        0.0937
     29 C          50.2307   16.5471  -24.6516 C.3     1  UNL1        0.0391
     30 C          50.0760   16.6778  -26.1722 C.3     1  UNL1        0.0790
     31 C          49.8992   15.2453  -26.6996 C.3     1  UNL1        0.1081
     32 N          49.0068   17.6340  -26.5617 N.3     1  UNL1       -0.2723
     33 C          49.1629   19.0341  -26.0832 C.3     1  UNL1        0.0721
     34 C          47.8703   19.6387  -25.5131 C.3     1  UNL1        0.0174
     35 C          47.2160   18.6865  -24.5097 C.3     1  UNL1        0.0029
     36 C          47.0147   17.2690  -25.0761 C.3     1  UNL1        0.0174
     37 C          47.6401   17.0740  -26.4661 C.3     1  UNL1        0.0721
@<TRIPOS>BOND
     1    17    18    1
     2    18    19   ar
     3    19    20   ar
     4    20    21   ar
     5    21    11    1
     6    11    12   ar
     7    12     1    1
     8     1     2   ar
     9     2     3   ar
    10     3     4    1
    11     3     5   ar
    12     5     6   ar
    13     6     7   ar
    14     7     8   ar
    15     8     9   ar
    16     9    27    1
    17    27    28    1
    18    28    29    1
    19    29    30    1
    20    30    32    1
    21    32    33    1
    22    33    34    1
    23    34    35    1
    24    35    36    1
    25    36    37    1
    26    30    31    1
    27     9    10   ar
    28    12    13   ar
    29    13    24    1
    30    24    25    1
    31    24    26    1
    32    13    14   ar
    33    14    15   ar
    34    15    16    1
    35    21    22   ar
    36    22    23   ar
    37    23    18   ar
    38    15    11   ar
    39    10     1   ar
    40    10     5   ar
    41    31    27    1
    42    37    32    1
@<TRIPOS>MOLECULE
*****
 37 42 0 0 0
SMALL
GASTEIGER

@<TRIPOS>ATOM
      1 C          47.6654   16.2567  -26.0863 C.ar    1  UNL1        0.1092
      2 N          47.2104   17.3650  -26.7233 N.ar    1  UNL1       -0.1677
      3 N          48.2594   18.0948  -27.0845 N.ar    1  UNL1       -0.2319
      4 C          48.1677   19.4111  -27.7015 C.3     1  UNL1        0.1554
      5 C          49.3707   17.4861  -26.6426 C.ar    1  UNL1        0.1654
      6 N          50.6390   17.9595  -26.6948 N.ar    1  UNL1       -0.2050
      7 C          51.6291   17.2098  -26.1257 C.ar    1  UNL1        0.2014
      8 N          51.3384   16.0093  -25.5315 N.ar    1  UNL1       -0.2089
      9 C          50.0592   15.5314  -25.4672 C.ar    1  UNL1        0.1379
     10 C          49.0504   16.3172  -26.0265 C.ar    1  UNL1        0.0865
     11 C          46.0819   14.2577  -25.8125 C.ar    1  UNL1        0.0805
     12 C          46.7848   15.3507  -25.3354 C.ar    1  UNL1        0.0520
     13 C          46.4486   15.4332  -23.9913 C.ar    1  UNL1        0.0811
     14 N          45.5903   14.4367  -23.6867 N.ar    1  UNL1       -0.1736
     15 N          45.3804   13.7285  -24.7857 N.ar    1  UNL1       -0.2491
     16 C          44.5198   12.5510  -24.8206 C.3     1  UNL1        0.1537
     17 C          46.1670   12.1280  -31.1964 C.3     1  UNL1        0.0310
     18 C          46.1825   12.6893  -29.8056 C.ar    1  UNL1       -0.0218
     19 C          45.8171   14.0244  -29.5780 C.ar    1  UNL1       -0.0042
     20 C          45.7951   14.5373  -28.2780 C.ar    1  UNL1        0.0012
     21 C          46.1229   13.7177  -27.1874 C.ar    1  UNL1        0.0174
     22 C          46.4740   12.3788  -27.4142 C.ar    1  UNL1        0.0012
     23 C          46.4970   11.8658  -28.7143 C.ar    1  UNL1       -0.0042
     24 C          46.8561   16.5269  -23.0313 C.3     1  UNL1        0.0421
     25 C          46.6402   17.9181  -23.6384 C.3     1  UNL1        0.0064
     26 C          48.3220   16.3563  -22.6184 C.3     1  UNL1        0.0064
     27 N          49.8072   14.2182  -24.9533 N.pl3   1  UNL1       -0.2917
     28 C          49.5784   13.0904  -25.8424 C.3     1  UNL1        0.0937
     29 C          49.5518   11.8602  -24.9501 C.3     1  UNL1        0.0391
     30 C          50.3280   12.2721  -23.6927 C.3     1  UNL1        0.0790
     31 C          50.2341   13.8044  -23.6261 C.3     1  UNL1        0.1081
     32 N          49.8714   11.5546  -22.4738 N.3     1  UNL1       -0.2723
     33 C          49.2361   10.2259  -22.6853 C.3     1  UNL1        0.0721
     34 C          47.9553   10.0167  -21.8625 C.3     1  UNL1        0.0174
     35 C          47.0095   11.2109  -22.0075 C.3     1  UNL1        0.0029
     36 C          47.6976   12.5562  -21.7122 C.3     1  UNL1        0.0174
     37 C          49.2109   12.4280  -21.4781 C.3     1  UNL1        0.0721
@<TRIPOS>BOND
     1    17    18    1
     2    18    19   ar
     3    19    20   ar
     4    20    21   ar
     5    21    11    1
     6    11    12   ar
     7    12     1    1
     8     1     2   ar
     9     2     3   ar
    10     3     4    1
    11     3     5   ar
    12     5     6   ar
    13     6     7   ar
    14     7     8   ar
    15     8     9   ar
    16     9    27    1
    17    27    28    1
    18    28    29    1
    19    29    30    1
    20    30    32    1
    21    32    33    1
    22    33    34    1
    23    34    35    1
    24    35    36    1
    25    36    37    1
    26    30    31    1
    27     9    10   ar
    28    12    13   ar
    29    13    24    1
    30    24    25    1
    31    24    26    1
    32    13    14   ar
    33    14    15   ar
    34    15    16    1
    35    21    22   ar
    36    22    23   ar
    37    23    18   ar
    38    15    11   ar
    39    10     1   ar
    40    10     5   ar
    41    31    27    1
    42    37    32    1
@<TRIPOS>MOLECULE
*****
 37 42 0 0 0
SMALL
GASTEIGER

@<TRIPOS>ATOM
      1 C          49.3716   12.6729  -21.4026 C.ar    1  UNL1        0.1092
      2 N          48.8188   12.3181  -20.2153 N.ar    1  UNL1       -0.1677
      3 N          49.6465   12.6901  -19.2457 N.ar    1  UNL1       -0.2319
      4 C          49.4450   12.3857  -17.8356 C.3     1  UNL1        0.1554
      5 C          50.7379   13.2333  -19.8063 C.ar    1  UNL1        0.1654
      6 N          51.8707   13.6286  -19.1770 N.ar    1  UNL1       -0.2050
      7 C          52.9004   14.0988  -19.9415 C.ar    1  UNL1        0.2014
      8 N          52.7766   14.1748  -21.3045 N.ar    1  UNL1       -0.2089
      9 C          51.6399   13.7681  -21.9457 C.ar    1  UNL1        0.1379
     10 C          50.6036   13.2631  -21.1589 C.ar    1  UNL1        0.0865
     11 C          48.0358   12.8772  -23.5825 C.ar    1  UNL1        0.0805
     12 C          48.8552   12.2010  -22.6952 C.ar    1  UNL1        0.0520
     13 C          49.0575   10.9555  -23.2733 C.ar    1  UNL1        0.0811
     14 N          48.3922   10.8975  -24.4464 N.ar    1  UNL1       -0.1736
     15 N          47.7861   12.0604  -24.6299 N.ar    1  UNL1       -0.2491
     16 C          46.9910   12.3645  -25.8146 C.3     1  UNL1        0.1537
     17 C          46.1913   18.3468  -23.1230 C.3     1  UNL1        0.0310
     18 C          46.6446   16.9199  -23.2135 C.ar    1  UNL1       -0.0218
     19 C          46.0273   16.0377  -24.1127 C.ar    1  UNL1       -0.0042
     20 C          46.4743   14.7181  -24.2243 C.ar    1  UNL1        0.0012
     21 C          47.5541   14.2679  -23.4498 C.ar    1  UNL1        0.0174
     22 C          48.1803   15.1545  -22.5615 C.ar    1  UNL1        0.0012
     23 C          47.7330   16.4740  -22.4489 C.ar    1  UNL1       -0.0042
     24 C          49.7887    9.7876  -22.6524 C.3     1  UNL1        0.0421
     25 C          50.2748    8.7974  -23.7173 C.3     1  UNL1        0.0064
     26 C          48.8883    9.0703  -21.6409 C.3     1  UNL1        0.0064
     27 N          51.4950   13.9784  -23.3553 N.pl3   1  UNL1       -0.2917
     28 C          51.5135   12.8650  -24.2907 C.3     1  UNL1        0.0937
     29 C          51.1359   13.4536  -25.6403 C.3     1  UNL1        0.0391
     30 C          50.3713   14.7407  -25.3056 C.3     1  UNL1        0.0790
     31 C          50.8478   15.1586  -23.9058 C.3     1  UNL1        0.1081
     32 N          50.5065   15.7807  -26.3589 N.3     1  UNL1       -0.2723
     33 C          51.1381   17.0633  -25.9471 C.3     1  UNL1        0.0721
     34 C          50.3994   18.3081  -26.4629 C.3     1  UNL1        0.0174
     35 C          48.8987   18.2115  -26.1796 C.3     1  UNL1        0.0029
     36 C          48.2796   16.8956  -26.6853 C.3     1  UNL1        0.0174
     37 C          49.3184   15.9044  -27.2328 C.3     1  UNL1        0.0721
@<TRIPOS>BOND
     1    17    18    1
     2    18    19   ar
     3    19    20   ar
     4    20    21   ar
     5    21    11    1
     6    11    12   ar
     7    12     1    1
     8     1     2   ar
     9     2     3   ar
    10     3     4    1
    11     3     5   ar
    12     5     6   ar
    13     6     7   ar
    14     7     8   ar
    15     8     9   ar
    16     9    27    1
    17    27    28    1
    18    28    29    1
    19    29    30    1
    20    30    32    1
    21    32    33    1
    22    33    34    1
    23    34    35    1
    24    35    36    1
    25    36    37    1
    26    30    31    1
    27     9    10   ar
    28    12    13   ar
    29    13    24    1
    30    24    25    1
    31    24    26    1
    32    13    14   ar
    33    14    15   ar
    34    15    16    1
    35    21    22   ar
    36    22    23   ar
    37    23    18   ar
    38    15    11   ar
    39    10     1   ar
    40    10     5   ar
    41    31    27    1
    42    37    32    1
@<TRIPOS>MOLECULE
*****
 37 42 0 0 0
SMALL
GASTEIGER

@<TRIPOS>ATOM
      1 C          49.6059   10.3440  -25.8405 C.ar    1  UNL1        0.1092
      2 N          49.4571    9.1684  -26.5016 N.ar    1  UNL1       -0.1677
      3 N          50.4529    9.0545  -27.3728 N.ar    1  UNL1       -0.2319
      4 C          50.5748    7.9720  -28.3398 C.3     1  UNL1        0.1554
      5 C          51.2035   10.1647  -27.3050 C.ar    1  UNL1        0.1654
      6 N          52.2413   10.5013  -28.1081 N.ar    1  UNL1       -0.2050
      7 C          52.8365   11.7156  -27.9148 C.ar    1  UNL1        0.2014
      8 N          52.3958   12.5569  -26.9265 N.ar    1  UNL1       -0.2089
      9 C          51.3428   12.2269  -26.1197 C.ar    1  UNL1        0.1379
     10 C          50.7230   10.9964  -26.3426 C.ar    1  UNL1        0.0865
     11 C          47.4583   11.6631  -25.3653 C.ar    1  UNL1        0.0805
     12 C          48.5578   10.9144  -24.9824 C.ar    1  UNL1        0.0520
     13 C          48.4806   10.8475  -23.5983 C.ar    1  UNL1        0.0811
     14 N          47.3878   11.5218  -23.1818 N.ar    1  UNL1       -0.1736
     15 N          46.7730   12.0032  -24.2512 N.ar    1  UNL1       -0.2491
     16 C          45.5331   12.7686  -24.1784 C.3     1  UNL1        0.1537
     17 C          45.8191   12.9619  -30.7649 C.3     1  UNL1        0.0310
     18 C          46.2808   12.6298  -29.3771 C.ar    1  UNL1       -0.0218
     19 C          46.3993   13.6398  -28.4108 C.ar    1  UNL1       -0.0042
     20 C          46.7932   13.3253  -27.1072 C.ar    1  UNL1        0.0012
     21 C          47.0588   11.9950  -26.7487 C.ar    1  UNL1        0.0174
     22 C          46.9261   10.9837  -27.7115 C.ar    1  UNL1        0.0012
     23 C          46.5330   11.2979  -29.0155 C.ar    1  UNL1       -0.0042
     24 C          49.5084   10.2398  -22.6718 C.3     1  UNL1        0.0421
     25 C          49.9637    8.8607  -23.1633 C.3     1  UNL1        0.0064
     26 C          48.9478   10.1313  -21.2497 C.3     1  UNL1        0.0064
     27 N          50.9894   13.0706  -25.0173 N.pl3   1  UNL1       -0.2917
     28 C          49.7964   13.9015  -25.0544 C.3     1  UNL1        0.0937
     29 C          49.6544   14.4824  -23.6570 C.3     1  UNL1        0.0391
     30 C          50.4291   13.5165  -22.7513 C.3     1  UNL1        0.0790
     31 C          51.4509   12.8176  -23.6616 C.3     1  UNL1        0.1081
     32 N          50.9995   14.1844  -21.5523 N.3     1  UNL1       -0.2723
     33 C          52.4037   13.8366  -21.2046 C.3     1  UNL1        0.0721
     34 C          52.6196   13.5665  -19.7074 C.3     1  UNL1        0.0174
     35 C          51.5657   12.5971  -19.1678 C.3     1  UNL1        0.0029
     36 C          50.1270   13.0371  -19.4953 C.3     1  UNL1        0.0174
     37 C          50.0603   14.2690  -20.4115 C.3     1  UNL1        0.0721
@<TRIPOS>BOND
     1    17    18    1
     2    18    19   ar
     3    19    20   ar
     4    20    21   ar
     5    21    11    1
     6    11    12   ar
     7    12     1    1
     8     1     2   ar
     9     2     3   ar
    10     3     4    1
    11     3     5   ar
    12     5     6   ar
    13     6     7   ar
    14     7     8   ar
    15     8     9   ar
    16     9    27    1
    17    27    28    1
    18    28    29    1
    19    29    30    1
    20    30    32    1
    21    32    33    1
    22    33    34    1
    23    34    35    1
    24    35    36    1
    25    36    37    1
    26    30    31    1
    27     9    10   ar
    28    12    13   ar
    29    13    24    1
    30    24    25    1
    31    24    26    1
    32    13    14   ar
    33    14    15   ar
    34    15    16    1
    35    21    22   ar
    36    22    23   ar
    37    23    18   ar
    38    15    11   ar
    39    10     1   ar
    40    10     5   ar
    41    31    27    1
    42    37    32    1
@<TRIPOS>MOLECULE
*****
 37 42 0 0 0
SMALL
GASTEIGER

@<TRIPOS>ATOM
      1 C          49.1206   10.8618  -26.2571 C.ar    1  UNL1        0.1092
      2 N          48.9930    9.7003  -26.9470 N.ar    1  UNL1       -0.1677
      3 N          50.1822    9.3819  -27.4449 N.ar    1  UNL1       -0.2319
      4 C          50.4220    8.2530  -28.3337 C.3     1  UNL1        0.1554
      5 C          51.0508   10.3514  -27.1190 C.ar    1  UNL1        0.1654
      6 N          52.3352   10.4725  -27.5325 N.ar    1  UNL1       -0.2050
      7 C          53.0366   11.5762  -27.1376 C.ar    1  UNL1        0.2014
      8 N          52.4516   12.5223  -26.3367 N.ar    1  UNL1       -0.2089
      9 C          51.1530   12.4104  -25.9245 C.ar    1  UNL1        0.1379
     10 C          50.4356   11.2936  -26.3558 C.ar    1  UNL1        0.0865
     11 C          47.4961   11.7570  -24.4858 C.ar    1  UNL1        0.0805
     12 C          47.9663   11.6379  -25.7822 C.ar    1  UNL1        0.0520
     13 C          47.0853   12.3843  -26.5523 C.ar    1  UNL1        0.0811
     14 N          46.1406   12.9209  -25.7510 N.ar    1  UNL1       -0.1736
     15 N          46.3988   12.5457  -24.5077 N.ar    1  UNL1       -0.2491
     16 C          45.5918   12.9648  -23.3668 C.3     1  UNL1        0.1537
     17 C          49.8262    9.4331  -19.7214 C.3     1  UNL1        0.0310
     18 C          49.2553   10.0555  -20.9609 C.ar    1  UNL1       -0.0218
     19 C          49.3980    9.4178  -22.2022 C.ar    1  UNL1       -0.0042
     20 C          48.8337    9.9785  -23.3515 C.ar    1  UNL1        0.0012
     21 C          48.1063   11.1757  -23.2720 C.ar    1  UNL1        0.0174
     22 C          47.9516   11.8052  -22.0282 C.ar    1  UNL1        0.0012
     23 C          48.5166   11.2453  -20.8788 C.ar    1  UNL1       -0.0042
     24 C          47.0806   12.4895  -28.0599 C.3     1  UNL1        0.0421
     25 C          46.2613   13.6942  -28.5376 C.3     1  UNL1        0.0064
     26 C          46.5322   11.2015  -28.6835 C.3     1  UNL1        0.0064
     27 N          50.6126   13.3492  -24.9872 N.pl3   1  UNL1       -0.2917
     28 C          50.8924   13.2418  -23.5641 C.3     1  UNL1        0.0937
     29 C          50.3257   14.5044  -22.9357 C.3     1  UNL1        0.0391
     30 C          50.2652   15.5197  -24.0839 C.3     1  UNL1        0.0790
     31 C          50.1988   14.6885  -25.3747 C.3     1  UNL1        0.1081
     32 N          49.1757   16.5163  -23.9140 N.3     1  UNL1       -0.2723
     33 C          47.9449   16.0424  -23.2254 C.3     1  UNL1        0.0721
     34 C          46.6441   16.4817  -23.9153 C.3     1  UNL1        0.0174
     35 C          46.6934   16.1879  -25.4163 C.3     1  UNL1        0.0029
     36 C          47.9528   16.7575  -26.0947 C.3     1  UNL1        0.0174
     37 C          48.9549   17.3693  -25.1033 C.3     1  UNL1        0.0721
@<TRIPOS>BOND
     1    17    18    1
     2    18    19   ar
     3    19    20   ar
     4    20    21   ar
     5    21    11    1
     6    11    12   ar
     7    12     1    1
     8     1     2   ar
     9     2     3   ar
    10     3     4    1
    11     3     5   ar
    12     5     6   ar
    13     6     7   ar
    14     7     8   ar
    15     8     9   ar
    16     9    27    1
    17    27    28    1
    18    28    29    1
    19    29    30    1
    20    30    32    1
    21    32    33    1
    22    33    34    1
    23    34    35    1
    24    35    36    1
    25    36    37    1
    26    30    31    1
    27     9    10   ar
    28    12    13   ar
    29    13    24    1
    30    24    25    1
    31    24    26    1
    32    13    14   ar
    33    14    15   ar
    34    15    16    1
    35    21    22   ar
    36    22    23   ar
    37    23    18   ar
    38    15    11   ar
    39    10     1   ar
    40    10     5   ar
    41    31    27    1
    42    37    32    1
@<TRIPOS>MOLECULE
*****
 37 42 0 0 0
SMALL
GASTEIGER

@<TRIPOS>ATOM
      1 C          48.3667   15.4444  -23.1576 C.ar    1  UNL1        0.1092
      2 N          47.8351   16.6564  -22.8581 N.ar    1  UNL1       -0.1677
      3 N          46.5517   16.6411  -23.1991 N.ar    1  UNL1       -0.2319
      4 C          45.6712   17.7990  -23.1254 C.3     1  UNL1        0.1554
      5 C          46.2755   15.4511  -23.7543 C.ar    1  UNL1        0.1654
      6 N          45.1162   15.0724  -24.3441 N.ar    1  UNL1       -0.2050
      7 C          45.0590   13.8313  -24.9120 C.ar    1  UNL1        0.2014
      8 N          46.1455   12.9966  -24.8706 N.ar    1  UNL1       -0.2089
      9 C          47.3210   13.3771  -24.2856 C.ar    1  UNL1        0.1379
     10 C          47.3792   14.6573  -23.7327 C.ar    1  UNL1        0.0865
     11 C          50.5385   14.4531  -22.2202 C.ar    1  UNL1        0.0805
     12 C          49.8131   15.1833  -23.1457 C.ar    1  UNL1        0.0520
     13 C          50.7561   15.6533  -24.0491 C.ar    1  UNL1        0.0811
     14 N          51.9799   15.2209  -23.6781 N.ar    1  UNL1       -0.1736
     15 N          51.8403   14.4925  -22.5811 N.ar    1  UNL1       -0.2491
     16 C          52.9605   13.8401  -21.9119 C.3     1  UNL1        0.1537
     17 C          48.4637   11.5629  -17.6517 C.3     1  UNL1        0.0310
     18 C          48.9697   12.3008  -18.8554 C.ar    1  UNL1       -0.0218
     19 C          48.6721   13.6608  -19.0276 C.ar    1  UNL1       -0.0042
     20 C          49.1748   14.3582  -20.1296 C.ar    1  UNL1        0.0012
     21 C          49.9942   13.7089  -21.0654 C.ar    1  UNL1        0.0174
     22 C          50.3034   12.3528  -20.8849 C.ar    1  UNL1        0.0012
     23 C          49.8002   11.6548  -19.7834 C.ar    1  UNL1       -0.0042
     24 C          50.5026   16.6051  -25.1952 C.3     1  UNL1        0.0421
     25 C          50.4634   15.8695  -26.5398 C.3     1  UNL1        0.0064
     26 C          51.5742   17.7001  -25.2272 C.3     1  UNL1        0.0064
     27 N          48.3930   12.4369  -24.1479 N.pl3   1  UNL1       -0.2917
     28 C          48.2500   11.2429  -23.3300 C.3     1  UNL1        0.0937
     29 C          49.4961   10.4126  -23.5904 C.3     1  UNL1        0.0391
     30 C          50.0062   10.8902  -24.9560 C.3     1  UNL1        0.0790
     31 C          49.4539   12.3130  -25.1348 C.3     1  UNL1        0.1081
     32 N          51.4799   10.7589  -25.0979 N.3     1  UNL1       -0.2723
     33 C          52.2370   12.0159  -25.3434 C.3     1  UNL1        0.0721
     34 C          53.2989   11.8908  -26.4470 C.3     1  UNL1        0.0174
     35 C          52.7118   11.2397  -27.7012 C.3     1  UNL1        0.0029
     36 C          51.9978    9.9084  -27.4039 C.3     1  UNL1        0.0174
     37 C          51.9011    9.5908  -25.9035 C.3     1  UNL1        0.0721
@<TRIPOS>BOND
     1    17    18    1
     2    18    19   ar
     3    19    20   ar
     4    20    21   ar
     5    21    11    1
     6    11    12   ar
     7    12     1    1
     8     1     2   ar
     9     2     3   ar
    10     3     4    1
    11     3     5   ar
    12     5     6   ar
    13     6     7   ar
    14     7     8   ar
    15     8     9   ar
    16     9    27    1
    17    27    28    1
    18    28    29    1
    19    29    30    1
    20    30    32    1
    21    32    33    1
    22    33    34    1
    23    34    35    1
    24    35    36    1
    25    36    37    1
    26    30    31    1
    27     9    10   ar
    28    12    13   ar
    29    13    24    1
    30    24    25    1
    31    24    26    1
    32    13    14   ar
    33    14    15   ar
    34    15    16    1
    35    21    22   ar
    36    22    23   ar
    37    23    18   ar
    38    15    11   ar
    39    10     1   ar
    40    10     5   ar
    41    31    27    1
    42    37    32    1
