@<TRIPOS>MOLECULE
*****
 46 51 0 0 0
SMALL
GASTEIGER

@<TRIPOS>ATOM
      1 C          -5.3214  -11.5884   28.1238 C.ar    1  UNL1        0.0702
      2 C          -5.8613  -11.7692   29.4071 C.ar    1  UNL1        0.0191
      3 C          -5.9880  -10.6826   30.2738 C.ar    1  UNL1        0.0356
      4 C          -5.5942   -9.4048   29.8457 C.ar    1  UNL1        0.1318
      5 N          -5.0757   -9.2538   28.5954 N.ar    1  UNL1       -0.2279
      6 C          -4.9424  -10.2973   27.7348 C.ar    1  UNL1        0.1149
      7 N          -5.6885   -8.2634   30.7187 N.pl3   1  UNL1       -0.2932
      8 C          -5.9387   -8.4803   32.1504 C.3     1  UNL1        0.0923
      9 C          -6.2334   -7.1595   32.8796 C.3     1  UNL1        0.0252
     10 C          -7.1799   -6.2507   32.0622 C.3     1  UNL1        0.0472
     11 C          -6.6663   -6.0080   30.6108 C.3     1  UNL1        0.0252
     12 C          -5.4754   -6.8958   30.2272 C.3     1  UNL1        0.0923
     13 C          -8.6187   -6.8131   32.0648 C.3     1  UNL1        0.2054
     14 O          -8.8578   -7.6164   30.9076 O.3     1  UNL1       -0.4755
     15 C          -9.1302   -8.9945   30.9101 C.ar    1  UNL1        0.1388
     16 C          -9.3839   -9.7226   29.7325 C.ar    1  UNL1        0.0369
     17 C          -9.6605  -11.0891   29.7984 C.ar    1  UNL1        0.0033
     18 C          -9.6849  -11.7436   31.0312 C.ar    1  UNL1        0.0066
     19 C          -9.4253  -11.0372   32.2184 C.ar    1  UNL1        0.0785
     20 C          -9.1589   -9.6574   32.1440 C.ar    1  UNL1        0.0433
     21 C          -9.4579  -11.7438   33.5224 C.2     1  UNL1        0.3381
     22 O         -10.1958  -12.7546   33.6670 O.2     1  UNL1       -0.2451
     23 O          -8.6775  -11.3306   34.6017 O.3     1  UNL1       -0.4771
     24 H          -7.9872  -10.5949   34.5260 H       1  UNL1        0.2954
     25 C          -6.0840  -13.8063   27.1631 C.2     1  UNL1        0.2839
     26 O          -6.7007  -14.1518   28.2066 O.2     1  UNL1       -0.2665
     27 N          -5.1966  -12.6786   27.1945 N.am    1  UNL1       -0.2766
     28 H          -4.3519  -12.7067   26.5806 H       1  UNL1        0.1553
     29 C          -5.6684  -16.7705   22.0287 C.ar    1  UNL1        0.1417
     30 C          -5.0135  -15.9133   22.9477 C.ar    1  UNL1        0.0743
     31 C          -5.6983  -15.5262   24.0937 C.ar    1  UNL1        0.1482
     32 O          -5.2655  -14.7449   25.0531 O.2     1  UNL1       -0.4491
     33 C          -6.2299  -14.6283   25.9489 C.ar    1  UNL1        0.1946
     34 C          -7.3373  -15.3922   25.5606 C.ar    1  UNL1        0.0202
     35 C          -8.6382  -15.5836   26.2801 C.3     1  UNL1        0.0345
     36 C          -6.9718  -15.9487   24.3511 C.ar    1  UNL1        0.0339
     37 C          -7.6574  -16.7860   23.4748 C.ar    1  UNL1        0.0058
     38 C          -7.0038  -17.1986   22.2910 C.ar    1  UNL1        0.0342
     39 C          -7.7232  -18.0786   21.3390 C.ar    1  UNL1        0.0029
     40 C          -9.1222  -17.9996   21.2191 C.ar    1  UNL1        0.0001
     41 C          -9.8012  -18.8223   20.3150 C.ar    1  UNL1        0.0000
     42 C          -9.0913  -19.7252   19.5196 C.ar    1  UNL1        0.0000
     43 C          -7.7004  -19.8052   19.6248 C.ar    1  UNL1        0.0000
     44 C          -7.0169  -18.9850   20.5277 C.ar    1  UNL1        0.0001
     45 C          -4.0500  -16.4862   20.1392 C.3     1  UNL1        0.2525
     46 O          -5.0229  -17.2274   20.8678 O.3     1  UNL1       -0.4713
@<TRIPOS>BOND
     1    45    46    1
     2    46    29    1
     3    29    30   ar
     4    30    31   ar
     5    31    32   ar
     6    32    33   ar
     7    33    25    1
     8    25    26    2
     9    25    27   am
    10    27     1    1
    11     1     2   ar
    12     2     3   ar
    13     3     4   ar
    14     4     7    1
    15     7     8    1
    16     8     9    1
    17     9    10    1
    18    10    13    1
    19    13    14    1
    20    14    15    1
    21    15    16   ar
    22    16    17   ar
    23    17    18   ar
    24    18    19   ar
    25    19    21    1
    26    21    22    2
    27    21    23    1
    28    19    20   ar
    29    10    11    1
    30    11    12    1
    31     4     5   ar
    32     5     6   ar
    33    33    34   ar
    34    34    35    1
    35    34    36   ar
    36    36    37   ar
    37    37    38   ar
    38    38    39    1
    39    39    40   ar
    40    40    41   ar
    41    41    42   ar
    42    42    43   ar
    43    43    44   ar
    44    38    29   ar
    45    44    39   ar
    46    36    31   ar
    47     6     1   ar
    48    12     7    1
    49    20    15   ar
    50    27    28    1
    51    23    24    1
@<TRIPOS>MOLECULE
*****
 46 51 0 0 0
SMALL
GASTEIGER

@<TRIPOS>ATOM
      1 C          -6.6879  -12.3217   29.1958 C.ar    1  UNL1        0.0702
      2 C          -7.7572  -11.9237   30.0138 C.ar    1  UNL1        0.0191
      3 C          -7.6701  -10.7461   30.7579 C.ar    1  UNL1        0.0356
      4 C          -6.5166   -9.9512   30.6649 C.ar    1  UNL1        0.1318
      5 N          -5.4935  -10.3566   29.8627 N.ar    1  UNL1       -0.2279
      6 C          -5.5559  -11.4994   29.1296 C.ar    1  UNL1        0.1149
      7 N          -6.3802   -8.7415   31.4342 N.pl3   1  UNL1       -0.2932
      8 C          -7.5772   -8.1464   32.0445 C.3     1  UNL1        0.0923
      9 C          -7.2829   -6.7546   32.6269 C.3     1  UNL1        0.0252
     10 C          -6.4019   -5.9094   31.6784 C.3     1  UNL1        0.0472
     11 C          -5.0955   -6.6500   31.2613 C.3     1  UNL1        0.0252
     12 C          -5.0693   -8.1258   31.6790 C.3     1  UNL1        0.0923
     13 C          -7.2088   -5.4500   30.4438 C.3     1  UNL1        0.2054
     14 O          -8.5345   -5.0645   30.8114 O.3     1  UNL1       -0.4755
     15 C          -9.6868   -5.8544   30.6646 C.ar    1  UNL1        0.1388
     16 C         -10.9058   -5.5480   31.2983 C.ar    1  UNL1        0.0369
     17 C         -12.0148   -6.3776   31.1245 C.ar    1  UNL1        0.0033
     18 C         -11.9241   -7.5145   30.3194 C.ar    1  UNL1        0.0066
     19 C         -10.7189   -7.8336   29.6701 C.ar    1  UNL1        0.0785
     20 C          -9.6024   -6.9983   29.8603 C.ar    1  UNL1        0.0433
     21 C         -10.6347   -9.0465   28.8203 C.2     1  UNL1        0.3381
     22 O         -10.6909  -10.1872   29.3521 O.2     1  UNL1       -0.2451
     23 O         -10.5095   -8.9651   27.4338 O.3     1  UNL1       -0.4771
     24 H         -10.5634   -8.0885   26.9316 H       1  UNL1        0.2954
     25 C          -7.9756  -14.1444   27.9944 C.2     1  UNL1        0.2839
     26 O          -9.0180  -13.9924   28.6864 O.2     1  UNL1       -0.2665
     27 N          -6.7496  -13.5155   28.3966 N.am    1  UNL1       -0.2766
     28 H          -5.8557  -14.0142   28.1882 H       1  UNL1        0.1553
     29 C          -9.2235  -17.8896   23.5518 C.ar    1  UNL1        0.1417
     30 C          -9.7306  -17.1797   24.6686 C.ar    1  UNL1        0.0743
     31 C          -8.8587  -16.3729   25.3902 C.ar    1  UNL1        0.1482
     32 O          -9.1367  -15.6451   26.4443 O.2     1  UNL1       -0.4491
     33 C          -8.0256  -15.0396   26.8251 C.ar    1  UNL1        0.1946
     34 C          -6.9779  -15.3752   25.9588 C.ar    1  UNL1        0.0202
     35 C          -5.5560  -14.9017   25.9857 C.3     1  UNL1        0.0345
     36 C          -7.5410  -16.2499   25.0510 C.ar    1  UNL1        0.0339
     37 C          -6.9966  -16.9324   23.9662 C.ar    1  UNL1        0.0058
     38 C          -7.8439  -17.7724   23.2078 C.ar    1  UNL1        0.0342
     39 C          -7.2789  -18.5182   22.0578 C.ar    1  UNL1        0.0029
     40 C          -6.0623  -19.2112   22.1910 C.ar    1  UNL1        0.0001
     41 C          -5.5327  -19.9229   21.1101 C.ar    1  UNL1        0.0000
     42 C          -6.2138  -19.9545   19.8907 C.ar    1  UNL1        0.0000
     43 C          -7.4275  -19.2767   19.7506 C.ar    1  UNL1        0.0000
     44 C          -7.9610  -18.5634   20.8285 C.ar    1  UNL1        0.0001
     45 C         -10.6484  -19.9167   23.1899 C.3     1  UNL1        0.2525
     46 O         -10.0566  -18.6959   22.7585 O.3     1  UNL1       -0.4713
@<TRIPOS>BOND
     1    45    46    1
     2    46    29    1
     3    29    30   ar
     4    30    31   ar
     5    31    32   ar
     6    32    33   ar
     7    33    25    1
     8    25    26    2
     9    25    27   am
    10    27     1    1
    11     1     2   ar
    12     2     3   ar
    13     3     4   ar
    14     4     7    1
    15     7     8    1
    16     8     9    1
    17     9    10    1
    18    10    13    1
    19    13    14    1
    20    14    15    1
    21    15    16   ar
    22    16    17   ar
    23    17    18   ar
    24    18    19   ar
    25    19    21    1
    26    21    22    2
    27    21    23    1
    28    19    20   ar
    29    10    11    1
    30    11    12    1
    31     4     5   ar
    32     5     6   ar
    33    33    34   ar
    34    34    35    1
    35    34    36   ar
    36    36    37   ar
    37    37    38   ar
    38    38    39    1
    39    39    40   ar
    40    40    41   ar
    41    41    42   ar
    42    42    43   ar
    43    43    44   ar
    44    38    29   ar
    45    44    39   ar
    46    36    31   ar
    47     6     1   ar
    48    12     7    1
    49    20    15   ar
    50    27    28    1
    51    23    24    1
@<TRIPOS>MOLECULE
*****
 46 51 0 0 0
SMALL
GASTEIGER

@<TRIPOS>ATOM
      1 C          -6.5672  -12.3340   28.9836 C.ar    1  UNL1        0.0702
      2 C          -7.4460  -12.0308   30.0357 C.ar    1  UNL1        0.0191
      3 C          -7.3293  -10.8198   30.7196 C.ar    1  UNL1        0.0356
      4 C          -6.3434   -9.8979   30.3335 C.ar    1  UNL1        0.1318
      5 N          -5.5042  -10.2133   29.3083 N.ar    1  UNL1       -0.2279
      6 C          -5.5988  -11.3864   28.6285 C.ar    1  UNL1        0.1149
      7 N          -6.1772   -8.6480   31.0292 N.pl3   1  UNL1       -0.2932
      8 C          -6.7252   -8.5093   32.3857 C.3     1  UNL1        0.0923
      9 C          -6.6566   -7.0545   32.8775 C.3     1  UNL1        0.0252
     10 C          -7.0719   -6.0547   31.7740 C.3     1  UNL1        0.0472
     11 C          -6.2689   -6.2574   30.4537 C.3     1  UNL1        0.0252
     12 C          -5.4185   -7.5342   30.4452 C.3     1  UNL1        0.0923
     13 C          -8.5950   -6.1158   31.5229 C.3     1  UNL1        0.2054
     14 O          -8.8911   -6.8675   30.3446 O.3     1  UNL1       -0.4755
     15 C          -9.5980   -8.0808   30.3040 C.ar    1  UNL1        0.1388
     16 C          -9.8923   -8.7507   29.1015 C.ar    1  UNL1        0.0369
     17 C         -10.6090   -9.9482   29.1228 C.ar    1  UNL1        0.0033
     18 C         -11.0363  -10.4913   30.3358 C.ar    1  UNL1        0.0066
     19 C         -10.7450   -9.8433   31.5487 C.ar    1  UNL1        0.0785
     20 C         -10.0322   -8.6303   31.5173 C.ar    1  UNL1        0.0433
     21 C         -11.2080  -10.4290   32.8306 C.2     1  UNL1        0.3381
     22 O         -12.2371  -11.1553   32.8501 O.2     1  UNL1       -0.2451
     23 O         -10.5246  -10.2124   34.0267 O.3     1  UNL1       -0.4771
     24 H          -9.6369   -9.7289   34.0681 H       1  UNL1        0.2954
     25 C          -7.9173  -14.1920   27.9117 C.2     1  UNL1        0.2839
     26 O          -8.9313  -13.9981   28.6347 O.2     1  UNL1       -0.2665
     27 N          -6.6708  -13.5605   28.2402 N.am    1  UNL1       -0.2766
     28 H          -5.7904  -14.0781   28.0209 H       1  UNL1        0.1553
     29 C          -9.3246  -18.2115   23.7664 C.ar    1  UNL1        0.1417
     30 C          -9.7627  -17.5006   24.9114 C.ar    1  UNL1        0.0743
     31 C          -8.8893  -16.5939   25.5005 C.ar    1  UNL1        0.1482
     32 O          -9.1094  -15.8485   26.5560 O.2     1  UNL1       -0.4491
     33 C          -8.0201  -15.1363   26.7854 C.ar    1  UNL1        0.1946
     34 C          -7.0517  -15.4187   25.8142 C.ar    1  UNL1        0.0202
     35 C          -5.6833  -14.8267   25.6603 C.3     1  UNL1        0.0345
     36 C          -7.6345  -16.3748   25.0065 C.ar    1  UNL1        0.0339
     37 C          -7.1583  -17.0540   23.8880 C.ar    1  UNL1        0.0058
     38 C          -8.0086  -17.9932   23.2605 C.ar    1  UNL1        0.0342
     39 C          -7.5137  -18.7364   22.0770 C.ar    1  UNL1        0.0029
     40 C          -8.2260  -18.6947   20.8650 C.ar    1  UNL1        0.0001
     41 C          -7.7556  -19.3875   19.7451 C.ar    1  UNL1        0.0000
     42 C          -6.5696  -20.1218   19.8225 C.ar    1  UNL1        0.0000
     43 C          -5.8499  -20.1625   21.0194 C.ar    1  UNL1        0.0000
     44 C          -6.3164  -19.4717   22.1421 C.ar    1  UNL1        0.0001
     45 C         -11.5201  -18.8509   22.7460 C.3     1  UNL1        0.2525
     46 O         -10.1676  -19.1174   23.1016 O.3     1  UNL1       -0.4713
@<TRIPOS>BOND
     1    45    46    1
     2    46    29    1
     3    29    30   ar
     4    30    31   ar
     5    31    32   ar
     6    32    33   ar
     7    33    25    1
     8    25    26    2
     9    25    27   am
    10    27     1    1
    11     1     2   ar
    12     2     3   ar
    13     3     4   ar
    14     4     7    1
    15     7     8    1
    16     8     9    1
    17     9    10    1
    18    10    13    1
    19    13    14    1
    20    14    15    1
    21    15    16   ar
    22    16    17   ar
    23    17    18   ar
    24    18    19   ar
    25    19    21    1
    26    21    22    2
    27    21    23    1
    28    19    20   ar
    29    10    11    1
    30    11    12    1
    31     4     5   ar
    32     5     6   ar
    33    33    34   ar
    34    34    35    1
    35    34    36   ar
    36    36    37   ar
    37    37    38   ar
    38    38    39    1
    39    39    40   ar
    40    40    41   ar
    41    41    42   ar
    42    42    43   ar
    43    43    44   ar
    44    38    29   ar
    45    44    39   ar
    46    36    31   ar
    47     6     1   ar
    48    12     7    1
    49    20    15   ar
    50    27    28    1
    51    23    24    1
@<TRIPOS>MOLECULE
*****
 46 51 0 0 0
SMALL
GASTEIGER

@<TRIPOS>ATOM
      1 C          -6.7643  -15.2949   24.9973 C.ar    1  UNL1        0.0702
      2 C          -7.5048  -15.9321   23.9891 C.ar    1  UNL1        0.0191
      3 C          -6.8549  -16.6956   23.0182 C.ar    1  UNL1        0.0356
      4 C          -5.4595  -16.8411   23.0702 C.ar    1  UNL1        0.1318
      5 N          -4.7629  -16.2156   24.0594 N.ar    1  UNL1       -0.2279
      6 C          -5.3743  -15.4668   25.0148 C.ar    1  UNL1        0.1149
      7 N          -4.7509  -17.6019   22.0737 N.pl3   1  UNL1       -0.2932
      8 C          -5.1356  -17.4604   20.6626 C.3     1  UNL1        0.0923
      9 C          -4.4359  -18.5048   19.7780 C.3     1  UNL1        0.0252
     10 C          -4.4283  -19.9034   20.4367 C.3     1  UNL1        0.0472
     11 C          -3.8389  -19.8790   21.8793 C.3     1  UNL1        0.0252
     12 C          -3.6134  -18.4627   22.4238 C.3     1  UNL1        0.0923
     13 C          -5.8411  -20.5280   20.4150 C.3     1  UNL1        0.2054
     14 O          -6.5111  -20.3251   21.6605 O.3     1  UNL1       -0.4755
     15 C          -7.8283  -19.8620   21.8152 C.ar    1  UNL1        0.1388
     16 C          -8.5285  -19.2010   20.7886 C.ar    1  UNL1        0.0369
     17 C          -9.8324  -18.7524   21.0049 C.ar    1  UNL1        0.0033
     18 C         -10.4520  -18.9583   22.2389 C.ar    1  UNL1        0.0066
     19 C          -9.7740  -19.6244   23.2744 C.ar    1  UNL1        0.0785
     20 C          -8.4554  -20.0629   23.0518 C.ar    1  UNL1        0.0433
     21 C         -10.4423  -19.8336   24.5822 C.2     1  UNL1        0.3381
     22 O         -11.4181  -19.1067   24.9085 O.2     1  UNL1       -0.2451
     23 O         -10.0313  -20.8306   25.4663 O.3     1  UNL1       -0.4771
     24 H          -9.3265  -21.5157   25.2267 H       1  UNL1        0.2954
     25 C          -7.0409  -14.5904   27.4162 C.2     1  UNL1        0.2839
     26 O          -6.5162  -15.6390   27.8783 O.2     1  UNL1       -0.2665
     27 N          -7.3998  -14.5195   26.0282 N.am    1  UNL1       -0.2766
     28 H          -8.2403  -13.9551   25.7710 H       1  UNL1        0.1553
     29 C          -9.2269  -10.6627   31.3041 C.ar    1  UNL1        0.1417
     30 C          -9.4415  -11.8867   30.6227 C.ar    1  UNL1        0.0743
     31 C          -8.4576  -12.3392   29.7514 C.ar    1  UNL1        0.1482
     32 O          -8.4726  -13.4376   29.0362 O.2     1  UNL1       -0.4491
     33 C          -7.3498  -13.4857   28.3410 C.ar    1  UNL1        0.1946
     34 C          -6.5558  -12.3712   28.6385 C.ar    1  UNL1        0.0202
     35 C          -5.1947  -12.0275   28.1133 C.3     1  UNL1        0.0345
     36 C          -7.3030  -11.6400   29.5404 C.ar    1  UNL1        0.0339
     37 C          -7.0510  -10.4303   30.1823 C.ar    1  UNL1        0.0058
     38 C          -8.0277   -9.9258   31.0712 C.ar    1  UNL1        0.0342
     39 C          -7.7833   -8.6321   31.7530 C.ar    1  UNL1        0.0029
     40 C          -6.8350   -8.5443   32.7879 C.ar    1  UNL1        0.0001
     41 C          -6.5966   -7.3228   33.4255 C.ar    1  UNL1        0.0000
     42 C          -7.2964   -6.1791   33.0331 C.ar    1  UNL1        0.0000
     43 C          -8.2342   -6.2539   32.0001 C.ar    1  UNL1        0.0000
     44 C          -8.4764   -7.4730   31.3597 C.ar    1  UNL1        0.0001
     45 C         -11.4971   -9.7871   31.8955 C.3     1  UNL1        0.2525
     46 O         -10.1643  -10.1643   32.2240 O.3     1  UNL1       -0.4713
@<TRIPOS>BOND
     1    45    46    1
     2    46    29    1
     3    29    30   ar
     4    30    31   ar
     5    31    32   ar
     6    32    33   ar
     7    33    25    1
     8    25    26    2
     9    25    27   am
    10    27     1    1
    11     1     2   ar
    12     2     3   ar
    13     3     4   ar
    14     4     7    1
    15     7     8    1
    16     8     9    1
    17     9    10    1
    18    10    13    1
    19    13    14    1
    20    14    15    1
    21    15    16   ar
    22    16    17   ar
    23    17    18   ar
    24    18    19   ar
    25    19    21    1
    26    21    22    2
    27    21    23    1
    28    19    20   ar
    29    10    11    1
    30    11    12    1
    31     4     5   ar
    32     5     6   ar
    33    33    34   ar
    34    34    35    1
    35    34    36   ar
    36    36    37   ar
    37    37    38   ar
    38    38    39    1
    39    39    40   ar
    40    40    41   ar
    41    41    42   ar
    42    42    43   ar
    43    43    44   ar
    44    38    29   ar
    45    44    39   ar
    46    36    31   ar
    47     6     1   ar
    48    12     7    1
    49    20    15   ar
    50    27    28    1
    51    23    24    1
@<TRIPOS>MOLECULE
*****
 46 51 0 0 0
SMALL
GASTEIGER

@<TRIPOS>ATOM
      1 C          -7.9226  -14.2807   27.9302 C.ar    1  UNL1        0.0702
      2 C          -7.1936  -13.2654   28.5696 C.ar    1  UNL1        0.0191
      3 C          -7.8349  -12.3856   29.4428 C.ar    1  UNL1        0.0356
      4 C          -9.2077  -12.5370   29.6952 C.ar    1  UNL1        0.1318
      5 N          -9.8931  -13.5310   29.0651 N.ar    1  UNL1       -0.2279
      6 C          -9.2899  -14.3989   28.2106 C.ar    1  UNL1        0.1149
      7 N          -9.9090  -11.6353   30.5720 N.pl3   1  UNL1       -0.2932
      8 C         -10.5809  -10.4614   29.9975 C.3     1  UNL1        0.0923
      9 C         -11.0758   -9.5013   31.0912 C.3     1  UNL1        0.0252
     10 C         -10.0261   -9.3155   32.2108 C.3     1  UNL1        0.0472
     11 C          -9.5448  -10.6727   32.8071 C.3     1  UNL1        0.0252
     12 C         -10.0255  -11.8941   32.0131 C.3     1  UNL1        0.0923
     13 C          -8.8367   -8.4649   31.7124 C.3     1  UNL1        0.2054
     14 O          -7.6083   -8.9131   32.2882 O.3     1  UNL1       -0.4755
     15 C          -6.5937   -9.6103   31.6116 C.ar    1  UNL1        0.1388
     16 C          -5.8593  -10.6533   32.2067 C.ar    1  UNL1        0.0369
     17 C          -4.8538  -11.3021   31.4883 C.ar    1  UNL1        0.0033
     18 C          -4.5713  -10.9237   30.1745 C.ar    1  UNL1        0.0066
     19 C          -5.2989   -9.8909   29.5583 C.ar    1  UNL1        0.0785
     20 C          -6.3029   -9.2341   30.2938 C.ar    1  UNL1        0.0433
     21 C          -4.9863   -9.4959   28.1630 C.2     1  UNL1        0.3381
     22 O          -3.8093   -9.1692   27.8548 O.2     1  UNL1       -0.2451
     23 O          -5.9607   -9.4890   27.1654 O.3     1  UNL1       -0.4771
     24 H          -6.8982   -9.8382   27.3160 H       1  UNL1        0.2954
     25 C          -7.6558  -15.3817   25.6630 C.2     1  UNL1        0.2839
     26 O          -8.8187  -15.0846   25.2786 O.2     1  UNL1       -0.2665
     27 N          -7.2931  -15.2205   27.0424 N.am    1  UNL1       -0.2766
     28 H          -6.6103  -15.8987   27.4486 H       1  UNL1        0.1553
     29 C          -4.7648  -18.1677   21.2810 C.ar    1  UNL1        0.1417
     30 C          -6.0269  -17.8614   21.8483 C.ar    1  UNL1        0.0743
     31 C          -6.0630  -17.0785   22.9961 C.ar    1  UNL1        0.1482
     32 O          -7.1237  -16.6919   23.6621 O.2     1  UNL1       -0.4491
     33 C          -6.7170  -15.9699   24.6915 C.ar    1  UNL1        0.1946
     34 C          -5.3208  -15.8645   24.6788 C.ar    1  UNL1        0.0202
     35 C          -4.4320  -15.1196   25.6285 C.3     1  UNL1        0.0345
     36 C          -4.9239  -16.6030   23.5819 C.ar    1  UNL1        0.0339
     37 C          -3.6619  -16.8829   23.0643 C.ar    1  UNL1        0.0058
     38 C          -3.5753  -17.6835   21.9023 C.ar    1  UNL1        0.0342
     39 C          -2.2393  -18.0039   21.3449 C.ar    1  UNL1        0.0029
     40 C          -1.5965  -17.0998   20.4805 C.ar    1  UNL1        0.0001
     41 C          -0.3323  -17.3962   19.9613 C.ar    1  UNL1        0.0000
     42 C           0.3030  -18.5923   20.3041 C.ar    1  UNL1        0.0000
     43 C          -0.3233  -19.4932   21.1690 C.ar    1  UNL1        0.0000
     44 C          -1.5875  -19.2015   21.6904 C.ar    1  UNL1        0.0001
     45 C          -4.8179  -20.3381   20.0332 C.3     1  UNL1        0.2525
     46 O          -4.6574  -18.9253   20.1029 O.3     1  UNL1       -0.4713
@<TRIPOS>BOND
     1    45    46    1
     2    46    29    1
     3    29    30   ar
     4    30    31   ar
     5    31    32   ar
     6    32    33   ar
     7    33    25    1
     8    25    26    2
     9    25    27   am
    10    27     1    1
    11     1     2   ar
    12     2     3   ar
    13     3     4   ar
    14     4     7    1
    15     7     8    1
    16     8     9    1
    17     9    10    1
    18    10    13    1
    19    13    14    1
    20    14    15    1
    21    15    16   ar
    22    16    17   ar
    23    17    18   ar
    24    18    19   ar
    25    19    21    1
    26    21    22    2
    27    21    23    1
    28    19    20   ar
    29    10    11    1
    30    11    12    1
    31     4     5   ar
    32     5     6   ar
    33    33    34   ar
    34    34    35    1
    35    34    36   ar
    36    36    37   ar
    37    37    38   ar
    38    38    39    1
    39    39    40   ar
    40    40    41   ar
    41    41    42   ar
    42    42    43   ar
    43    43    44   ar
    44    38    29   ar
    45    44    39   ar
    46    36    31   ar
    47     6     1   ar
    48    12     7    1
    49    20    15   ar
    50    27    28    1
    51    23    24    1
@<TRIPOS>MOLECULE
*****
 46 51 0 0 0
SMALL
GASTEIGER

@<TRIPOS>ATOM
      1 C          -7.8083  -13.8198   28.2615 C.ar    1  UNL1        0.0702
      2 C          -9.1596  -13.8056   28.6420 C.ar    1  UNL1        0.0191
      3 C          -9.6404  -12.8013   29.4835 C.ar    1  UNL1        0.0356
      4 C          -8.7698  -11.7934   29.9277 C.ar    1  UNL1        0.1318
      5 N          -7.4637  -11.8269   29.5431 N.ar    1  UNL1       -0.2279
      6 C          -6.9733  -12.7951   28.7250 C.ar    1  UNL1        0.1149
      7 N          -9.2231  -10.7535   30.8148 N.pl3   1  UNL1       -0.2932
      8 C          -9.1998  -10.9934   32.2644 C.3     1  UNL1        0.0923
      9 C          -9.9242   -9.8773   33.0342 C.3     1  UNL1        0.0252
     10 C         -11.2449   -9.4666   32.3435 C.3     1  UNL1        0.0472
     11 C         -11.0423   -9.0969   30.8430 C.3     1  UNL1        0.0252
     12 C          -9.6442   -9.4391   30.3123 C.3     1  UNL1        0.0923
     13 C         -12.3180  -10.5646   32.5140 C.3     1  UNL1        0.2054
     14 O         -11.7987  -11.8487   32.1636 O.3     1  UNL1       -0.4755
     15 C         -11.8463  -12.9984   32.9693 C.ar    1  UNL1        0.1388
     16 C         -11.1045  -13.1259   34.1587 C.ar    1  UNL1        0.0369
     17 C         -11.1832  -14.2981   34.9124 C.ar    1  UNL1        0.0033
     18 C         -11.9994  -15.3505   34.4939 C.ar    1  UNL1        0.0066
     19 C         -12.7555  -15.2403   33.3141 C.ar    1  UNL1        0.0785
     20 C         -12.6612  -14.0596   32.5541 C.ar    1  UNL1        0.0433
     21 C         -13.6162  -16.3673   32.8786 C.2     1  UNL1        0.3381
     22 O         -14.8457  -16.3567   33.1529 O.2     1  UNL1       -0.2451
     23 O         -13.1062  -17.4436   32.1533 O.3     1  UNL1       -0.4771
     24 H         -12.1553  -17.4680   31.8089 H       1  UNL1        0.2954
     25 C          -7.8305  -15.1168   26.0842 C.2     1  UNL1        0.2839
     26 O          -9.0452  -14.8784   25.8471 O.2     1  UNL1       -0.2665
     27 N          -7.2812  -14.8241   27.3776 N.am    1  UNL1       -0.2766
     28 H          -6.5262  -15.4492   27.7385 H       1  UNL1        0.1553
     29 C          -5.5134  -18.1794   21.5484 C.ar    1  UNL1        0.1417
     30 C          -6.6958  -17.8189   22.2416 C.ar    1  UNL1        0.0743
     31 C          -6.5859  -16.9785   23.3432 C.ar    1  UNL1        0.1482
     32 O          -7.5556  -16.5370   24.1067 O.2     1  UNL1       -0.4491
     33 C          -7.0206  -15.7725   25.0424 C.ar    1  UNL1        0.1946
     34 C          -5.6341  -15.6967   24.8621 C.ar    1  UNL1        0.0202
     35 C          -4.6294  -14.9232   25.6616 C.3     1  UNL1        0.0345
     36 C          -5.3792  -16.4976   23.7668 C.ar    1  UNL1        0.0339
     37 C          -4.1907  -16.8292   23.1215 C.ar    1  UNL1        0.0058
     38 C          -4.2524  -17.6891   22.0010 C.ar    1  UNL1        0.0342
     39 C          -2.9958  -18.0647   21.3097 C.ar    1  UNL1        0.0029
     40 C          -2.5640  -17.3432   20.1823 C.ar    1  UNL1        0.0001
     41 C          -1.3741  -17.6903   19.5348 C.ar    1  UNL1        0.0000
     42 C          -0.6029  -18.7543   20.0091 C.ar    1  UNL1        0.0000
     43 C          -1.0185  -19.4717   21.1336 C.ar    1  UNL1        0.0000
     44 C          -2.2077  -19.1287   21.7843 C.ar    1  UNL1        0.0001
     45 C          -5.7588  -20.4064   20.4300 C.3     1  UNL1        0.2525
     46 O          -5.5558  -18.9975   20.4072 O.3     1  UNL1       -0.4713
@<TRIPOS>BOND
     1    45    46    1
     2    46    29    1
     3    29    30   ar
     4    30    31   ar
     5    31    32   ar
     6    32    33   ar
     7    33    25    1
     8    25    26    2
     9    25    27   am
    10    27     1    1
    11     1     2   ar
    12     2     3   ar
    13     3     4   ar
    14     4     7    1
    15     7     8    1
    16     8     9    1
    17     9    10    1
    18    10    13    1
    19    13    14    1
    20    14    15    1
    21    15    16   ar
    22    16    17   ar
    23    17    18   ar
    24    18    19   ar
    25    19    21    1
    26    21    22    2
    27    21    23    1
    28    19    20   ar
    29    10    11    1
    30    11    12    1
    31     4     5   ar
    32     5     6   ar
    33    33    34   ar
    34    34    35    1
    35    34    36   ar
    36    36    37   ar
    37    37    38   ar
    38    38    39    1
    39    39    40   ar
    40    40    41   ar
    41    41    42   ar
    42    42    43   ar
    43    43    44   ar
    44    38    29   ar
    45    44    39   ar
    46    36    31   ar
    47     6     1   ar
    48    12     7    1
    49    20    15   ar
    50    27    28    1
    51    23    24    1
@<TRIPOS>MOLECULE
*****
 46 51 0 0 0
SMALL
GASTEIGER

@<TRIPOS>ATOM
      1 C          -7.6896  -13.1386   28.8160 C.ar    1  UNL1        0.0702
      2 C          -7.3248  -12.1227   29.7137 C.ar    1  UNL1        0.0191
      3 C          -8.2595  -11.6189   30.6195 C.ar    1  UNL1        0.0356
      4 C          -9.5587  -12.1505   30.6428 C.ar    1  UNL1        0.1318
      5 N          -9.8882  -13.1374   29.7640 N.ar    1  UNL1       -0.2279
      6 C          -8.9951  -13.6429   28.8729 C.ar    1  UNL1        0.1149
      7 N         -10.5571  -11.6414   31.5472 N.pl3   1  UNL1       -0.2932
      8 C         -11.9772  -11.8291   31.2194 C.3     1  UNL1        0.0923
      9 C         -12.8868  -11.0315   32.1678 C.3     1  UNL1        0.0252
     10 C         -12.3390   -9.6097   32.4289 C.3     1  UNL1        0.0472
     11 C         -10.8600   -9.6224   32.9205 C.3     1  UNL1        0.0252
     12 C         -10.1932  -11.0001   32.8174 C.3     1  UNL1        0.0923
     13 C         -12.5106   -8.7173   31.1797 C.3     1  UNL1        0.2054
     14 O         -11.2657   -8.5386   30.5017 O.3     1  UNL1       -0.4755
     15 C         -10.6042   -7.3136   30.3147 C.ar    1  UNL1        0.1388
     16 C         -11.2893   -6.0923   30.1722 C.ar    1  UNL1        0.0369
     17 C         -10.5779   -4.9074   29.9767 C.ar    1  UNL1        0.0033
     18 C          -9.1830   -4.9245   29.9240 C.ar    1  UNL1        0.0066
     19 C          -8.4790   -6.1319   30.0732 C.ar    1  UNL1        0.0785
     20 C          -9.2044   -7.3235   30.2581 C.ar    1  UNL1        0.0433
     21 C          -6.9968   -6.1370   30.0116 C.2     1  UNL1        0.3381
     22 O          -6.3532   -5.1138   30.3667 O.2     1  UNL1       -0.2451
     23 O          -6.2829   -7.2557   29.5832 O.3     1  UNL1       -0.4771
     24 H          -6.7267   -8.1427   29.3839 H       1  UNL1        0.2954
     25 C          -6.9388  -14.9556   27.2165 C.2     1  UNL1        0.2839
     26 O          -7.6613  -15.8450   27.7414 O.2     1  UNL1       -0.2665
     27 N          -6.7487  -13.6994   27.8843 N.am    1  UNL1       -0.2766
     28 H          -5.8272  -13.2213   27.7686 H       1  UNL1        0.1553
     29 C          -4.8210  -15.5170   21.6919 C.ar    1  UNL1        0.1417
     30 C          -5.7712  -14.8789   22.5277 C.ar    1  UNL1        0.0743
     31 C          -5.7717  -15.1871   23.8830 C.ar    1  UNL1        0.1482
     32 O          -6.5659  -14.7055   24.8079 O.2     1  UNL1       -0.4491
     33 C          -6.2360  -15.2647   25.9588 C.ar    1  UNL1        0.1946
     34 C          -5.1567  -16.1374   25.7738 C.ar    1  UNL1        0.0202
     35 C          -4.4340  -16.9590   26.7981 C.3     1  UNL1        0.0345
     36 C          -4.8876  -16.0792   24.4208 C.ar    1  UNL1        0.0339
     37 C          -3.9407  -16.7351   23.6384 C.ar    1  UNL1        0.0058
     38 C          -3.9086  -16.4599   22.2520 C.ar    1  UNL1        0.0342
     39 C          -2.9166  -17.1593   21.4005 C.ar    1  UNL1        0.0029
     40 C          -3.2827  -18.3169   20.6905 C.ar    1  UNL1        0.0001
     41 C          -2.3510  -18.9724   19.8796 C.ar    1  UNL1        0.0000
     42 C          -1.0499  -18.4764   19.7653 C.ar    1  UNL1        0.0000
     43 C          -0.6787  -17.3221   20.4596 C.ar    1  UNL1        0.0000
     44 C          -1.6067  -16.6633   21.2719 C.ar    1  UNL1        0.0001
     45 C          -5.6611  -14.3974   19.6156 C.3     1  UNL1        0.2525
     46 O          -4.7429  -15.2267   20.3197 O.3     1  UNL1       -0.4713
@<TRIPOS>BOND
     1    45    46    1
     2    46    29    1
     3    29    30   ar
     4    30    31   ar
     5    31    32   ar
     6    32    33   ar
     7    33    25    1
     8    25    26    2
     9    25    27   am
    10    27     1    1
    11     1     2   ar
    12     2     3   ar
    13     3     4   ar
    14     4     7    1
    15     7     8    1
    16     8     9    1
    17     9    10    1
    18    10    13    1
    19    13    14    1
    20    14    15    1
    21    15    16   ar
    22    16    17   ar
    23    17    18   ar
    24    18    19   ar
    25    19    21    1
    26    21    22    2
    27    21    23    1
    28    19    20   ar
    29    10    11    1
    30    11    12    1
    31     4     5   ar
    32     5     6   ar
    33    33    34   ar
    34    34    35    1
    35    34    36   ar
    36    36    37   ar
    37    37    38   ar
    38    38    39    1
    39    39    40   ar
    40    40    41   ar
    41    41    42   ar
    42    42    43   ar
    43    43    44   ar
    44    38    29   ar
    45    44    39   ar
    46    36    31   ar
    47     6     1   ar
    48    12     7    1
    49    20    15   ar
    50    27    28    1
    51    23    24    1
@<TRIPOS>MOLECULE
*****
 46 51 0 0 0
SMALL
GASTEIGER

@<TRIPOS>ATOM
      1 C          -5.4727  -11.6279   28.2568 C.ar    1  UNL1        0.0702
      2 C          -6.1349  -11.8407   29.4763 C.ar    1  UNL1        0.0191
      3 C          -6.2722  -10.7957   30.3912 C.ar    1  UNL1        0.0356
      4 C          -5.7648   -9.5257   30.0741 C.ar    1  UNL1        0.1318
      5 N          -5.1285   -9.3429   28.8839 N.ar    1  UNL1       -0.2279
      6 C          -4.9826  -10.3456   27.9781 C.ar    1  UNL1        0.1149
      7 N          -5.8670   -8.4285   31.0013 N.pl3   1  UNL1       -0.2932
      8 C          -6.5646   -8.6371   32.2778 C.3     1  UNL1        0.0923
      9 C          -6.7739   -7.3135   33.0309 C.3     1  UNL1        0.0252
     10 C          -7.2261   -6.1786   32.0836 C.3     1  UNL1        0.0472
     11 C          -6.2715   -6.0053   30.8637 C.3     1  UNL1        0.0252
     12 C          -5.2360   -7.1296   30.7331 C.3     1  UNL1        0.0923
     13 C          -8.6876   -6.3914   31.6305 C.3     1  UNL1        0.2054
     14 O          -8.8118   -7.5723   30.8360 O.3     1  UNL1       -0.4755
     15 C          -9.8544   -8.5100   30.9212 C.ar    1  UNL1        0.1388
     16 C         -11.1716   -8.1546   31.2678 C.ar    1  UNL1        0.0369
     17 C         -12.1641   -9.1328   31.3481 C.ar    1  UNL1        0.0033
     18 C         -11.8586  -10.4689   31.0827 C.ar    1  UNL1        0.0066
     19 C         -10.5518  -10.8438   30.7258 C.ar    1  UNL1        0.0785
     20 C          -9.5547   -9.8531   30.6587 C.ar    1  UNL1        0.0433
     21 C         -10.2395  -12.2675   30.4499 C.2     1  UNL1        0.3381
     22 O          -9.4620  -12.5647   29.5042 O.2     1  UNL1       -0.2451
     23 O         -10.7721  -13.2996   31.2217 O.3     1  UNL1       -0.4771
     24 H         -11.3169  -13.1308   32.0573 H       1  UNL1        0.2954
     25 C          -6.1680  -13.8387   27.2309 C.2     1  UNL1        0.2839
     26 O          -6.7308  -14.2540   28.2794 O.2     1  UNL1       -0.2665
     27 N          -5.3319  -12.6730   27.2792 N.am    1  UNL1       -0.2766
     28 H          -4.5093  -12.6371   26.6365 H       1  UNL1        0.1553
     29 C          -5.8393  -16.5120   21.9332 C.ar    1  UNL1        0.1417
     30 C          -5.2089  -15.6306   22.8465 C.ar    1  UNL1        0.0743
     31 C          -5.8408  -15.3702   24.0568 C.ar    1  UNL1        0.1482
     32 O          -5.4197  -14.5899   25.0222 O.2     1  UNL1       -0.4491
     33 C          -6.3198  -14.6173   25.9892 C.ar    1  UNL1        0.1946
     34 C          -7.3681  -15.4781   25.6416 C.ar    1  UNL1        0.0202
     35 C          -8.5834  -15.8399   26.4410 C.3     1  UNL1        0.0345
     36 C          -7.0401  -15.9382   24.3819 C.ar    1  UNL1        0.0339
     37 C          -7.6997  -16.8050   23.5144 C.ar    1  UNL1        0.0058
     38 C          -7.0990  -17.0924   22.2673 C.ar    1  UNL1        0.0342
     39 C          -7.7934  -18.0019   21.3246 C.ar    1  UNL1        0.0029
     40 C          -9.1884  -17.9253   21.1634 C.ar    1  UNL1        0.0001
     41 C          -9.8438  -18.7760   20.2677 C.ar    1  UNL1        0.0000
     42 C          -9.1138  -19.7049   19.5220 C.ar    1  UNL1        0.0000
     43 C          -7.7265  -19.7830   19.6683 C.ar    1  UNL1        0.0000
     44 C          -7.0667  -18.9348   20.5628 C.ar    1  UNL1        0.0001
     45 C          -3.8666  -16.6374   20.3959 C.3     1  UNL1        0.2525
     46 O          -5.2402  -16.8453   20.7071 O.3     1  UNL1       -0.4713
@<TRIPOS>BOND
     1    45    46    1
     2    46    29    1
     3    29    30   ar
     4    30    31   ar
     5    31    32   ar
     6    32    33   ar
     7    33    25    1
     8    25    26    2
     9    25    27   am
    10    27     1    1
    11     1     2   ar
    12     2     3   ar
    13     3     4   ar
    14     4     7    1
    15     7     8    1
    16     8     9    1
    17     9    10    1
    18    10    13    1
    19    13    14    1
    20    14    15    1
    21    15    16   ar
    22    16    17   ar
    23    17    18   ar
    24    18    19   ar
    25    19    21    1
    26    21    22    2
    27    21    23    1
    28    19    20   ar
    29    10    11    1
    30    11    12    1
    31     4     5   ar
    32     5     6   ar
    33    33    34   ar
    34    34    35    1
    35    34    36   ar
    36    36    37   ar
    37    37    38   ar
    38    38    39    1
    39    39    40   ar
    40    40    41   ar
    41    41    42   ar
    42    42    43   ar
    43    43    44   ar
    44    38    29   ar
    45    44    39   ar
    46    36    31   ar
    47     6     1   ar
    48    12     7    1
    49    20    15   ar
    50    27    28    1
    51    23    24    1
@<TRIPOS>MOLECULE
*****
 46 51 0 0 0
SMALL
GASTEIGER

@<TRIPOS>ATOM
      1 C          -7.9710  -14.5247   27.8681 C.ar    1  UNL1        0.0702
      2 C          -9.3355  -14.6134   28.1865 C.ar    1  UNL1        0.0191
      3 C          -9.9041  -13.7150   29.0907 C.ar    1  UNL1        0.0356
      4 C          -9.1086  -12.7086   29.6611 C.ar    1  UNL1        0.1318
      5 N          -7.7880  -12.6410   29.3348 N.ar    1  UNL1       -0.2279
      6 C          -7.2127  -13.5051   28.4576 C.ar    1  UNL1        0.1149
      7 N          -9.6536  -11.7775   30.6150 N.pl3   1  UNL1       -0.2932
      8 C          -9.8304  -10.3734   30.2190 C.3     1  UNL1        0.0923
      9 C         -10.2031   -9.4895   31.4202 C.3     1  UNL1        0.0252
     10 C          -9.3636   -9.8362   32.6711 C.3     1  UNL1        0.0472
     11 C          -9.4242  -11.3522   33.0277 C.3     1  UNL1        0.0252
     12 C         -10.0977  -12.2080   31.9472 C.3     1  UNL1        0.0923
     13 C          -7.9055   -9.3536   32.5047 C.3     1  UNL1        0.2054
     14 O          -7.7889   -7.9609   32.8014 O.3     1  UNL1       -0.4755
     15 C          -7.8891   -6.9145   31.8696 C.ar    1  UNL1        0.1388
     16 C          -6.7662   -6.2232   31.3772 C.ar    1  UNL1        0.0369
     17 C          -6.9289   -5.1831   30.4607 C.ar    1  UNL1        0.0033
     18 C          -8.2051   -4.8231   30.0239 C.ar    1  UNL1        0.0066
     19 C          -9.3390   -5.5065   30.4960 C.ar    1  UNL1        0.0785
     20 C          -9.1669   -6.5460   31.4288 C.ar    1  UNL1        0.0433
     21 C         -10.6898   -5.1117   30.0267 C.2     1  UNL1        0.3381
     22 O         -10.9307   -3.9040   29.7609 O.2     1  UNL1       -0.2451
     23 O         -11.7097   -6.0467   29.8530 O.3     1  UNL1       -0.4771
     24 H         -11.5586   -7.0426   29.9460 H       1  UNL1        0.2954
     25 C          -7.6080  -15.3838   25.5115 C.2     1  UNL1        0.2839
     26 O          -8.7009  -14.9294   25.0782 O.2     1  UNL1       -0.2665
     27 N          -7.3544  -15.4168   26.9239 N.am    1  UNL1       -0.2766
     28 H          -6.7745  -16.2019   27.2959 H       1  UNL1        0.1553
     29 C          -4.6114  -18.0104   21.1021 C.ar    1  UNL1        0.1417
     30 C          -5.8875  -17.6850   21.6258 C.ar    1  UNL1        0.0743
     31 C          -5.9507  -16.9761   22.8197 C.ar    1  UNL1        0.1482
     32 O          -7.0276  -16.5860   23.4570 O.2     1  UNL1       -0.4491
     33 C          -6.6453  -15.9500   24.5504 C.ar    1  UNL1        0.1946
     34 C          -5.2471  -15.9063   24.6132 C.ar    1  UNL1        0.0202
     35 C          -4.3787  -15.2639   25.6524 C.3     1  UNL1        0.0345
     36 C          -4.8248  -16.5903   23.4907 C.ar    1  UNL1        0.0339
     37 C          -3.5503  -16.8925   23.0182 C.ar    1  UNL1        0.0058
     38 C          -3.4367  -17.6204   21.8116 C.ar    1  UNL1        0.0342
     39 C          -2.0881  -17.9638   21.3004 C.ar    1  UNL1        0.0029
     40 C          -1.4080  -17.0791   20.4442 C.ar    1  UNL1        0.0001
     41 C          -0.1321  -17.3972   19.9687 C.ar    1  UNL1        0.0000
     42 C           0.4781  -18.5957   20.3472 C.ar    1  UNL1        0.0000
     43 C          -0.1853  -19.4772   21.2044 C.ar    1  UNL1        0.0000
     44 C          -1.4615  -19.1638   21.6822 C.ar    1  UNL1        0.0001
     45 C          -4.4447  -20.1124   19.7516 C.3     1  UNL1        0.2525
     46 O          -4.4745  -18.6952   19.8833 O.3     1  UNL1       -0.4713
@<TRIPOS>BOND
     1    45    46    1
     2    46    29    1
     3    29    30   ar
     4    30    31   ar
     5    31    32   ar
     6    32    33   ar
     7    33    25    1
     8    25    26    2
     9    25    27   am
    10    27     1    1
    11     1     2   ar
    12     2     3   ar
    13     3     4   ar
    14     4     7    1
    15     7     8    1
    16     8     9    1
    17     9    10    1
    18    10    13    1
    19    13    14    1
    20    14    15    1
    21    15    16   ar
    22    16    17   ar
    23    17    18   ar
    24    18    19   ar
    25    19    21    1
    26    21    22    2
    27    21    23    1
    28    19    20   ar
    29    10    11    1
    30    11    12    1
    31     4     5   ar
    32     5     6   ar
    33    33    34   ar
    34    34    35    1
    35    34    36   ar
    36    36    37   ar
    37    37    38   ar
    38    38    39    1
    39    39    40   ar
    40    40    41   ar
    41    41    42   ar
    42    42    43   ar
    43    43    44   ar
    44    38    29   ar
    45    44    39   ar
    46    36    31   ar
    47     6     1   ar
    48    12     7    1
    49    20    15   ar
    50    27    28    1
    51    23    24    1
