@<TRIPOS>MOLECULE
*****
 43 47 0 0 0
SMALL
GASTEIGER

@<TRIPOS>ATOM
      1 C         -29.8689   46.9770   -8.3342 C.3     1  UNL1        0.1333
      2 N         -28.5384   47.4058   -7.9008 N.ar    1  UNL1       -0.2950
      3 C         -27.7119   46.8178   -6.9909 C.ar    1  UNL1        0.2019
      4 N         -26.4988   47.4176   -6.8878 N.ar    1  UNL1       -0.2134
      5 C         -26.5978   48.4442   -7.7509 C.ar    1  UNL1        0.1033
      6 C         -25.6241   49.3978   -8.0369 C.ar    1  UNL1        0.0284
      7 C         -25.9354   50.4195   -8.9625 C.ar    1  UNL1        0.0922
      8 C         -27.2114   50.4283   -9.5913 C.ar    1  UNL1        0.1782
      9 C         -28.1626   49.4290   -9.2945 C.ar    1  UNL1        0.1897
     10 C         -27.8230   48.4528   -8.3536 C.ar    1  UNL1        0.1173
     11 O         -29.4004   49.4460   -9.9441 O.3     1  UNL1       -0.4669
     12 C         -29.6146   50.2549  -11.1021 C.3     1  UNL1        0.2527
     13 C         -28.9063   51.6049  -10.9435 C.3     1  UNL1        0.2526
     14 O         -27.5516   51.4063  -10.5340 O.3     1  UNL1       -0.4682
     15 C         -24.9217   51.4527   -9.2593 C.2     1  UNL1        0.2526
     16 O         -25.2618   52.6666   -9.2262 O.2     1  UNL1       -0.2697
     17 N         -23.5695   51.0846   -9.5867 N.am    1  UNL1       -0.2803
     18 H         -23.3035   50.0751   -9.5592 H       1  UNL1        0.1552
     19 C         -22.5271   52.0306   -9.8765 C.ar    1  UNL1        0.0506
     20 C         -22.5184   52.6789  -11.1181 C.ar    1  UNL1        0.0170
     21 C         -21.5357   53.6242  -11.4148 C.ar    1  UNL1        0.0309
     22 C         -20.5560   53.9414  -10.4709 C.ar    1  UNL1        0.1441
     23 F         -19.6212   54.8763  -10.7793 F       1  UNL1       -0.2042
     24 C         -20.5516   53.3112   -9.2125 C.ar    1  UNL1        0.1000
     25 C         -21.5569   52.3701   -8.9163 C.ar    1  UNL1        0.0208
     26 C         -19.5137   53.6944   -8.1844 C.3     1  UNL1        0.4207
     27 F         -19.3910   55.0686   -8.0693 F       1  UNL1       -0.1658
     28 F         -19.8694   53.1868   -6.9474 F       1  UNL1       -0.1658
     29 F         -18.2891   53.1688   -8.5529 F       1  UNL1       -0.1658
     30 N         -28.0566   45.6706   -6.2016 N.pl3   1  UNL1       -0.2814
     31 H         -28.2423   44.7767   -6.7093 H       1  UNL1        0.1551
     32 C         -28.0065   45.6396   -4.7643 C.ar    1  UNL1        0.0891
     33 C         -29.1520   45.9728   -4.0194 C.ar    1  UNL1        0.0733
     34 CL        -30.6406   46.4735   -4.8115 Cl      1  UNL1       -0.0809
     35 C         -29.1123   45.9445   -2.6243 C.ar    1  UNL1        0.0130
     36 C         -27.9432   45.5780   -1.9582 C.ar    1  UNL1        0.0097
     37 C         -26.7903   45.2233   -2.6780 C.ar    1  UNL1        0.1041
     38 C         -26.8313   45.2472   -4.0890 C.ar    1  UNL1        0.1605
     39 F         -25.7463   44.8599   -4.8084 F       1  UNL1       -0.2026
     40 C         -25.5632   44.8294   -1.9426 C.2     1  UNL1        0.3403
     41 O         -24.4390   44.8335   -2.5130 O.2     1  UNL1       -0.2450
     42 O         -25.6408   44.4518   -0.6041 O.3     1  UNL1       -0.4770
     43 H         -24.8105   44.1819   -0.0902 H       1  UNL1        0.2954
@<TRIPOS>BOND
     1     1     2    1
     2     2     3   ar
     3     3    30    1
     4    30    32    1
     5    32    33   ar
     6    33    34    1
     7    33    35   ar
     8    35    36   ar
     9    36    37   ar
    10    37    40    1
    11    40    41    2
    12    40    42    1
    13    37    38   ar
    14    38    39    1
    15     3     4   ar
    16     4     5   ar
    17     5     6   ar
    18     6     7   ar
    19     7    15    1
    20    15    16    2
    21    15    17   am
    22    17    19    1
    23    19    20   ar
    24    20    21   ar
    25    21    22   ar
    26    22    23    1
    27    22    24   ar
    28    24    26    1
    29    26    27    1
    30    26    28    1
    31    26    29    1
    32    24    25   ar
    33     7     8   ar
    34     8     9   ar
    35     9    10   ar
    36     9    11    1
    37    11    12    1
    38    12    13    1
    39    13    14    1
    40    10     2   ar
    41    38    32   ar
    42    10     5   ar
    43    25    19   ar
    44    14     8    1
    45    30    31    1
    46    42    43    1
    47    17    18    1
@<TRIPOS>MOLECULE
*****
 43 47 0 0 0
SMALL
GASTEIGER

@<TRIPOS>ATOM
      1 C         -30.9921   50.1447   -8.5841 C.3     1  UNL1        0.1333
      2 N         -29.7883   50.0397   -9.4098 N.ar    1  UNL1       -0.2950
      3 C         -29.6870   49.6810  -10.7205 C.ar    1  UNL1        0.2019
      4 N         -28.4276   49.7777  -11.2170 N.ar    1  UNL1       -0.2134
      5 C         -27.7152   50.1821  -10.1505 C.ar    1  UNL1        0.1033
      6 C         -26.3466   50.4351  -10.1016 C.ar    1  UNL1        0.0284
      7 C         -25.7798   50.8296   -8.8685 C.ar    1  UNL1        0.0922
      8 C         -26.6193   50.9838   -7.7305 C.ar    1  UNL1        0.1782
      9 C         -28.0065   50.7433   -7.8265 C.ar    1  UNL1        0.1897
     10 C         -28.5211   50.3292   -9.0582 C.ar    1  UNL1        0.1173
     11 O         -28.8136   50.9255   -6.6995 O.3     1  UNL1       -0.4669
     12 C         -28.3310   51.6271   -5.5523 C.3     1  UNL1        0.2527
     13 C         -26.8630   51.2709   -5.2925 C.3     1  UNL1        0.2526
     14 O         -26.1037   51.3988   -6.4965 O.3     1  UNL1       -0.4682
     15 C         -24.3253   51.0790   -8.7940 C.2     1  UNL1        0.2526
     16 O         -23.7133   50.7978   -7.7279 O.2     1  UNL1       -0.2697
     17 N         -23.6160   51.6382   -9.9143 N.am    1  UNL1       -0.2803
     18 H         -24.1384   51.8161  -10.8009 H       1  UNL1        0.1552
     19 C         -22.2027   51.8991   -9.9213 C.ar    1  UNL1        0.0506
     20 C         -21.4800   51.7168  -11.1073 C.ar    1  UNL1        0.0170
     21 C         -20.1125   51.9913  -11.1507 C.ar    1  UNL1        0.0309
     22 C         -19.4523   52.4618  -10.0131 C.ar    1  UNL1        0.1441
     23 F         -18.1249   52.7363  -10.0871 F       1  UNL1       -0.2042
     24 C         -20.1602   52.6635   -8.8135 C.ar    1  UNL1        0.1000
     25 C         -21.5433   52.3986   -8.7837 C.ar    1  UNL1        0.0208
     26 C         -19.4446   53.2139   -7.6027 C.3     1  UNL1        0.4207
     27 F         -20.3106   53.4039   -6.5394 F       1  UNL1       -0.1658
     28 F         -18.4550   52.3337   -7.2027 F       1  UNL1       -0.1658
     29 F         -18.8659   54.4273   -7.9260 F       1  UNL1       -0.1658
     30 N         -30.7864   49.2413  -11.5304 N.pl3   1  UNL1       -0.2814
     31 H         -31.7144   49.6918  -11.3658 H       1  UNL1        0.1551
     32 C         -30.6534   48.3443  -12.6471 C.ar    1  UNL1        0.0891
     33 C         -30.8379   46.9629  -12.4577 C.ar    1  UNL1        0.0733
     34 CL        -31.1852   46.2996  -10.8660 Cl      1  UNL1       -0.0809
     35 C         -30.7116   46.0855  -13.5361 C.ar    1  UNL1        0.0130
     36 C         -30.4113   46.5696  -14.8091 C.ar    1  UNL1        0.0097
     37 C         -30.2396   47.9462  -15.0295 C.ar    1  UNL1        0.1041
     38 C         -30.3720   48.8344  -13.9401 C.ar    1  UNL1        0.1605
     39 F         -30.2612   50.1738  -14.1363 F       1  UNL1       -0.2026
     40 C         -29.9290   48.4333  -16.3963 C.2     1  UNL1        0.3403
     41 O         -30.6974   49.2415  -16.9841 O.2     1  UNL1       -0.2450
     42 O         -28.7754   48.0022  -17.0470 O.3     1  UNL1       -0.4770
     43 H         -28.5510   48.3280  -17.9796 H       1  UNL1        0.2954
@<TRIPOS>BOND
     1     1     2    1
     2     2     3   ar
     3     3    30    1
     4    30    32    1
     5    32    33   ar
     6    33    34    1
     7    33    35   ar
     8    35    36   ar
     9    36    37   ar
    10    37    40    1
    11    40    41    2
    12    40    42    1
    13    37    38   ar
    14    38    39    1
    15     3     4   ar
    16     4     5   ar
    17     5     6   ar
    18     6     7   ar
    19     7    15    1
    20    15    16    2
    21    15    17   am
    22    17    19    1
    23    19    20   ar
    24    20    21   ar
    25    21    22   ar
    26    22    23    1
    27    22    24   ar
    28    24    26    1
    29    26    27    1
    30    26    28    1
    31    26    29    1
    32    24    25   ar
    33     7     8   ar
    34     8     9   ar
    35     9    10   ar
    36     9    11    1
    37    11    12    1
    38    12    13    1
    39    13    14    1
    40    10     2   ar
    41    38    32   ar
    42    10     5   ar
    43    25    19   ar
    44    14     8    1
    45    30    31    1
    46    42    43    1
    47    17    18    1
@<TRIPOS>MOLECULE
*****
 43 47 0 0 0
SMALL
GASTEIGER

@<TRIPOS>ATOM
      1 C         -30.2762   49.6742   -5.9826 C.3     1  UNL1        0.1333
      2 N         -28.8197   49.8159   -5.9562 N.ar    1  UNL1       -0.2950
      3 C         -27.9601   49.5526   -4.9322 C.ar    1  UNL1        0.2019
      4 N         -26.6527   49.6979   -5.2662 N.ar    1  UNL1       -0.2134
      5 C         -26.7138   50.1035   -6.5470 C.ar    1  UNL1        0.1033
      6 C         -25.6429   50.4067   -7.3839 C.ar    1  UNL1        0.0284
      7 C         -25.9205   50.8437   -8.6990 C.ar    1  UNL1        0.0922
      8 C         -27.2714   50.9329   -9.1356 C.ar    1  UNL1        0.1782
      9 C         -28.3289   50.5917   -8.2657 C.ar    1  UNL1        0.1897
     10 C         -28.0106   50.1898   -6.9654 C.ar    1  UNL1        0.1173
     11 O         -29.6467   50.6646   -8.7267 O.3     1  UNL1       -0.4669
     12 C         -29.9349   50.7817  -10.1211 C.3     1  UNL1        0.2527
     13 C         -28.9215   51.7137  -10.7949 C.3     1  UNL1        0.2526
     14 O         -27.5903   51.3354  -10.4384 O.3     1  UNL1       -0.4682
     15 C         -24.7962   51.1921   -9.5922 C.2     1  UNL1        0.2526
     16 O         -24.8441   50.8323  -10.7999 O.2     1  UNL1       -0.2697
     17 N         -23.6613   51.9244   -9.0956 N.am    1  UNL1       -0.2803
     18 H         -23.6700   52.2517   -8.1040 H       1  UNL1        0.1552
     19 C         -22.5367   52.3084   -9.9039 C.ar    1  UNL1        0.0506
     20 C         -22.7542   53.0661  -11.0617 C.ar    1  UNL1        0.0170
     21 C         -21.6782   53.4783  -11.8489 C.ar    1  UNL1        0.0309
     22 C         -20.3710   53.1481  -11.4834 C.ar    1  UNL1        0.1441
     23 F         -19.3416   53.5754  -12.2583 F       1  UNL1       -0.2042
     24 C         -20.1275   52.3974  -10.3181 C.ar    1  UNL1        0.1000
     25 C         -21.2188   51.9993   -9.5214 C.ar    1  UNL1        0.0208
     26 C         -18.7076   52.0840   -9.9097 C.3     1  UNL1        0.4207
     27 F         -17.8346   52.1811  -10.9798 F       1  UNL1       -0.1658
     28 F         -18.2942   52.9716   -8.9323 F       1  UNL1       -0.1658
     29 F         -18.6501   50.7979   -9.4054 F       1  UNL1       -0.1658
     30 N         -28.3630   49.1540   -3.6144 N.pl3   1  UNL1       -0.2814
     31 H         -28.8399   49.8694   -3.0211 H       1  UNL1        0.1551
     32 C         -28.2932   47.8022   -3.1272 C.ar    1  UNL1        0.0891
     33 C         -29.4786   47.1057   -2.8311 C.ar    1  UNL1        0.0733
     34 CL        -31.0528   47.8720   -3.0014 Cl      1  UNL1       -0.0809
     35 C         -29.4199   45.7934   -2.3587 C.ar    1  UNL1        0.0130
     36 C         -28.1899   45.1595   -2.1853 C.ar    1  UNL1        0.0097
     37 C         -26.9917   45.8259   -2.4905 C.ar    1  UNL1        0.1041
     38 C         -27.0507   47.1515   -2.9727 C.ar    1  UNL1        0.1605
     39 F         -25.9099   47.8000   -3.3231 F       1  UNL1       -0.2026
     40 C         -25.6980   45.1234   -2.3041 C.2     1  UNL1        0.3403
     41 O         -24.8482   45.0774   -3.2340 O.2     1  UNL1       -0.2450
     42 O         -25.4058   44.5063   -1.0901 O.3     1  UNL1       -0.4770
     43 H         -24.5259   44.0246   -0.9493 H       1  UNL1        0.2954
@<TRIPOS>BOND
     1     1     2    1
     2     2     3   ar
     3     3    30    1
     4    30    32    1
     5    32    33   ar
     6    33    34    1
     7    33    35   ar
     8    35    36   ar
     9    36    37   ar
    10    37    40    1
    11    40    41    2
    12    40    42    1
    13    37    38   ar
    14    38    39    1
    15     3     4   ar
    16     4     5   ar
    17     5     6   ar
    18     6     7   ar
    19     7    15    1
    20    15    16    2
    21    15    17   am
    22    17    19    1
    23    19    20   ar
    24    20    21   ar
    25    21    22   ar
    26    22    23    1
    27    22    24   ar
    28    24    26    1
    29    26    27    1
    30    26    28    1
    31    26    29    1
    32    24    25   ar
    33     7     8   ar
    34     8     9   ar
    35     9    10   ar
    36     9    11    1
    37    11    12    1
    38    12    13    1
    39    13    14    1
    40    10     2   ar
    41    38    32   ar
    42    10     5   ar
    43    25    19   ar
    44    14     8    1
    45    30    31    1
    46    42    43    1
    47    17    18    1
@<TRIPOS>MOLECULE
*****
 43 47 0 0 0
SMALL
GASTEIGER

@<TRIPOS>ATOM
      1 C         -25.4282   51.5821  -12.4811 C.3     1  UNL1        0.1333
      2 N         -25.0523   51.4471  -11.0732 N.ar    1  UNL1       -0.2950
      3 C         -23.8072   51.4810  -10.5204 C.ar    1  UNL1        0.2019
      4 N         -23.8104   51.4217   -9.1645 N.ar    1  UNL1       -0.2134
      5 C         -25.1184   51.3111   -8.8723 C.ar    1  UNL1        0.1033
      6 C         -25.6905   51.2085   -7.6068 C.ar    1  UNL1        0.0284
      7 C         -27.0942   51.0736   -7.5128 C.ar    1  UNL1        0.0922
      8 C         -27.8779   51.0755   -8.7000 C.ar    1  UNL1        0.1782
      9 C         -27.2632   51.2080   -9.9633 C.ar    1  UNL1        0.1897
     10 C         -25.8702   51.3122  -10.0121 C.ar    1  UNL1        0.1173
     11 O         -28.0577   51.2315  -11.1134 O.3     1  UNL1       -0.4669
     12 C         -29.4706   51.4260  -11.0300 C.3     1  UNL1        0.2527
     13 C         -30.0383   50.6737   -9.8212 C.3     1  UNL1        0.2526
     14 O         -29.2735   50.9712   -8.6512 O.3     1  UNL1       -0.4682
     15 C         -27.7150   50.9398   -6.1786 C.2     1  UNL1        0.2526
     16 O         -27.2290   51.5892   -5.2131 O.2     1  UNL1       -0.2697
     17 N         -28.8514   50.0798   -5.9785 N.am    1  UNL1       -0.2803
     18 H         -29.2631   49.5917   -6.8048 H       1  UNL1        0.1552
     19 C         -29.5148   49.9060   -4.7155 C.ar    1  UNL1        0.0506
     20 C         -30.6924   50.6197   -4.4582 C.ar    1  UNL1        0.0170
     21 C         -31.3736   50.4477   -3.2525 C.ar    1  UNL1        0.0309
     22 C         -30.8931   49.5526   -2.2937 C.ar    1  UNL1        0.1441
     23 F         -31.5839   49.3925   -1.1361 F       1  UNL1       -0.2042
     24 C         -29.7182   48.8162   -2.5350 C.ar    1  UNL1        0.1000
     25 C         -29.0462   48.9848   -3.7614 C.ar    1  UNL1        0.0208
     26 C         -29.2327   47.8195   -1.5094 C.3     1  UNL1        0.4207
     27 F         -29.1235   48.3907   -0.2531 F       1  UNL1       -0.1658
     28 F         -30.1200   46.7611   -1.4276 F       1  UNL1       -0.1658
     29 F         -27.9923   47.3406   -1.8886 F       1  UNL1       -0.1658
     30 N         -22.5873   51.5737  -11.2694 N.pl3   1  UNL1       -0.2814
     31 H         -22.5843   51.1719  -12.2337 H       1  UNL1        0.1551
     32 C         -21.4340   52.3173  -10.8378 C.ar    1  UNL1        0.0891
     33 C         -21.5674   53.6751  -10.4964 C.ar    1  UNL1        0.0733
     34 CL        -23.1148   54.5007  -10.6301 Cl      1  UNL1       -0.0809
     35 C         -20.4534   54.4037  -10.0758 C.ar    1  UNL1        0.0130
     36 C         -19.2037   53.7921   -9.9816 C.ar    1  UNL1        0.0097
     37 C         -19.0461   52.4329  -10.2992 C.ar    1  UNL1        0.1041
     38 C         -20.1733   51.6943  -10.7201 C.ar    1  UNL1        0.1605
     39 F         -20.0578   50.3669  -10.9841 F       1  UNL1       -0.2026
     40 C         -17.7061   51.8065  -10.1815 C.2     1  UNL1        0.3403
     41 O         -17.3841   51.1592   -9.1488 O.2     1  UNL1       -0.2450
     42 O         -16.7850   51.9253  -11.2196 O.3     1  UNL1       -0.4770
     43 H         -15.8673   51.5014  -11.1525 H       1  UNL1        0.2954
@<TRIPOS>BOND
     1     1     2    1
     2     2     3   ar
     3     3    30    1
     4    30    32    1
     5    32    33   ar
     6    33    34    1
     7    33    35   ar
     8    35    36   ar
     9    36    37   ar
    10    37    40    1
    11    40    41    2
    12    40    42    1
    13    37    38   ar
    14    38    39    1
    15     3     4   ar
    16     4     5   ar
    17     5     6   ar
    18     6     7   ar
    19     7    15    1
    20    15    16    2
    21    15    17   am
    22    17    19    1
    23    19    20   ar
    24    20    21   ar
    25    21    22   ar
    26    22    23    1
    27    22    24   ar
    28    24    26    1
    29    26    27    1
    30    26    28    1
    31    26    29    1
    32    24    25   ar
    33     7     8   ar
    34     8     9   ar
    35     9    10   ar
    36     9    11    1
    37    11    12    1
    38    12    13    1
    39    13    14    1
    40    10     2   ar
    41    38    32   ar
    42    10     5   ar
    43    25    19   ar
    44    14     8    1
    45    30    31    1
    46    42    43    1
    47    17    18    1
@<TRIPOS>MOLECULE
*****
 43 47 0 0 0
SMALL
GASTEIGER

@<TRIPOS>ATOM
      1 C         -25.6715   51.4131  -12.2051 C.3     1  UNL1        0.1333
      2 N         -25.0877   51.2112  -10.8783 N.ar    1  UNL1       -0.2950
      3 C         -23.8242   51.4965  -10.4548 C.ar    1  UNL1        0.2019
      4 N         -23.6300   51.2763   -9.1298 N.ar    1  UNL1       -0.2134
      5 C         -24.8216   50.8000   -8.7272 C.ar    1  UNL1        0.1033
      6 C         -25.1762   50.4033   -7.4403 C.ar    1  UNL1        0.0284
      7 C         -26.4805   49.9029   -7.2267 C.ar    1  UNL1        0.0922
      8 C         -27.3946   49.8463   -8.3153 C.ar    1  UNL1        0.1782
      9 C         -27.0059   50.2823   -9.5999 C.ar    1  UNL1        0.1897
     10 C         -25.6984   50.7450   -9.7725 C.ar    1  UNL1        0.1173
     11 O         -27.9306   50.2391  -10.6476 O.3     1  UNL1       -0.4669
     12 C         -29.3243   50.0536  -10.3941 C.3     1  UNL1        0.2527
     13 C         -29.5264   49.0417   -9.2607 C.3     1  UNL1        0.2526
     14 O         -28.7047   49.3828   -8.1423 O.3     1  UNL1       -0.4682
     15 C         -26.8651   49.4556   -5.8720 C.2     1  UNL1        0.2526
     16 O         -26.4905   50.1344   -4.8775 O.2     1  UNL1       -0.2697
     17 N         -27.6490   48.2632   -5.6856 N.am    1  UNL1       -0.2803
     18 H         -27.9865   47.7475   -6.5286 H       1  UNL1        0.1552
     19 C         -28.0701   47.7710   -4.4026 C.ar    1  UNL1        0.0506
     20 C         -27.4267   46.6540   -3.8544 C.ar    1  UNL1        0.0170
     21 C         -27.7947   46.1731   -2.5972 C.ar    1  UNL1        0.0309
     22 C         -28.8022   46.8084   -1.8674 C.ar    1  UNL1        0.1441
     23 F         -29.1296   46.3296   -0.6400 F       1  UNL1       -0.2042
     24 C         -29.4547   47.9393   -2.3931 C.ar    1  UNL1        0.1000
     25 C         -29.0655   48.4269   -3.6560 C.ar    1  UNL1        0.0208
     26 C         -30.5118   48.6437   -1.5762 C.3     1  UNL1        0.4207
     27 F         -31.5831   47.8116   -1.2996 F       1  UNL1       -0.1658
     28 F         -29.9713   49.0668   -0.3749 F       1  UNL1       -0.1658
     29 F         -30.9731   49.7433   -2.2760 F       1  UNL1       -0.1658
     30 N         -22.7748   51.9878  -11.3005 N.pl3   1  UNL1       -0.2814
     31 H         -22.9528   51.9981  -12.3298 H       1  UNL1        0.1551
     32 C         -21.5716   52.6060  -10.8112 C.ar    1  UNL1        0.0891
     33 C         -21.5938   53.9534  -10.4089 C.ar    1  UNL1        0.0733
     34 CL        -23.0594   54.9181  -10.5346 Cl      1  UNL1       -0.0809
     35 C         -20.4309   54.5608   -9.9321 C.ar    1  UNL1        0.0130
     36 C         -19.2422   53.8373   -9.8417 C.ar    1  UNL1        0.0097
     37 C         -19.1965   52.4852  -10.2199 C.ar    1  UNL1        0.1041
     38 C         -20.3735   51.8692  -10.6978 C.ar    1  UNL1        0.1605
     39 F         -20.3683   50.5501  -11.0217 F       1  UNL1       -0.2026
     40 C         -17.9197   51.7380  -10.1050 C.2     1  UNL1        0.3403
     41 O         -17.7482   50.8892   -9.1889 O.2     1  UNL1       -0.2450
     42 O         -16.8915   51.9659  -11.0165 O.3     1  UNL1       -0.4770
     43 H         -16.0154   51.4617  -10.9501 H       1  UNL1        0.2954
@<TRIPOS>BOND
     1     1     2    1
     2     2     3   ar
     3     3    30    1
     4    30    32    1
     5    32    33   ar
     6    33    34    1
     7    33    35   ar
     8    35    36   ar
     9    36    37   ar
    10    37    40    1
    11    40    41    2
    12    40    42    1
    13    37    38   ar
    14    38    39    1
    15     3     4   ar
    16     4     5   ar
    17     5     6   ar
    18     6     7   ar
    19     7    15    1
    20    15    16    2
    21    15    17   am
    22    17    19    1
    23    19    20   ar
    24    20    21   ar
    25    21    22   ar
    26    22    23    1
    27    22    24   ar
    28    24    26    1
    29    26    27    1
    30    26    28    1
    31    26    29    1
    32    24    25   ar
    33     7     8   ar
    34     8     9   ar
    35     9    10   ar
    36     9    11    1
    37    11    12    1
    38    12    13    1
    39    13    14    1
    40    10     2   ar
    41    38    32   ar
    42    10     5   ar
    43    25    19   ar
    44    14     8    1
    45    30    31    1
    46    42    43    1
    47    17    18    1
@<TRIPOS>MOLECULE
*****
 43 47 0 0 0
SMALL
GASTEIGER

@<TRIPOS>ATOM
      1 C         -23.6775   52.7886  -11.8343 C.3     1  UNL1        0.1333
      2 N         -23.4681   52.1956  -10.5128 N.ar    1  UNL1       -0.2950
      3 C         -22.3468   52.2222   -9.7389 C.ar    1  UNL1        0.2019
      4 N         -22.5137   51.6557   -8.5169 N.ar    1  UNL1       -0.2134
      5 C         -23.7887   51.2298   -8.5554 C.ar    1  UNL1        0.1033
      6 C         -24.4828   50.5645   -7.5480 C.ar    1  UNL1        0.0284
      7 C         -25.8187   50.1757   -7.7962 C.ar    1  UNL1        0.0922
      8 C         -26.4200   50.4971   -9.0447 C.ar    1  UNL1        0.1782
      9 C         -25.6919   51.1958  -10.0311 C.ar    1  UNL1        0.1897
     10 C         -24.3653   51.5378   -9.7542 C.ar    1  UNL1        0.1173
     11 O         -26.3135   51.5211  -11.2405 O.3     1  UNL1       -0.4669
     12 C         -27.7320   51.4349  -11.3873 C.3     1  UNL1        0.2527
     13 C         -28.2662   50.1997  -10.6536 C.3     1  UNL1        0.2526
     14 O         -27.7492   50.1546   -9.3221 O.3     1  UNL1       -0.4682
     15 C         -26.5616   49.4480   -6.7465 C.2     1  UNL1        0.2526
     16 O         -27.0764   48.3317   -7.0276 O.2     1  UNL1       -0.2697
     17 N         -26.7025   50.0024   -5.4260 N.am    1  UNL1       -0.2803
     18 H         -26.2251   50.9050   -5.2070 H       1  UNL1        0.1552
     19 C         -27.4000   49.3510   -4.3514 C.ar    1  UNL1        0.0506
     20 C         -26.6632   48.7708   -3.3109 C.ar    1  UNL1        0.0170
     21 C         -27.3150   48.1582   -2.2398 C.ar    1  UNL1        0.0309
     22 C         -28.7107   48.1272   -2.1894 C.ar    1  UNL1        0.1441
     23 F         -29.3194   47.5390   -1.1281 F       1  UNL1       -0.2042
     24 C         -29.4718   48.7138   -3.2178 C.ar    1  UNL1        0.1000
     25 C         -28.8051   49.3436   -4.2868 C.ar    1  UNL1        0.0208
     26 C         -30.9795   48.7124   -3.1303 C.3     1  UNL1        0.4207
     27 F         -31.4257   49.3440   -1.9819 F       1  UNL1       -0.1658
     28 F         -31.5130   49.3734   -4.2224 F       1  UNL1       -0.1658
     29 F         -31.4362   47.4073   -3.1250 F       1  UNL1       -0.1658
     30 N         -21.0930   52.7898  -10.1433 N.pl3   1  UNL1       -0.2814
     31 H         -20.8739   52.7914  -11.1648 H       1  UNL1        0.1551
     32 C         -20.2041   53.4898   -9.2551 C.ar    1  UNL1        0.0891
     33 C         -19.1475   52.7971   -8.6373 C.ar    1  UNL1        0.0733
     34 CL        -18.9153   51.0723   -8.8934 Cl      1  UNL1       -0.0809
     35 C         -18.2797   53.4690   -7.7746 C.ar    1  UNL1        0.0130
     36 C         -18.4460   54.8309   -7.5251 C.ar    1  UNL1        0.0097
     37 C         -19.4820   55.5507   -8.1429 C.ar    1  UNL1        0.1041
     38 C         -20.3571   54.8726   -9.0191 C.ar    1  UNL1        0.1605
     39 F         -21.3352   55.5559   -9.6682 F       1  UNL1       -0.2026
     40 C         -19.6297   57.0008   -7.8652 C.2     1  UNL1        0.3403
     41 O         -19.5773   57.4411   -6.6851 O.2     1  UNL1       -0.2450
     42 O         -19.8256   57.8972   -8.9131 O.3     1  UNL1       -0.4770
     43 H         -19.9266   58.8898   -8.7373 H       1  UNL1        0.2954
@<TRIPOS>BOND
     1     1     2    1
     2     2     3   ar
     3     3    30    1
     4    30    32    1
     5    32    33   ar
     6    33    34    1
     7    33    35   ar
     8    35    36   ar
     9    36    37   ar
    10    37    40    1
    11    40    41    2
    12    40    42    1
    13    37    38   ar
    14    38    39    1
    15     3     4   ar
    16     4     5   ar
    17     5     6   ar
    18     6     7   ar
    19     7    15    1
    20    15    16    2
    21    15    17   am
    22    17    19    1
    23    19    20   ar
    24    20    21   ar
    25    21    22   ar
    26    22    23    1
    27    22    24   ar
    28    24    26    1
    29    26    27    1
    30    26    28    1
    31    26    29    1
    32    24    25   ar
    33     7     8   ar
    34     8     9   ar
    35     9    10   ar
    36     9    11    1
    37    11    12    1
    38    12    13    1
    39    13    14    1
    40    10     2   ar
    41    38    32   ar
    42    10     5   ar
    43    25    19   ar
    44    14     8    1
    45    30    31    1
    46    42    43    1
    47    17    18    1
