@<TRIPOS>MOLECULE
*****
 53 59 0 0 0
SMALL
GASTEIGER

@<TRIPOS>ATOM
      1 C          61.1807   86.5132    9.9219 C.ar    1  UNL1        0.0481
      2 C          60.5905   86.9489   11.1185 C.ar    1  UNL1        0.0176
      3 C          60.7494   86.2131   12.2964 C.ar    1  UNL1        0.0382
      4 C          61.5055   85.0258   12.2944 C.ar    1  UNL1        0.1388
      5 C          62.0936   84.5931   11.1009 C.ar    1  UNL1        0.0382
      6 C          61.9359   85.3290    9.9233 C.ar    1  UNL1        0.0176
      7 N          60.2187   88.9063    6.6102 N.pl3   1  UNL1       -0.3041
      8 C          59.5637   87.6013    6.7576 C.3     1  UNL1        0.1122
      9 C          60.4855   86.6369    7.5049 C.3     1  UNL1        0.1122
     10 N          61.0165   87.2792    8.7136 N.pl3   1  UNL1       -0.3041
     11 C          61.6694   88.5856    8.5659 C.3     1  UNL1        0.1122
     12 C          60.7466   89.5493    7.8195 C.3     1  UNL1        0.1122
     13 C          59.8074   91.1646    3.0241 C.ar    1  UNL1        0.0659
     14 C          58.7127   90.9796    3.8809 C.ar    1  UNL1        0.0187
     15 C          58.8425   90.2368    5.0531 C.ar    1  UNL1        0.0160
     16 C          60.0743   89.6652    5.3951 C.ar    1  UNL1        0.0477
     17 C          61.1688   89.8281    4.5344 C.ar    1  UNL1        0.0117
     18 C          61.0523   90.5593    3.3344 C.ar    1  UNL1       -0.0050
     19 N          58.9866   92.7334   -0.1275 N.ar    1  UNL1       -0.2024
     20 N          59.4983   93.7686    0.5239 N.ar    1  UNL1       -0.1442
     21 C          59.8849   93.3069    1.7337 C.ar    1  UNL1        0.2073
     22 N          59.6365   91.9856    1.8591 N.ar    1  UNL1       -0.2401
     23 C          59.0607   91.6635    0.6886 C.ar    1  UNL1        0.3522
     24 O          58.6448   90.5096    0.3970 O.2     1  UNL1       -0.2444
     25 C          58.4340   92.8147   -1.4845 C.3     1  UNL1        0.1099
     26 C          57.9909   91.4238   -1.9585 C.3     1  UNL1        0.0265
     27 C          55.9165   93.1984   -1.7160 C.3     1  UNL1        0.0021
     28 C          57.2883   93.8472   -1.5315 C.3     1  UNL1        0.0245
     29 C          62.2487   90.6532    2.3944 C.3     1  UNL1        0.0238
     30 C          63.1148   91.8806    2.7090 C.3     1  UNL1        0.0047
     31 C          61.7941   90.6616    0.9305 C.3     1  UNL1        0.0047
     32 O          61.6970   84.2535   13.4489 O.3     1  UNL1       -0.4727
     33 C          60.9289   83.1007   13.7849 C.3     1  UNL1        0.2374
     34 C          59.9412   82.7997   12.6534 C.3     1  UNL1        0.1909
     35 C          58.9453   81.7407   13.0313 C.3     1  UNL1        0.1783
     36 O          59.4328   80.5552   12.4941 O.3     1  UNL1       -0.3266
     37 C          60.2934   80.9318   11.4355 C.3     1  UNL1        0.2315
     38 O          60.6334   82.2993   11.5520 O.3     1  UNL1       -0.3254
     39 C          59.5999   80.6470   10.0969 C.ar    1  UNL1        0.0410
     40 C          60.0045   81.3926    8.9674 C.ar    1  UNL1        0.0022
     41 C          59.3919   81.2151    7.7266 C.ar    1  UNL1        0.0113
     42 C          58.3500   80.3018    7.5853 C.ar    1  UNL1        0.0585
     43 CL         57.5770   80.0860    6.0255 Cl      1  UNL1       -0.0822
     44 C          57.9127   79.5701    8.6891 C.ar    1  UNL1        0.0226
     45 C          58.5153   79.7355    9.9432 C.ar    1  UNL1        0.0591
     46 CL         57.8321   78.7887   11.2637 Cl      1  UNL1       -0.0824
     47 C          61.5758   80.0829   11.5558 C.3     1  UNL1        0.1911
     48 N          62.7756   80.8515   11.2228 N.ar    1  UNL1       -0.2116
     49 N          63.0896   81.2640   10.0075 N.ar    1  UNL1       -0.0430
     50 N          64.2292   81.9372   10.0685 N.ar    1  UNL1       -0.0230
     51 N          64.6694   81.9755   11.3196 N.ar    1  UNL1       -0.1127
     52 C          63.7552   81.2929   12.0337 C.ar    1  UNL1        0.1615
     53 C          63.8170   81.1054   13.5156 C.3     1  UNL1        0.0754
@<TRIPOS>BOND
     1    27    28    1
     2    28    25    1
     3    25    26    1
     4    25    19    1
     5    19    20   ar
     6    20    21   ar
     7    21    22   ar
     8    22    13    1
     9    13    14   ar
    10    14    15   ar
    11    15    16   ar
    12    16     7    1
    13     7     8    1
    14     8     9    1
    15     9    10    1
    16    10     1    1
    17     1     2   ar
    18     2     3   ar
    19     3     4   ar
    20     4    32    1
    21    32    33    1
    22    33    34    1
    23    34    35    1
    24    35    36    1
    25    36    37    1
    26    37    47    1
    27    47    48    1
    28    48    49   ar
    29    49    50   ar
    30    50    51   ar
    31    51    52   ar
    32    52    53    1
    33    37    39    1
    34    39    40   ar
    35    40    41   ar
    36    41    42   ar
    37    42    43    1
    38    42    44   ar
    39    44    45   ar
    40    45    46    1
    41    37    38    1
    42     4     5   ar
    43     5     6   ar
    44    10    11    1
    45    11    12    1
    46    16    17   ar
    47    17    18   ar
    48    18    29    1
    49    29    30    1
    50    29    31    1
    51    22    23   ar
    52    23    24    2
    53    23    19   ar
    54    18    13   ar
    55    12     7    1
    56     6     1   ar
    57    38    34    1
    58    52    48   ar
    59    45    39   ar
@<TRIPOS>MOLECULE
*****
 53 59 0 0 0
SMALL
GASTEIGER

@<TRIPOS>ATOM
      1 C          59.9276   84.7841    9.3296 C.ar    1  UNL1        0.0481
      2 C          60.9288   83.8017    9.3783 C.ar    1  UNL1        0.0176
      3 C          60.9358   82.8466   10.3991 C.ar    1  UNL1        0.0382
      4 C          59.9360   82.8601   11.3898 C.ar    1  UNL1        0.1388
      5 C          58.9385   83.8398   11.3395 C.ar    1  UNL1        0.0382
      6 C          58.9304   84.7941   10.3185 C.ar    1  UNL1        0.0176
      7 N          59.7409   87.9911    6.6277 N.pl3   1  UNL1       -0.3041
      8 C          58.4947   87.3299    7.0323 C.3     1  UNL1        0.1122
      9 C          58.7689   85.8645    7.3723 C.3     1  UNL1        0.1122
     10 N          59.9243   85.7617    8.2722 N.pl3   1  UNL1       -0.3041
     11 C          61.1698   86.4253    7.8681 C.3     1  UNL1        0.1122
     12 C          60.8948   87.8906    7.5293 C.3     1  UNL1        0.1122
     13 C          59.7705   90.8467    3.4696 C.ar    1  UNL1        0.0659
     14 C          58.6302   90.6771    4.2681 C.ar    1  UNL1        0.0187
     15 C          58.6153   89.7398    5.2995 C.ar    1  UNL1        0.0160
     16 C          59.7451   88.9532    5.5565 C.ar    1  UNL1        0.0477
     17 C          60.8823   89.1019    4.7503 C.ar    1  UNL1        0.0117
     18 C          60.9099   90.0307    3.6897 C.ar    1  UNL1       -0.0050
     19 N          59.2915   93.0108    0.6139 N.ar    1  UNL1       -0.2024
     20 N          59.9002   93.8474    1.4430 N.ar    1  UNL1       -0.1442
     21 C          60.1725   93.1446    2.5647 C.ar    1  UNL1        0.2073
     22 N          59.7550   91.8649    2.4579 N.ar    1  UNL1       -0.2401
     23 C          59.1951   91.8199    1.2374 C.ar    1  UNL1        0.3522
     24 O          58.6507   90.7950    0.7446 O.2     1  UNL1       -0.2444
     25 C          58.8133   93.3879   -0.7212 C.3     1  UNL1        0.1099
     26 C          59.9357   93.2131   -1.7532 C.3     1  UNL1        0.0265
     27 C          56.3011   93.4556   -1.1932 C.3     1  UNL1        0.0021
     28 C          57.5490   92.5799   -1.0814 C.3     1  UNL1        0.0245
     29 C          62.1415   90.1110    2.7951 C.3     1  UNL1        0.0238
     30 C          63.0378   91.2962    3.1791 C.3     1  UNL1        0.0047
     31 C          61.7400   90.1812    1.3174 C.3     1  UNL1        0.0047
     32 O          59.8969   81.9234   12.4324 O.3     1  UNL1       -0.4727
     33 C          60.8768   81.8216   13.4626 C.3     1  UNL1        0.2374
     34 C          61.9591   82.8830   13.2422 C.3     1  UNL1        0.1909
     35 C          63.0809   82.7694   14.2345 C.3     1  UNL1        0.1783
     36 O          62.8077   83.7083   15.2222 O.3     1  UNL1       -0.3266
     37 C          61.9596   84.6695   14.6223 C.3     1  UNL1        0.2315
     38 O          61.4116   84.1514   13.4262 O.3     1  UNL1       -0.3254
     39 C          62.7604   85.9503   14.3538 C.ar    1  UNL1        0.0410
     40 C          63.6957   86.3652   15.3277 C.ar    1  UNL1        0.0022
     41 C          64.4313   87.5400   15.1694 C.ar    1  UNL1        0.0113
     42 C          64.2405   88.3385   14.0444 C.ar    1  UNL1        0.0585
     43 CL         65.1618   89.8188   13.8517 Cl      1  UNL1       -0.0822
     44 C          63.3053   87.9667   13.0788 C.ar    1  UNL1        0.0226
     45 C          62.5569   86.7907   13.2211 C.ar    1  UNL1        0.0591
     46 CL         61.3734   86.4660   11.9559 Cl      1  UNL1       -0.0824
     47 C          60.8150   84.9618   15.6144 C.3     1  UNL1        0.1911
     48 N          59.6991   85.6591   14.9743 N.ar    1  UNL1       -0.2116
     49 N          58.7500   85.0689   14.2697 N.ar    1  UNL1       -0.0430
     50 N          57.8978   85.9916   13.8480 N.ar    1  UNL1       -0.0230
     51 N          58.2764   87.1901   14.2732 N.ar    1  UNL1       -0.1127
     52 C          59.4041   86.9726   14.9751 C.ar    1  UNL1        0.1615
     53 C          60.1729   88.0429   15.6809 C.3     1  UNL1        0.0754
@<TRIPOS>BOND
     1    27    28    1
     2    28    25    1
     3    25    26    1
     4    25    19    1
     5    19    20   ar
     6    20    21   ar
     7    21    22   ar
     8    22    13    1
     9    13    14   ar
    10    14    15   ar
    11    15    16   ar
    12    16     7    1
    13     7     8    1
    14     8     9    1
    15     9    10    1
    16    10     1    1
    17     1     2   ar
    18     2     3   ar
    19     3     4   ar
    20     4    32    1
    21    32    33    1
    22    33    34    1
    23    34    35    1
    24    35    36    1
    25    36    37    1
    26    37    47    1
    27    47    48    1
    28    48    49   ar
    29    49    50   ar
    30    50    51   ar
    31    51    52   ar
    32    52    53    1
    33    37    39    1
    34    39    40   ar
    35    40    41   ar
    36    41    42   ar
    37    42    43    1
    38    42    44   ar
    39    44    45   ar
    40    45    46    1
    41    37    38    1
    42     4     5   ar
    43     5     6   ar
    44    10    11    1
    45    11    12    1
    46    16    17   ar
    47    17    18   ar
    48    18    29    1
    49    29    30    1
    50    29    31    1
    51    22    23   ar
    52    23    24    2
    53    23    19   ar
    54    18    13   ar
    55    12     7    1
    56     6     1   ar
    57    38    34    1
    58    52    48   ar
    59    45    39   ar
@<TRIPOS>MOLECULE
*****
 53 59 0 0 0
SMALL
GASTEIGER

@<TRIPOS>ATOM
      1 C          60.5513   83.9942    9.4504 C.ar    1  UNL1        0.0481
      2 C          59.4345   83.6804   10.2404 C.ar    1  UNL1        0.0176
      3 C          59.4918   82.6336   11.1651 C.ar    1  UNL1        0.0382
      4 C          60.6732   81.8830   11.3143 C.ar    1  UNL1        0.1388
      5 C          61.7857   82.1975   10.5264 C.ar    1  UNL1        0.0382
      6 C          61.7292   83.2446    9.6025 C.ar    1  UNL1        0.0176
      7 N          60.1152   87.4381    7.0905 N.pl3   1  UNL1       -0.3041
      8 C          58.9436   86.5867    7.3276 C.3     1  UNL1        0.1122
      9 C          59.3857   85.1374    7.5333 C.3     1  UNL1        0.1122
     10 N          60.4860   85.0771    8.5033 N.pl3   1  UNL1       -0.3041
     11 C          61.6566   85.9308    8.2669 C.3     1  UNL1        0.1122
     12 C          61.2136   87.3797    8.0624 C.3     1  UNL1        0.1122
     13 C          59.9384   90.5907    4.2341 C.ar    1  UNL1        0.0659
     14 C          61.1570   89.9631    4.5301 C.ar    1  UNL1        0.0187
     15 C          61.2194   88.9342    5.4683 C.ar    1  UNL1        0.0160
     16 C          60.0603   88.5083    6.1287 C.ar    1  UNL1        0.0477
     17 C          58.8413   89.1436    5.8536 C.ar    1  UNL1        0.0117
     18 C          58.7613   90.1995    4.9226 C.ar    1  UNL1       -0.0050
     19 N          59.6472   92.6595    1.2840 N.ar    1  UNL1       -0.2024
     20 N          59.8085   93.5936    2.2109 N.ar    1  UNL1       -0.1442
     21 C          59.9653   92.9445    3.3858 C.ar    1  UNL1        0.2073
     22 N          59.9174   91.6054    3.2189 N.ar    1  UNL1       -0.2401
     23 C          59.7006   91.4624    1.9007 C.ar    1  UNL1        0.3522
     24 O          59.5645   90.3510    1.3212 O.2     1  UNL1       -0.2444
     25 C          59.4302   92.9492   -0.1381 C.3     1  UNL1        0.1099
     26 C          60.4957   92.2450   -0.9892 C.3     1  UNL1        0.0265
     27 C          57.9524   91.3179   -1.4394 C.3     1  UNL1        0.0021
     28 C          57.9946   92.5586   -0.5476 C.3     1  UNL1        0.0245
     29 C          57.4292   90.9080    4.7049 C.3     1  UNL1        0.0238
     30 C          57.3702   92.2389    5.4668 C.3     1  UNL1        0.0047
     31 C          56.2572   89.9995    5.0933 C.3     1  UNL1        0.0047
     32 O          60.7829   80.8259   12.2288 O.3     1  UNL1       -0.4727
     33 C          61.1936   80.9726   13.5859 C.3     1  UNL1        0.2374
     34 C          62.2280   82.0978   13.6858 C.3     1  UNL1        0.1909
     35 C          62.6047   82.4028   15.1075 C.3     1  UNL1        0.1783
     36 O          61.8389   83.5036   15.4730 O.3     1  UNL1       -0.3266
     37 C          61.4812   84.1481   14.2647 C.3     1  UNL1        0.2315
     38 O          61.6866   83.2748   13.1718 O.3     1  UNL1       -0.3254
     39 C          62.3114   85.4292   14.1121 C.ar    1  UNL1        0.0410
     40 C          63.2170   85.7607   15.1443 C.ar    1  UNL1        0.0022
     41 C          63.9763   86.9298   15.0921 C.ar    1  UNL1        0.0113
     42 C          63.8395   87.8053   14.0176 C.ar    1  UNL1        0.0585
     43 CL         64.7905   89.2781   13.9583 Cl      1  UNL1       -0.0822
     44 C          62.9344   87.5162   12.9966 C.ar    1  UNL1        0.0226
     45 C          62.1628   86.3472   13.0324 C.ar    1  UNL1        0.0591
     46 CL         61.0214   86.1297   11.7070 Cl      1  UNL1       -0.0824
     47 C          59.9816   84.4993   14.3527 C.3     1  UNL1        0.1911
     48 N          59.7663   85.8797   14.7875 N.ar    1  UNL1       -0.2116
     49 N          60.5074   86.5094   15.6818 N.ar    1  UNL1       -0.0430
     50 N          60.0424   87.7415   15.8275 N.ar    1  UNL1       -0.0230
     51 N          58.9984   87.9317   15.0309 N.ar    1  UNL1       -0.1127
     52 C          58.8323   86.7621   14.3859 C.ar    1  UNL1        0.1615
     53 C          57.7854   86.5179   13.3470 C.3     1  UNL1        0.0754
@<TRIPOS>BOND
     1    27    28    1
     2    28    25    1
     3    25    26    1
     4    25    19    1
     5    19    20   ar
     6    20    21   ar
     7    21    22   ar
     8    22    13    1
     9    13    14   ar
    10    14    15   ar
    11    15    16   ar
    12    16     7    1
    13     7     8    1
    14     8     9    1
    15     9    10    1
    16    10     1    1
    17     1     2   ar
    18     2     3   ar
    19     3     4   ar
    20     4    32    1
    21    32    33    1
    22    33    34    1
    23    34    35    1
    24    35    36    1
    25    36    37    1
    26    37    47    1
    27    47    48    1
    28    48    49   ar
    29    49    50   ar
    30    50    51   ar
    31    51    52   ar
    32    52    53    1
    33    37    39    1
    34    39    40   ar
    35    40    41   ar
    36    41    42   ar
    37    42    43    1
    38    42    44   ar
    39    44    45   ar
    40    45    46    1
    41    37    38    1
    42     4     5   ar
    43     5     6   ar
    44    10    11    1
    45    11    12    1
    46    16    17   ar
    47    17    18   ar
    48    18    29    1
    49    29    30    1
    50    29    31    1
    51    22    23   ar
    52    23    24    2
    53    23    19   ar
    54    18    13   ar
    55    12     7    1
    56     6     1   ar
    57    38    34    1
    58    52    48   ar
    59    45    39   ar
