@<TRIPOS>MOLECULE
*****
 46 51 0 0 0
SMALL
GASTEIGER

@<TRIPOS>ATOM
      1 C          60.8189   88.6069   11.9074 C.ar    1  UNL1        0.1318
      2 C          60.1369   89.8009   11.6269 C.ar    1  UNL1        0.0356
      3 C          60.1915   90.3381   10.3402 C.ar    1  UNL1        0.0191
      4 C          60.9138   89.6867    9.3336 C.ar    1  UNL1        0.0702
      5 C          61.6171   88.5173    9.6636 C.ar    1  UNL1        0.1149
      6 N          61.5530   88.0143   10.9248 N.ar    1  UNL1       -0.2279
      7 C          62.4225   87.5434   15.0710 C.3     1  UNL1        0.0235
      8 C          61.5816   88.6222   14.3280 C.3     1  UNL1        0.0922
      9 N          60.8029   88.0349   13.2287 N.pl3   1  UNL1       -0.2932
     10 C          59.8491   86.9592   13.5369 C.3     1  UNL1        0.0923
     11 C          60.2785   86.1730   14.7873 C.3     1  UNL1        0.0252
     12 C          61.8151   86.1107   14.8642 C.3     1  UNL1        0.0471
     13 C          63.1170   89.3717   16.7376 C.3     1  UNL1        0.0001
     14 C          62.6073   87.9390   16.5620 C.3     1  UNL1        0.0018
     15 C          62.2739   85.0452   15.8831 C.3     1  UNL1        0.2054
     16 O          63.3458   84.2575   15.3607 O.3     1  UNL1       -0.4755
     17 C          63.2357   83.2959   14.3432 C.ar    1  UNL1        0.1388
     18 C          62.7083   82.0102   14.5636 C.ar    1  UNL1        0.0369
     19 C          62.6165   81.0996   13.5096 C.ar    1  UNL1        0.0033
     20 C          63.0559   81.4528   12.2319 C.ar    1  UNL1        0.0066
     21 C          63.6033   82.7258   11.9951 C.ar    1  UNL1        0.0785
     22 C          63.6810   83.6411   13.0612 C.ar    1  UNL1        0.0433
     23 C          64.0725   83.1205   10.6443 C.2     1  UNL1        0.3381
     24 O          64.9571   82.4353   10.0651 O.2     1  UNL1       -0.2451
     25 O          63.5501   84.2295    9.9798 O.3     1  UNL1       -0.4771
     26 H          62.7688   84.7626   10.3385 H       1  UNL1        0.2954
     27 N          60.9807   90.2674    8.0207 N.am    1  UNL1       -0.2766
     28 C          59.9781   90.0836    7.0058 C.2     1  UNL1        0.2839
     29 O          58.9986   89.3170    7.2068 O.2     1  UNL1       -0.2665
     30 H          61.7841   90.9031    7.8239 H       1  UNL1        0.1553
     31 C          60.0788   90.7626    5.7022 C.ar    1  UNL1        0.1946
     32 O          61.2392   90.9885    5.1118 O.2     1  UNL1       -0.4492
     33 C          61.0022   91.6080    3.9814 C.ar    1  UNL1        0.1452
     34 C          61.9324   92.0445    3.0446 C.ar    1  UNL1        0.0375
     35 C          61.4542   92.6921    1.8919 C.ar    1  UNL1        0.0031
     36 C          60.0609   92.8917    1.6930 C.ar    1  UNL1        0.0002
     37 C          59.1477   92.4296    2.6711 C.ar    1  UNL1        0.0028
     38 C          59.6585   91.7936    3.8027 C.ar    1  UNL1        0.0337
     39 C          59.0334   91.2382    4.9008 C.ar    1  UNL1        0.0202
     40 C          57.5562   91.1415    5.1346 C.3     1  UNL1        0.0345
     41 C          59.5670   93.5769    0.4718 C.ar    1  UNL1        0.0000
     42 C          60.4632   94.2366   -0.3909 C.ar    1  UNL1        0.0000
     43 C          59.9954   94.8807   -1.5404 C.ar    1  UNL1        0.0000
     44 C          58.6318   94.8736   -1.8423 C.ar    1  UNL1        0.0000
     45 C          57.7328   94.2222   -0.9950 C.ar    1  UNL1        0.0000
     46 C          58.1949   93.5771    0.1563 C.ar    1  UNL1        0.0000
@<TRIPOS>BOND
     1    13    14    1
     2    14     7    1
     3     7     8    1
     4     8     9    1
     5     9     1    1
     6     1     2   ar
     7     2     3   ar
     8     3     4   ar
     9     4    27    1
    10    27    28   am
    11    28    29    2
    12    28    31    1
    13    31    32   ar
    14    32    33   ar
    15    33    34   ar
    16    34    35   ar
    17    35    36   ar
    18    36    41    1
    19    41    42   ar
    20    42    43   ar
    21    43    44   ar
    22    44    45   ar
    23    45    46   ar
    24    36    37   ar
    25    37    38   ar
    26    38    39   ar
    27    39    40    1
    28     4     5   ar
    29     5     6   ar
    30     9    10    1
    31    10    11    1
    32    11    12    1
    33    12    15    1
    34    15    16    1
    35    16    17    1
    36    17    18   ar
    37    18    19   ar
    38    19    20   ar
    39    20    21   ar
    40    21    23    1
    41    23    24    2
    42    23    25    1
    43    21    22   ar
    44    12     7    1
    45    22    17   ar
    46     6     1   ar
    47    39    31   ar
    48    38    33   ar
    49    46    41   ar
    50    27    30    1
    51    25    26    1
@<TRIPOS>MOLECULE
*****
 46 51 0 0 0
SMALL
GASTEIGER

@<TRIPOS>ATOM
      1 C          59.5327   92.3315    3.2493 C.ar    1  UNL1        0.1318
      2 C          58.3971   92.1292    4.0487 C.ar    1  UNL1        0.0356
      3 C          58.5235   91.4586    5.2658 C.ar    1  UNL1        0.0191
      4 C          59.7750   90.9984    5.6913 C.ar    1  UNL1        0.0702
      5 C          60.8797   91.1826    4.8447 C.ar    1  UNL1        0.1149
      6 N          60.7324   91.8352    3.6614 N.ar    1  UNL1       -0.2279
      7 C          59.3792   92.3973   -0.4497 C.3     1  UNL1        0.0235
      8 C          58.5971   92.4699    0.8941 C.3     1  UNL1        0.0922
      9 N          59.4366   93.0000    1.9776 N.pl3   1  UNL1       -0.2932
     10 C          60.0355   94.3331    1.8172 C.3     1  UNL1        0.0923
     11 C          60.2505   94.6742    0.3327 C.3     1  UNL1        0.0252
     12 C          60.5911   93.3951   -0.4539 C.3     1  UNL1        0.0471
     13 C          56.9449   92.7048   -1.2126 C.3     1  UNL1        0.0001
     14 C          58.4075   92.5831   -1.6477 C.3     1  UNL1        0.0018
     15 C          61.1587   93.7394   -1.8481 C.3     1  UNL1        0.2054
     16 O          62.5693   93.5170   -1.9017 O.3     1  UNL1       -0.4755
     17 C          63.4699   93.7084   -0.8413 C.ar    1  UNL1        0.1388
     18 C          64.5296   94.6323   -0.8991 C.ar    1  UNL1        0.0369
     19 C          65.3879   94.7841    0.1913 C.ar    1  UNL1        0.0033
     20 C          65.2086   94.0145    1.3428 C.ar    1  UNL1        0.0066
     21 C          64.1673   93.0726    1.4132 C.ar    1  UNL1        0.0785
     22 C          63.3001   92.9349    0.3136 C.ar    1  UNL1        0.0433
     23 C          63.9588   92.2482    2.6287 C.2     1  UNL1        0.3381
     24 O          63.3010   92.7162    3.5960 O.2     1  UNL1       -0.2451
     25 O          64.4601   90.9511    2.7318 O.3     1  UNL1       -0.4771
     26 H          64.9066   90.4755    1.9586 H       1  UNL1        0.2954
     27 N          59.8828   90.2869    6.9353 N.am    1  UNL1       -0.2766
     28 C          59.4821   88.9176    7.1183 C.2     1  UNL1        0.2839
     29 O          58.9305   88.2826    6.1802 O.2     1  UNL1       -0.2665
     30 H          60.3311   90.7898    7.7318 H       1  UNL1        0.1553
     31 C          59.6816   88.2300    8.4058 C.ar    1  UNL1        0.1946
     32 O          59.1661   87.0395    8.6576 O.2     1  UNL1       -0.4492
     33 C          59.5111   86.7006    9.8758 C.ar    1  UNL1        0.1452
     34 C          59.1812   85.5327   10.5546 C.ar    1  UNL1        0.0375
     35 C          59.6623   85.3733   11.8660 C.ar    1  UNL1        0.0031
     36 C          60.4626   86.3775   12.4759 C.ar    1  UNL1        0.0002
     37 C          60.7767   87.5505   11.7483 C.ar    1  UNL1        0.0028
     38 C          60.2803   87.6751   10.4507 C.ar    1  UNL1        0.0337
     39 C          60.4201   88.6749    9.5095 C.ar    1  UNL1        0.0202
     40 C          61.2277   89.9294    9.6510 C.3     1  UNL1        0.0345
     41 C          60.9654   86.1985   13.8616 C.ar    1  UNL1        0.0000
     42 C          61.7501   85.0793   14.1994 C.ar    1  UNL1        0.0000
     43 C          62.2224   84.9135   15.5050 C.ar    1  UNL1        0.0000
     44 C          61.9189   85.8602   16.4859 C.ar    1  UNL1        0.0000
     45 C          61.1421   86.9750   16.1633 C.ar    1  UNL1        0.0000
     46 C          60.6663   87.1455   14.8596 C.ar    1  UNL1        0.0000
@<TRIPOS>BOND
     1    13    14    1
     2    14     7    1
     3     7     8    1
     4     8     9    1
     5     9     1    1
     6     1     2   ar
     7     2     3   ar
     8     3     4   ar
     9     4    27    1
    10    27    28   am
    11    28    29    2
    12    28    31    1
    13    31    32   ar
    14    32    33   ar
    15    33    34   ar
    16    34    35   ar
    17    35    36   ar
    18    36    41    1
    19    41    42   ar
    20    42    43   ar
    21    43    44   ar
    22    44    45   ar
    23    45    46   ar
    24    36    37   ar
    25    37    38   ar
    26    38    39   ar
    27    39    40    1
    28     4     5   ar
    29     5     6   ar
    30     9    10    1
    31    10    11    1
    32    11    12    1
    33    12    15    1
    34    15    16    1
    35    16    17    1
    36    17    18   ar
    37    18    19   ar
    38    19    20   ar
    39    20    21   ar
    40    21    23    1
    41    23    24    2
    42    23    25    1
    43    21    22   ar
    44    12     7    1
    45    22    17   ar
    46     6     1   ar
    47    39    31   ar
    48    38    33   ar
    49    46    41   ar
    50    27    30    1
    51    25    26    1
@<TRIPOS>MOLECULE
*****
 46 51 0 0 0
SMALL
GASTEIGER

@<TRIPOS>ATOM
      1 C          60.2422   86.6626   10.9710 C.ar    1  UNL1        0.1318
      2 C          61.0251   87.8132   10.7907 C.ar    1  UNL1        0.0356
      3 C          60.9992   88.4773    9.5637 C.ar    1  UNL1        0.0191
      4 C          60.1917   88.0050    8.5225 C.ar    1  UNL1        0.0702
      5 C          59.4554   86.8272    8.7273 C.ar    1  UNL1        0.1149
      6 N          59.4991   86.1945    9.9297 N.ar    1  UNL1       -0.2279
      7 C          61.5568   85.9351   14.3552 C.3     1  UNL1        0.0235
      8 C          60.4557   86.6269   13.4997 C.3     1  UNL1        0.0922
      9 N          60.2602   85.9391   12.2158 N.pl3   1  UNL1       -0.2932
     10 C          59.8902   84.5162   12.2278 C.3     1  UNL1        0.0923
     11 C          60.4064   83.8153   13.4960 C.3     1  UNL1        0.0252
     12 C          61.7473   84.4366   13.9282 C.3     1  UNL1        0.0471
     13 C          61.6242   87.5232   16.3742 C.3     1  UNL1        0.0001
     14 C          61.2599   86.1250   15.8685 C.3     1  UNL1        0.0018
     15 C          62.4627   83.5407   14.9625 C.3     1  UNL1        0.2054
     16 O          63.4199   82.6865   14.3328 O.3     1  UNL1       -0.4755
     17 C          63.5523   82.4836   12.9496 C.ar    1  UNL1        0.1388
     18 C          64.3902   83.2727   12.1404 C.ar    1  UNL1        0.0369
     19 C          64.4868   83.0171   10.7714 C.ar    1  UNL1        0.0033
     20 C          63.7461   81.9842   10.1927 C.ar    1  UNL1        0.0066
     21 C          62.8889   81.1964   10.9807 C.ar    1  UNL1        0.0785
     22 C          62.8070   81.4541   12.3616 C.ar    1  UNL1        0.0433
     23 C          62.0965   80.0929   10.3848 C.2     1  UNL1        0.3381
     24 O          61.0255   79.7240   10.9364 O.2     1  UNL1       -0.2451
     25 O          62.4947   79.4523    9.2119 O.3     1  UNL1       -0.4771
     26 H          63.2847   79.7630    8.6616 H       1  UNL1        0.2954
     27 N          60.1969   88.6862    7.2571 N.am    1  UNL1       -0.2766
     28 C          59.8583   90.0739    7.0871 C.2     1  UNL1        0.2839
     29 O          59.4562   90.7578    8.0659 O.2     1  UNL1       -0.2665
     30 H          60.5206   88.1428    6.4275 H       1  UNL1        0.1553
     31 C          59.9481   90.7250    5.7687 C.ar    1  UNL1        0.1946
     32 O          61.1057   90.9768    5.1831 O.2     1  UNL1       -0.4492
     33 C          60.8583   91.5609    4.0362 C.ar    1  UNL1        0.1452
     34 C          61.7819   92.0071    3.0974 C.ar    1  UNL1        0.0375
     35 C          61.2927   92.6105    1.9254 C.ar    1  UNL1        0.0031
     36 C          59.8953   92.7573    1.7099 C.ar    1  UNL1        0.0002
     37 C          58.9893   92.2871    2.6907 C.ar    1  UNL1        0.0028
     38 C          59.5108   91.6959    3.8415 C.ar    1  UNL1        0.0337
     39 C          58.8947   91.1453    4.9471 C.ar    1  UNL1        0.0202
     40 C          57.4196   91.0033    5.1704 C.3     1  UNL1        0.0345
     41 C          59.3899   93.3961    0.4683 C.ar    1  UNL1        0.0000
     42 C          60.2048   94.2798   -0.2649 C.ar    1  UNL1        0.0000
     43 C          59.7263   94.8798   -1.4337 C.ar    1  UNL1        0.0000
     44 C          58.4331   94.6051   -1.8840 C.ar    1  UNL1        0.0000
     45 C          57.6152   93.7298   -1.1661 C.ar    1  UNL1        0.0000
     46 C          58.0881   93.1276    0.0039 C.ar    1  UNL1        0.0000
@<TRIPOS>BOND
     1    13    14    1
     2    14     7    1
     3     7     8    1
     4     8     9    1
     5     9     1    1
     6     1     2   ar
     7     2     3   ar
     8     3     4   ar
     9     4    27    1
    10    27    28   am
    11    28    29    2
    12    28    31    1
    13    31    32   ar
    14    32    33   ar
    15    33    34   ar
    16    34    35   ar
    17    35    36   ar
    18    36    41    1
    19    41    42   ar
    20    42    43   ar
    21    43    44   ar
    22    44    45   ar
    23    45    46   ar
    24    36    37   ar
    25    37    38   ar
    26    38    39   ar
    27    39    40    1
    28     4     5   ar
    29     5     6   ar
    30     9    10    1
    31    10    11    1
    32    11    12    1
    33    12    15    1
    34    15    16    1
    35    16    17    1
    36    17    18   ar
    37    18    19   ar
    38    19    20   ar
    39    20    21   ar
    40    21    23    1
    41    23    24    2
    42    23    25    1
    43    21    22   ar
    44    12     7    1
    45    22    17   ar
    46     6     1   ar
    47    39    31   ar
    48    38    33   ar
    49    46    41   ar
    50    27    30    1
    51    25    26    1
