@<TRIPOS>MOLECULE
*****
 48 53 0 0 0
SMALL
GASTEIGER

@<TRIPOS>ATOM
      1 O         -62.4643  -39.2266  -21.6344 O.2     1  UNL1       -0.2701
      2 C         -63.1783  -40.2404  -21.8668 C.2     1  UNL1        0.2483
      3 N         -63.9743  -40.8096  -20.8144 N.am    1  UNL1       -0.2945
      4 H         -64.7340  -41.4764  -21.0785 H       1  UNL1        0.1501
      5 C         -63.2085  -40.8071  -23.2341 C.ar    1  UNL1        0.0808
      6 C         -62.2473  -41.7583  -23.6122 C.ar    1  UNL1        0.0080
      7 C         -62.2548  -42.3045  -24.8980 C.ar    1  UNL1        0.0148
      8 C         -63.2303  -41.9183  -25.8331 C.ar    1  UNL1        0.0502
      9 C         -64.2056  -40.9832  -25.4472 C.ar    1  UNL1        0.0443
     10 C         -64.1996  -40.4329  -24.1615 C.ar    1  UNL1        0.1457
     11 F         -65.1913  -39.5729  -23.8164 F       1  UNL1       -0.2040
     12 N         -63.2433  -42.4873  -27.1606 N.pl3   1  UNL1       -0.3040
     13 C         -63.5718  -41.6267  -28.3105 C.3     1  UNL1        0.1122
     14 C         -63.8643  -42.4555  -29.5617 C.3     1  UNL1        0.1122
     15 N         -62.7896  -43.4344  -29.7593 N.pl3   1  UNL1       -0.3040
     16 C         -62.3437  -44.2664  -28.6318 C.3     1  UNL1        0.1122
     17 C         -63.1123  -43.9426  -27.3425 C.3     1  UNL1        0.1122
     18 C         -62.1055  -43.5263  -31.0227 C.ar    1  UNL1        0.0488
     19 C         -60.7381  -43.8406  -31.0698 C.ar    1  UNL1        0.0154
     20 C         -60.0737  -43.9191  -32.2964 C.ar    1  UNL1        0.0135
     21 C         -60.7633  -43.6806  -33.4899 C.ar    1  UNL1        0.0683
     22 CL        -59.8921  -43.7883  -35.0136 Cl      1  UNL1       -0.0814
     23 C         -62.1304  -43.3594  -33.4527 C.ar    1  UNL1        0.0694
     24 CL        -63.0329  -43.0430  -34.9283 Cl      1  UNL1       -0.0813
     25 C         -62.7942  -43.2822  -32.2226 C.ar    1  UNL1        0.0268
     26 C         -63.7846  -40.4362  -19.4063 C.3     1  UNL1        0.1535
     27 C         -64.5887  -39.2049  -19.0573 C.2     1  UNL1        0.2443
     28 O         -65.4428  -39.2571  -18.1307 O.2     1  UNL1       -0.2730
     29 N         -64.2902  -37.9549  -19.7027 N.am    1  UNL1       -0.2825
     30 H         -63.5005  -37.9401  -20.3875 H       1  UNL1        0.1549
     31 C         -64.8113  -36.6883  -19.2689 C.ar    1  UNL1        0.0535
     32 C         -66.0671  -36.2247  -19.6935 C.ar    1  UNL1        0.0353
     33 C         -66.5301  -34.9849  -19.2452 C.ar    1  UNL1        0.1002
     34 N         -65.7634  -34.2292  -18.4150 N.ar    1  UNL1       -0.2422
     35 C         -64.5360  -34.6446  -18.0046 C.ar    1  UNL1        0.1002
     36 C         -64.0341  -35.8752  -18.4331 C.ar    1  UNL1        0.0353
     37 C         -64.1682  -41.6175  -18.4916 C.3     1  UNL1        0.0569
     38 C         -64.1614  -42.9253  -19.2395 C.ar    1  UNL1       -0.0012
     39 C         -65.2807  -43.7420  -19.3668 C.ar    1  UNL1        0.0681
     40 N         -65.0356  -44.7592  -20.2158 N.ar    1  UNL1       -0.3522
     41 C         -63.7732  -44.5944  -20.6408 C.ar    1  UNL1        0.0568
     42 C         -63.1062  -45.3941  -21.5661 C.ar    1  UNL1        0.0170
     43 C         -61.7940  -45.0468  -21.9145 C.ar    1  UNL1        0.0020
     44 C         -61.1766  -43.9238  -21.3321 C.ar    1  UNL1        0.0068
     45 C         -61.8617  -43.1251  -20.3962 C.ar    1  UNL1        0.0357
     46 BR        -60.9068  -41.6624  -19.6161 Br      1  UNL1       -0.0490
     47 C         -63.1862  -43.4834  -20.0698 C.ar    1  UNL1        0.0193
     48 H         -65.7061  -45.5058  -20.5046 H       1  UNL1        0.1660
@<TRIPOS>BOND
     1     1     2    2
     2     2     3   am
     3     3    26    1
     4    26    37    1
     5    37    38    1
     6    38    39   ar
     7    39    40   ar
     8    40    41   ar
     9    41    42   ar
    10    42    43   ar
    11    43    44   ar
    12    44    45   ar
    13    45    46    1
    14    45    47   ar
    15    26    27    1
    16    27    28    2
    17    27    29   am
    18    29    31    1
    19    31    32   ar
    20    32    33   ar
    21    33    34   ar
    22    34    35   ar
    23    35    36   ar
    24     2     5    1
    25     5     6   ar
    26     6     7   ar
    27     7     8   ar
    28     8    12    1
    29    12    13    1
    30    13    14    1
    31    14    15    1
    32    15    18    1
    33    18    19   ar
    34    19    20   ar
    35    20    21   ar
    36    21    22    1
    37    21    23   ar
    38    23    24    1
    39    23    25   ar
    40    15    16    1
    41    16    17    1
    42     8     9   ar
    43     9    10   ar
    44    10    11    1
    45    47    38   ar
    46    36    31   ar
    47    10     5   ar
    48    47    41   ar
    49    17    12    1
    50    25    18   ar
    51     3     4    1
    52    40    48    1
    53    29    30    1
@<TRIPOS>MOLECULE
*****
 48 53 0 0 0
SMALL
GASTEIGER

@<TRIPOS>ATOM
      1 O         -63.3538  -44.2647  -27.1979 O.2     1  UNL1       -0.2701
      2 C         -62.4329  -43.9728  -26.3864 C.2     1  UNL1        0.2483
      3 N         -61.0951  -44.4395  -26.6266 N.am    1  UNL1       -0.2945
      4 H         -60.3152  -43.9904  -26.0960 H       1  UNL1        0.1501
      5 C         -62.7426  -43.1231  -25.2144 C.ar    1  UNL1        0.0808
      6 C         -62.2616  -43.4880  -23.9466 C.ar    1  UNL1        0.0080
      7 C         -62.5439  -42.7029  -22.8261 C.ar    1  UNL1        0.0148
      8 C         -63.3065  -41.5289  -22.9494 C.ar    1  UNL1        0.0502
      9 C         -63.7687  -41.1521  -24.2218 C.ar    1  UNL1        0.0443
     10 C         -63.4897  -41.9370  -25.3452 C.ar    1  UNL1        0.1457
     11 F         -63.9122  -41.5071  -26.5613 F       1  UNL1       -0.2040
     12 N         -63.5933  -40.7126  -21.7928 N.pl3   1  UNL1       -0.3040
     13 C         -62.5671  -39.7786  -21.2973 C.3     1  UNL1        0.1122
     14 C         -62.9111  -39.2624  -19.8997 C.3     1  UNL1        0.1122
     15 N         -64.2977  -38.7833  -19.8855 N.pl3   1  UNL1       -0.3040
     16 C         -65.3659  -39.6231  -20.4476 C.3     1  UNL1        0.1122
     17 C         -64.8197  -40.9429  -21.0111 C.3     1  UNL1        0.1122
     18 C         -64.6113  -37.4618  -19.4083 C.ar    1  UNL1        0.0488
     19 C         -63.6796  -36.7420  -18.6437 C.ar    1  UNL1        0.0154
     20 C         -63.9899  -35.4637  -18.1728 C.ar    1  UNL1        0.0135
     21 C         -65.2342  -34.8899  -18.4544 C.ar    1  UNL1        0.0683
     22 CL        -65.5878  -33.2792  -17.8437 Cl      1  UNL1       -0.0814
     23 C         -66.1756  -35.6048  -19.2136 C.ar    1  UNL1        0.0694
     24 CL        -67.7547  -34.9247  -19.5827 Cl      1  UNL1       -0.0813
     25 C         -65.8621  -36.8850  -19.6851 C.ar    1  UNL1        0.0268
     26 C         -60.7998  -45.4749  -27.6261 C.3     1  UNL1        0.1535
     27 C         -61.2636  -46.8339  -27.1542 C.2     1  UNL1        0.2443
     28 O         -60.7307  -47.8754  -27.6255 O.2     1  UNL1       -0.2730
     29 N         -62.2231  -46.9261  -26.0870 N.am    1  UNL1       -0.2825
     30 H         -62.5554  -46.0335  -25.6563 H       1  UNL1        0.1549
     31 C         -62.5362  -48.1476  -25.3985 C.ar    1  UNL1        0.0535
     32 C         -61.5848  -48.8106  -24.6062 C.ar    1  UNL1        0.0353
     33 C         -61.9368  -49.9969  -23.9574 C.ar    1  UNL1        0.1002
     34 N         -63.1868  -50.5105  -24.1040 N.ar    1  UNL1       -0.2422
     35 C         -64.1206  -49.9002  -24.8805 C.ar    1  UNL1        0.1002
     36 C         -63.8084  -48.7151  -25.5499 C.ar    1  UNL1        0.0353
     37 C         -61.4570  -45.1099  -28.9730 C.3     1  UNL1        0.0569
     38 C         -60.4308  -44.9200  -30.0595 C.ar    1  UNL1       -0.0012
     39 C         -59.1578  -45.4800  -30.0185 C.ar    1  UNL1        0.0681
     40 N         -58.5124  -45.2847  -31.1851 N.ar    1  UNL1       -0.3522
     41 C         -59.3651  -44.6141  -31.9755 C.ar    1  UNL1        0.0568
     42 C         -59.1351  -44.2312  -33.2949 C.ar    1  UNL1        0.0170
     43 C         -60.1607  -43.5626  -33.9767 C.ar    1  UNL1        0.0020
     44 C         -61.3808  -43.2850  -33.3320 C.ar    1  UNL1        0.0068
     45 C         -61.5993  -43.6760  -31.9969 C.ar    1  UNL1        0.0357
     46 BR        -63.2672  -43.1900  -31.1957 Br      1  UNL1       -0.0490
     47 C         -60.5599  -44.3601  -31.3329 C.ar    1  UNL1        0.0193
     48 H         -57.5530  -45.6164  -31.4302 H       1  UNL1        0.1660
@<TRIPOS>BOND
     1     1     2    2
     2     2     3   am
     3     3    26    1
     4    26    37    1
     5    37    38    1
     6    38    39   ar
     7    39    40   ar
     8    40    41   ar
     9    41    42   ar
    10    42    43   ar
    11    43    44   ar
    12    44    45   ar
    13    45    46    1
    14    45    47   ar
    15    26    27    1
    16    27    28    2
    17    27    29   am
    18    29    31    1
    19    31    32   ar
    20    32    33   ar
    21    33    34   ar
    22    34    35   ar
    23    35    36   ar
    24     2     5    1
    25     5     6   ar
    26     6     7   ar
    27     7     8   ar
    28     8    12    1
    29    12    13    1
    30    13    14    1
    31    14    15    1
    32    15    18    1
    33    18    19   ar
    34    19    20   ar
    35    20    21   ar
    36    21    22    1
    37    21    23   ar
    38    23    24    1
    39    23    25   ar
    40    15    16    1
    41    16    17    1
    42     8     9   ar
    43     9    10   ar
    44    10    11    1
    45    47    38   ar
    46    36    31   ar
    47    10     5   ar
    48    47    41   ar
    49    17    12    1
    50    25    18   ar
    51     3     4    1
    52    40    48    1
    53    29    30    1
@<TRIPOS>MOLECULE
*****
 48 53 0 0 0
SMALL
GASTEIGER

@<TRIPOS>ATOM
      1 O         -61.1793  -46.1523  -24.3384 O.2     1  UNL1       -0.2701
      2 C         -61.4731  -46.9784  -25.2455 C.2     1  UNL1        0.2483
      3 N         -61.2163  -46.6501  -26.6208 N.am    1  UNL1       -0.2945
      4 H         -61.2301  -47.4245  -27.3219 H       1  UNL1        0.1501
      5 C         -62.0486  -48.2902  -24.8719 C.ar    1  UNL1        0.0808
      6 C         -63.3257  -48.6448  -25.3355 C.ar    1  UNL1        0.0080
      7 C         -63.8898  -49.8762  -24.9933 C.ar    1  UNL1        0.0148
      8 C         -63.1852  -50.7859  -24.1865 C.ar    1  UNL1        0.0502
      9 C         -61.8979  -50.4401  -23.7413 C.ar    1  UNL1        0.0443
     10 C         -61.3313  -49.2073  -24.0803 C.ar    1  UNL1        0.1457
     11 F         -60.0655  -48.9378  -23.6712 F       1  UNL1       -0.2040
     12 N         -63.7644  -52.0622  -23.8376 N.pl3   1  UNL1       -0.3040
     13 C         -63.3192  -52.7445  -22.6099 C.3     1  UNL1        0.1122
     14 C         -63.7794  -54.2024  -22.5840 C.3     1  UNL1        0.1122
     15 N         -65.2133  -54.2656  -22.8878 N.pl3   1  UNL1       -0.3040
     16 C         -65.7469  -53.5336  -24.0462 C.3     1  UNL1        0.1122
     17 C         -64.6493  -52.7569  -24.7876 C.3     1  UNL1        0.1122
     18 C         -66.1177  -54.9638  -22.0119 C.ar    1  UNL1        0.0488
     19 C         -66.1312  -56.3671  -21.9756 C.ar    1  UNL1        0.0154
     20 C         -67.0169  -57.0429  -21.1325 C.ar    1  UNL1        0.0135
     21 C         -67.9027  -56.3280  -20.3194 C.ar    1  UNL1        0.0683
     22 CL        -69.0026  -57.2145  -19.2722 Cl      1  UNL1       -0.0814
     23 C         -67.9010  -54.9236  -20.3532 C.ar    1  UNL1        0.0694
     24 CL        -69.0040  -53.9864  -19.3546 Cl      1  UNL1       -0.0813
     25 C         -67.0120  -54.2487  -21.1981 C.ar    1  UNL1        0.0268
     26 C         -60.8834  -45.2837  -27.0455 C.3     1  UNL1        0.1535
     27 C         -60.4037  -45.2616  -28.4787 C.2     1  UNL1        0.2443
     28 O         -59.9201  -46.3069  -28.9929 O.2     1  UNL1       -0.2730
     29 N         -60.6119  -44.0854  -29.2795 N.am    1  UNL1       -0.2825
     30 H         -61.1140  -43.2818  -28.8381 H       1  UNL1        0.1549
     31 C         -60.4292  -44.0471  -30.7040 C.ar    1  UNL1        0.0535
     32 C         -59.2557  -44.5262  -31.3087 C.ar    1  UNL1        0.0353
     33 C         -59.1243  -44.4660  -32.6985 C.ar    1  UNL1        0.1002
     34 N         -60.1203  -43.9352  -33.4562 N.ar    1  UNL1       -0.2422
     35 C         -61.2579  -43.4462  -32.8956 C.ar    1  UNL1        0.1002
     36 C         -61.4273  -43.4832  -31.5100 C.ar    1  UNL1        0.0353
     37 C         -62.1073  -44.3626  -26.8641 C.3     1  UNL1        0.0569
     38 C         -63.1994  -44.6878  -27.8497 C.ar    1  UNL1       -0.0012
     39 C         -63.8190  -45.9313  -27.9254 C.ar    1  UNL1        0.0681
     40 N         -64.8619  -45.8941  -28.7778 N.ar    1  UNL1       -0.3522
     41 C         -64.9213  -44.6353  -29.2399 C.ar    1  UNL1        0.0568
     42 C         -65.8733  -44.1269  -30.1206 C.ar    1  UNL1        0.0170
     43 C         -65.7946  -42.7714  -30.4676 C.ar    1  UNL1        0.0020
     44 C         -64.7725  -41.9600  -29.9401 C.ar    1  UNL1        0.0068
     45 C         -63.8151  -42.4874  -29.0522 C.ar    1  UNL1        0.0357
     46 BR        -62.4300  -41.3144  -28.4477 Br      1  UNL1       -0.0490
     47 C         -63.9202  -43.8503  -28.7047 C.ar    1  UNL1        0.0193
     48 H         -65.5087  -46.6813  -29.0066 H       1  UNL1        0.1660
@<TRIPOS>BOND
     1     1     2    2
     2     2     3   am
     3     3    26    1
     4    26    37    1
     5    37    38    1
     6    38    39   ar
     7    39    40   ar
     8    40    41   ar
     9    41    42   ar
    10    42    43   ar
    11    43    44   ar
    12    44    45   ar
    13    45    46    1
    14    45    47   ar
    15    26    27    1
    16    27    28    2
    17    27    29   am
    18    29    31    1
    19    31    32   ar
    20    32    33   ar
    21    33    34   ar
    22    34    35   ar
    23    35    36   ar
    24     2     5    1
    25     5     6   ar
    26     6     7   ar
    27     7     8   ar
    28     8    12    1
    29    12    13    1
    30    13    14    1
    31    14    15    1
    32    15    18    1
    33    18    19   ar
    34    19    20   ar
    35    20    21   ar
    36    21    22    1
    37    21    23   ar
    38    23    24    1
    39    23    25   ar
    40    15    16    1
    41    16    17    1
    42     8     9   ar
    43     9    10   ar
    44    10    11    1
    45    47    38   ar
    46    36    31   ar
    47    10     5   ar
    48    47    41   ar
    49    17    12    1
    50    25    18   ar
    51     3     4    1
    52    40    48    1
    53    29    30    1
@<TRIPOS>MOLECULE
*****
 48 53 0 0 0
SMALL
GASTEIGER

@<TRIPOS>ATOM
      1 O         -62.3145  -39.3498  -21.7866 O.2     1  UNL1       -0.2701
      2 C         -63.1303  -40.2857  -22.0111 C.2     1  UNL1        0.2483
      3 N         -63.9598  -40.7802  -20.9470 N.am    1  UNL1       -0.2945
      4 H         -64.7870  -41.3661  -21.2003 H       1  UNL1        0.1501
      5 C         -63.2418  -40.8365  -23.3806 C.ar    1  UNL1        0.0808
      6 C         -62.3209  -41.8027  -23.8169 C.ar    1  UNL1        0.0080
      7 C         -62.4051  -42.3343  -25.1060 C.ar    1  UNL1        0.0148
      8 C         -63.4189  -41.9184  -25.9860 C.ar    1  UNL1        0.0502
      9 C         -64.3538  -40.9682  -25.5414 C.ar    1  UNL1        0.0443
     10 C         -64.2709  -40.4324  -24.2523 C.ar    1  UNL1        0.1457
     11 F         -65.2258  -39.5564  -23.8484 F       1  UNL1       -0.2040
     12 N         -63.5113  -42.4723  -27.3168 N.pl3   1  UNL1       -0.3040
     13 C         -62.7482  -43.6890  -27.6458 C.3     1  UNL1        0.1122
     14 C         -62.7014  -43.9266  -29.1555 C.3     1  UNL1        0.1122
     15 N         -64.0584  -43.8333  -29.7052 N.pl3   1  UNL1       -0.3040
     16 C         -64.9140  -42.6922  -29.3473 C.3     1  UNL1        0.1122
     17 C         -64.2099  -41.7302  -28.3795 C.3     1  UNL1        0.1122
     18 C         -64.5933  -44.8928  -30.5200 C.ar    1  UNL1        0.0488
     19 C         -65.1229  -44.6151  -31.7901 C.ar    1  UNL1        0.0154
     20 C         -65.6510  -45.6433  -32.5750 C.ar    1  UNL1        0.0135
     21 C         -65.6618  -46.9594  -32.1011 C.ar    1  UNL1        0.0683
     22 CL        -66.3356  -48.2258  -33.1181 Cl      1  UNL1       -0.0814
     23 C         -65.1397  -47.2463  -30.8288 C.ar    1  UNL1        0.0694
     24 CL        -65.1421  -48.8851  -30.1910 Cl      1  UNL1       -0.0813
     25 C         -64.6103  -46.2147  -30.0447 C.ar    1  UNL1        0.0268
     26 C         -63.7082  -40.4379  -19.5407 C.3     1  UNL1        0.1535
     27 C         -64.5052  -39.2224  -19.1261 C.2     1  UNL1        0.2443
     28 O         -65.2716  -39.2878  -18.1265 O.2     1  UNL1       -0.2730
     29 N         -64.2935  -37.9701  -19.8006 N.am    1  UNL1       -0.2825
     30 H         -63.5689  -37.9421  -20.5535 H       1  UNL1        0.1549
     31 C         -64.8019  -36.7126  -19.3271 C.ar    1  UNL1        0.0535
     32 C         -64.0963  -35.9387  -18.3914 C.ar    1  UNL1        0.0353
     33 C         -64.6330  -34.7230  -17.9599 C.ar    1  UNL1        0.1002
     34 N         -65.8352  -34.3008  -18.4336 N.ar    1  UNL1       -0.2422
     35 C         -66.5485  -35.0392  -19.3244 C.ar    1  UNL1        0.1002
     36 C         -66.0501  -36.2623  -19.7777 C.ar    1  UNL1        0.0353
     37 C         -64.0396  -41.6436  -18.6374 C.3     1  UNL1        0.0569
     38 C         -64.0217  -42.9379  -19.4083 C.ar    1  UNL1       -0.0012
     39 C         -65.1422  -43.7449  -19.5785 C.ar    1  UNL1        0.0681
     40 N         -64.8818  -44.7483  -20.4392 N.ar    1  UNL1       -0.3522
     41 C         -63.6080  -44.5842  -20.8292 C.ar    1  UNL1        0.0568
     42 C         -62.9226  -45.3715  -21.7516 C.ar    1  UNL1        0.0170
     43 C         -61.6000  -45.0265  -22.0604 C.ar    1  UNL1        0.0020
     44 C         -60.9908  -43.9181  -21.4425 C.ar    1  UNL1        0.0068
     45 C         -61.6946  -43.1318  -20.5100 C.ar    1  UNL1        0.0357
     46 BR        -60.7510  -41.6895  -19.6798 Br      1  UNL1       -0.0490
     47 C         -63.0291  -43.4874  -20.2236 C.ar    1  UNL1        0.0193
     48 H         -65.5492  -45.4854  -20.7582 H       1  UNL1        0.1660
@<TRIPOS>BOND
     1     1     2    2
     2     2     3   am
     3     3    26    1
     4    26    37    1
     5    37    38    1
     6    38    39   ar
     7    39    40   ar
     8    40    41   ar
     9    41    42   ar
    10    42    43   ar
    11    43    44   ar
    12    44    45   ar
    13    45    46    1
    14    45    47   ar
    15    26    27    1
    16    27    28    2
    17    27    29   am
    18    29    31    1
    19    31    32   ar
    20    32    33   ar
    21    33    34   ar
    22    34    35   ar
    23    35    36   ar
    24     2     5    1
    25     5     6   ar
    26     6     7   ar
    27     7     8   ar
    28     8    12    1
    29    12    13    1
    30    13    14    1
    31    14    15    1
    32    15    18    1
    33    18    19   ar
    34    19    20   ar
    35    20    21   ar
    36    21    22    1
    37    21    23   ar
    38    23    24    1
    39    23    25   ar
    40    15    16    1
    41    16    17    1
    42     8     9   ar
    43     9    10   ar
    44    10    11    1
    45    47    38   ar
    46    36    31   ar
    47    10     5   ar
    48    47    41   ar
    49    17    12    1
    50    25    18   ar
    51     3     4    1
    52    40    48    1
    53    29    30    1
@<TRIPOS>MOLECULE
*****
 48 53 0 0 0
SMALL
GASTEIGER

@<TRIPOS>ATOM
      1 O         -60.2904  -45.3406  -25.3031 O.2     1  UNL1       -0.2701
      2 C         -60.9424  -44.3119  -25.6322 C.2     1  UNL1        0.2483
      3 N         -61.1084  -43.9861  -27.0219 N.am    1  UNL1       -0.2945
      4 H         -61.8446  -43.2909  -27.2793 H       1  UNL1        0.1501
      5 C         -61.5553  -43.4742  -24.5766 C.ar    1  UNL1        0.0808
      6 C         -62.6857  -42.6971  -24.8768 C.ar    1  UNL1        0.0080
      7 C         -63.2790  -41.8969  -23.8973 C.ar    1  UNL1        0.0148
      8 C         -62.7605  -41.8627  -22.5916 C.ar    1  UNL1        0.0502
      9 C         -61.6429  -42.6577  -22.2857 C.ar    1  UNL1        0.0443
     10 C         -61.0453  -43.4582  -23.2645 C.ar    1  UNL1        0.1457
     11 F         -60.0002  -44.2486  -22.9106 F       1  UNL1       -0.2040
     12 N         -63.3770  -41.0411  -21.5761 N.pl3   1  UNL1       -0.3040
     13 C         -62.5269  -40.3721  -20.5758 C.3     1  UNL1        0.1122
     14 C         -63.3557  -39.8384  -19.4070 C.3     1  UNL1        0.1122
     15 N         -64.4900  -39.0668  -19.9270 N.pl3   1  UNL1       -0.3040
     16 C         -65.3302  -39.6325  -20.9930 C.3     1  UNL1        0.1122
     17 C         -64.8421  -41.0212  -21.4303 C.3     1  UNL1        0.1122
     18 C         -64.7354  -37.7248  -19.4673 C.ar    1  UNL1        0.0488
     19 C         -63.7620  -37.0385  -18.7241 C.ar    1  UNL1        0.0154
     20 C         -64.0062  -35.7398  -18.2701 C.ar    1  UNL1        0.0135
     21 C         -65.2251  -35.1120  -18.5474 C.ar    1  UNL1        0.0683
     22 CL        -65.4952  -33.4773  -17.9583 Cl      1  UNL1       -0.0814
     23 C         -66.2078  -35.7930  -19.2852 C.ar    1  UNL1        0.0694
     24 CL        -67.7571  -35.0445  -19.6480 Cl      1  UNL1       -0.0813
     25 C         -65.9605  -37.0936  -19.7398 C.ar    1  UNL1        0.0268
     26 C         -60.3196  -44.6406  -28.0743 C.3     1  UNL1        0.1535
     27 C         -61.0935  -45.7735  -28.7087 C.2     1  UNL1        0.2443
     28 O         -60.4784  -46.6727  -29.3442 O.2     1  UNL1       -0.2730
     29 N         -62.5095  -45.8811  -28.4818 N.am    1  UNL1       -0.2825
     30 H         -62.9555  -45.1697  -27.8591 H       1  UNL1        0.1549
     31 C         -63.2860  -47.0415  -28.8199 C.ar    1  UNL1        0.0535
     32 C         -63.2128  -48.2223  -28.0631 C.ar    1  UNL1        0.0353
     33 C         -63.9867  -49.3253  -28.4329 C.ar    1  UNL1        0.1002
     34 N         -64.7936  -49.2580  -29.5249 N.ar    1  UNL1       -0.2422
     35 C         -64.8685  -48.1348  -30.2866 C.ar    1  UNL1        0.1002
     36 C         -64.1082  -47.0117  -29.9543 C.ar    1  UNL1        0.0353
     37 C         -59.8960  -43.6053  -29.1364 C.3     1  UNL1        0.0569
     38 C         -60.9599  -43.4185  -30.1866 C.ar    1  UNL1       -0.0012
     39 C         -62.2148  -42.8800  -29.9200 C.ar    1  UNL1        0.0681
     40 N         -62.9008  -42.6791  -31.0622 N.ar    1  UNL1       -0.3522
     41 C         -62.0919  -43.0744  -32.0576 C.ar    1  UNL1        0.0568
     42 C         -62.3728  -43.0090  -33.4204 C.ar    1  UNL1        0.0170
     43 C         -61.3877  -43.4401  -34.3191 C.ar    1  UNL1        0.0020
     44 C         -60.1568  -43.9308  -33.8442 C.ar    1  UNL1        0.0068
     45 C         -59.8867  -43.9934  -32.4635 C.ar    1  UNL1        0.0357
     46 BR        -58.2095  -44.7393  -31.9244 Br      1  UNL1       -0.0490
     47 C         -60.8857  -43.5416  -31.5763 C.ar    1  UNL1        0.0193
     48 H         -63.8575  -42.2701  -31.1514 H       1  UNL1        0.1660
@<TRIPOS>BOND
     1     1     2    2
     2     2     3   am
     3     3    26    1
     4    26    37    1
     5    37    38    1
     6    38    39   ar
     7    39    40   ar
     8    40    41   ar
     9    41    42   ar
    10    42    43   ar
    11    43    44   ar
    12    44    45   ar
    13    45    46    1
    14    45    47   ar
    15    26    27    1
    16    27    28    2
    17    27    29   am
    18    29    31    1
    19    31    32   ar
    20    32    33   ar
    21    33    34   ar
    22    34    35   ar
    23    35    36   ar
    24     2     5    1
    25     5     6   ar
    26     6     7   ar
    27     7     8   ar
    28     8    12    1
    29    12    13    1
    30    13    14    1
    31    14    15    1
    32    15    18    1
    33    18    19   ar
    34    19    20   ar
    35    20    21   ar
    36    21    22    1
    37    21    23   ar
    38    23    24    1
    39    23    25   ar
    40    15    16    1
    41    16    17    1
    42     8     9   ar
    43     9    10   ar
    44    10    11    1
    45    47    38   ar
    46    36    31   ar
    47    10     5   ar
    48    47    41   ar
    49    17    12    1
    50    25    18   ar
    51     3     4    1
    52    40    48    1
    53    29    30    1
@<TRIPOS>MOLECULE
*****
 48 53 0 0 0
SMALL
GASTEIGER

@<TRIPOS>ATOM
      1 O         -60.1926  -46.5758  -23.5690 O.2     1  UNL1       -0.2701
      2 C         -61.2421  -45.9940  -23.9586 C.2     1  UNL1        0.2483
      3 N         -61.8791  -46.4109  -25.1774 N.am    1  UNL1       -0.2945
      4 H         -62.8606  -46.0979  -25.3510 H       1  UNL1        0.1501
      5 C         -61.8188  -44.9099  -23.1318 C.ar    1  UNL1        0.0808
      6 C         -62.2230  -45.1820  -21.8148 C.ar    1  UNL1        0.0080
      7 C         -62.7725  -44.1752  -21.0173 C.ar    1  UNL1        0.0148
      8 C         -62.9219  -42.8698  -21.5158 C.ar    1  UNL1        0.0502
      9 C         -62.4965  -42.5925  -22.8261 C.ar    1  UNL1        0.0443
     10 C         -61.9481  -43.5986  -23.6279 C.ar    1  UNL1        0.1457
     11 F         -61.5034  -43.2731  -24.8683 F       1  UNL1       -0.2040
     12 N         -63.4835  -41.8263  -20.6900 N.pl3   1  UNL1       -0.3040
     13 C         -62.5913  -41.0278  -19.8314 C.3     1  UNL1        0.1122
     14 C         -63.3831  -40.2221  -18.8010 C.3     1  UNL1        0.1122
     15 N         -64.4659  -39.4985  -19.4766 N.pl3   1  UNL1       -0.3040
     16 C         -65.3415  -40.2096  -20.4199 C.3     1  UNL1        0.1122
     17 C         -64.9441  -41.6854  -20.5685 C.3     1  UNL1        0.1122
     18 C         -64.6240  -38.0793  -19.2939 C.ar    1  UNL1        0.0488
     19 C         -65.8747  -37.4722  -19.4886 C.ar    1  UNL1        0.0154
     20 C         -66.0238  -36.0931  -19.3209 C.ar    1  UNL1        0.0135
     21 C         -64.9269  -35.3025  -18.9622 C.ar    1  UNL1        0.0683
     22 CL        -65.1543  -33.5704  -18.7612 Cl      1  UNL1       -0.0814
     23 C         -63.6699  -35.8999  -18.7712 C.ar    1  UNL1        0.0694
     24 CL        -62.2631  -34.9420  -18.3289 Cl      1  UNL1       -0.0813
     25 C         -63.5232  -37.2819  -18.9388 C.ar    1  UNL1        0.0268
     26 C         -61.2130  -47.2994  -26.1392 C.3     1  UNL1        0.1535
     27 C         -61.2875  -48.7406  -25.6897 C.2     1  UNL1        0.2443
     28 O         -60.9044  -49.6585  -26.4653 O.2     1  UNL1       -0.2730
     29 N         -61.6816  -49.0446  -24.3405 N.am    1  UNL1       -0.2825
     30 H         -61.8869  -48.2416  -23.7035 H       1  UNL1        0.1549
     31 C         -61.5421  -50.3430  -23.7416 C.ar    1  UNL1        0.0535
     32 C         -62.6567  -51.1559  -23.4785 C.ar    1  UNL1        0.0353
     33 C         -62.4698  -52.4107  -22.8931 C.ar    1  UNL1        0.1002
     34 N         -61.2192  -52.8339  -22.5695 N.ar    1  UNL1       -0.2422
     35 C         -60.1251  -52.0594  -22.7947 C.ar    1  UNL1        0.1002
     36 C         -60.2684  -50.7969  -23.3738 C.ar    1  UNL1        0.0353
     37 C         -61.8423  -47.1291  -27.5371 C.3     1  UNL1        0.0569
     38 C         -61.0057  -46.2394  -28.4193 C.ar    1  UNL1       -0.0012
     39 C         -59.6159  -46.2893  -28.4615 C.ar    1  UNL1        0.0681
     40 N         -59.1396  -45.5040  -29.4475 N.ar    1  UNL1       -0.3522
     41 C         -60.2127  -44.9606  -30.0430 C.ar    1  UNL1        0.0568
     42 C         -60.1981  -44.1089  -31.1451 C.ar    1  UNL1        0.0170
     43 C         -61.4265  -43.6646  -31.6526 C.ar    1  UNL1        0.0020
     44 C         -62.6331  -44.0690  -31.0510 C.ar    1  UNL1        0.0068
     45 C         -62.6334  -44.9289  -29.9358 C.ar    1  UNL1        0.0357
     46 BR        -64.3251  -45.3620  -29.1546 Br      1  UNL1       -0.0490
     47 C         -61.3874  -45.3758  -29.4491 C.ar    1  UNL1        0.0193
     48 H         -58.1377  -45.3716  -29.7102 H       1  UNL1        0.1660
@<TRIPOS>BOND
     1     1     2    2
     2     2     3   am
     3     3    26    1
     4    26    37    1
     5    37    38    1
     6    38    39   ar
     7    39    40   ar
     8    40    41   ar
     9    41    42   ar
    10    42    43   ar
    11    43    44   ar
    12    44    45   ar
    13    45    46    1
    14    45    47   ar
    15    26    27    1
    16    27    28    2
    17    27    29   am
    18    29    31    1
    19    31    32   ar
    20    32    33   ar
    21    33    34   ar
    22    34    35   ar
    23    35    36   ar
    24     2     5    1
    25     5     6   ar
    26     6     7   ar
    27     7     8   ar
    28     8    12    1
    29    12    13    1
    30    13    14    1
    31    14    15    1
    32    15    18    1
    33    18    19   ar
    34    19    20   ar
    35    20    21   ar
    36    21    22    1
    37    21    23   ar
    38    23    24    1
    39    23    25   ar
    40    15    16    1
    41    16    17    1
    42     8     9   ar
    43     9    10   ar
    44    10    11    1
    45    47    38   ar
    46    36    31   ar
    47    10     5   ar
    48    47    41   ar
    49    17    12    1
    50    25    18   ar
    51     3     4    1
    52    40    48    1
    53    29    30    1
@<TRIPOS>MOLECULE
*****
 48 53 0 0 0
SMALL
GASTEIGER

@<TRIPOS>ATOM
      1 O         -59.7215  -46.1956  -24.6404 O.2     1  UNL1       -0.2701
      2 C         -60.8643  -46.4404  -25.1155 C.2     1  UNL1        0.2483
      3 N         -61.5144  -45.4670  -25.9493 N.am    1  UNL1       -0.2945
      4 H         -62.3277  -45.7787  -26.5263 H       1  UNL1        0.1501
      5 C         -61.5027  -47.7455  -24.8313 C.ar    1  UNL1        0.0808
      6 C         -60.8061  -48.7110  -24.0868 C.ar    1  UNL1        0.0080
      7 C         -61.3875  -49.9504  -23.8090 C.ar    1  UNL1        0.0148
      8 C         -62.6839  -50.2495  -24.2618 C.ar    1  UNL1        0.0502
      9 C         -63.3894  -49.2748  -24.9875 C.ar    1  UNL1        0.0443
     10 C         -62.8093  -48.0338  -25.2692 C.ar    1  UNL1        0.1457
     11 F         -63.5472  -47.1044  -25.9281 F       1  UNL1       -0.2040
     12 N         -63.2890  -51.5281  -23.9694 N.pl3   1  UNL1       -0.3040
     13 C         -62.9349  -52.2243  -22.7201 C.3     1  UNL1        0.1122
     14 C         -63.3982  -53.6813  -22.7432 C.3     1  UNL1        0.1122
     15 N         -64.8065  -53.7378  -23.1506 N.pl3   1  UNL1       -0.3040
     16 C         -65.2537  -52.9923  -24.3366 C.3     1  UNL1        0.1122
     17 C         -64.1039  -52.2106  -24.9883 C.3     1  UNL1        0.1122
     18 C         -65.7730  -54.4430  -22.3499 C.ar    1  UNL1        0.0488
     19 C         -65.5653  -55.7879  -22.0049 C.ar    1  UNL1        0.0154
     20 C         -66.5096  -56.4735  -21.2366 C.ar    1  UNL1        0.0135
     21 C         -67.6741  -55.8281  -20.8072 C.ar    1  UNL1        0.0683
     22 CL        -68.8390  -56.7248  -19.8423 Cl      1  UNL1       -0.0814
     23 C         -67.8938  -54.4842  -21.1526 C.ar    1  UNL1        0.0694
     24 CL        -69.3481  -53.6379  -20.6417 Cl      1  UNL1       -0.0813
     25 C         -66.9459  -53.7991  -21.9217 C.ar    1  UNL1        0.0268
     26 C         -61.0329  -44.0828  -26.0501 C.3     1  UNL1        0.1535
     27 C         -60.8644  -43.6697  -27.4942 C.2     1  UNL1        0.2443
     28 O         -60.4682  -42.5043  -27.7696 O.2     1  UNL1       -0.2730
     29 N         -61.0420  -44.6437  -28.5372 N.am    1  UNL1       -0.2825
     30 H         -61.2661  -45.6239  -28.2512 H       1  UNL1        0.1549
     31 C         -60.6624  -44.4261  -29.9056 C.ar    1  UNL1        0.0535
     32 C         -61.5119  -43.7672  -30.8092 C.ar    1  UNL1        0.0353
     33 C         -61.0984  -43.5808  -32.1308 C.ar    1  UNL1        0.1002
     34 N         -59.8883  -44.0461  -32.5397 N.ar    1  UNL1       -0.2422
     35 C         -59.0551  -44.7046  -31.6915 C.ar    1  UNL1        0.1002
     36 C         -59.4320  -44.9160  -30.3637 C.ar    1  UNL1        0.0353
     37 C         -62.0034  -43.1326  -25.3190 C.3     1  UNL1        0.0569
     38 C         -61.5134  -42.7936  -23.9352 C.ar    1  UNL1       -0.0012
     39 C         -60.3110  -43.2585  -23.4119 C.ar    1  UNL1        0.0681
     40 N         -60.0479  -42.6735  -22.2270 N.ar    1  UNL1       -0.3522
     41 C         -61.0659  -41.8307  -21.9928 C.ar    1  UNL1        0.0568
     42 C         -61.1944  -40.9812  -20.8963 C.ar    1  UNL1        0.0170
     43 C         -62.3166  -40.1440  -20.8376 C.ar    1  UNL1        0.0020
     44 C         -63.2831  -40.1766  -21.8605 C.ar    1  UNL1        0.0068
     45 C         -63.1419  -41.0418  -22.9625 C.ar    1  UNL1        0.0357
     46 BR        -64.5463  -41.0544  -24.2615 Br      1  UNL1       -0.0490
     47 C         -61.9984  -41.8661  -23.0097 C.ar    1  UNL1        0.0193
     48 H         -59.2053  -42.8265  -21.6294 H       1  UNL1        0.1660
@<TRIPOS>BOND
     1     1     2    2
     2     2     3   am
     3     3    26    1
     4    26    37    1
     5    37    38    1
     6    38    39   ar
     7    39    40   ar
     8    40    41   ar
     9    41    42   ar
    10    42    43   ar
    11    43    44   ar
    12    44    45   ar
    13    45    46    1
    14    45    47   ar
    15    26    27    1
    16    27    28    2
    17    27    29   am
    18    29    31    1
    19    31    32   ar
    20    32    33   ar
    21    33    34   ar
    22    34    35   ar
    23    35    36   ar
    24     2     5    1
    25     5     6   ar
    26     6     7   ar
    27     7     8   ar
    28     8    12    1
    29    12    13    1
    30    13    14    1
    31    14    15    1
    32    15    18    1
    33    18    19   ar
    34    19    20   ar
    35    20    21   ar
    36    21    22    1
    37    21    23   ar
    38    23    24    1
    39    23    25   ar
    40    15    16    1
    41    16    17    1
    42     8     9   ar
    43     9    10   ar
    44    10    11    1
    45    47    38   ar
    46    36    31   ar
    47    10     5   ar
    48    47    41   ar
    49    17    12    1
    50    25    18   ar
    51     3     4    1
    52    40    48    1
    53    29    30    1
@<TRIPOS>MOLECULE
*****
 48 53 0 0 0
SMALL
GASTEIGER

@<TRIPOS>ATOM
      1 O         -60.9450  -46.7412  -24.5317 O.2     1  UNL1       -0.2701
      2 C         -61.4713  -47.4781  -25.4103 C.2     1  UNL1        0.2483
      3 N         -61.3997  -47.1006  -26.7950 N.am    1  UNL1       -0.2945
      4 H         -61.6128  -47.8277  -27.5143 H       1  UNL1        0.1501
      5 C         -62.1265  -48.7403  -24.9994 C.ar    1  UNL1        0.0808
      6 C         -61.4237  -49.6601  -24.2045 C.ar    1  UNL1        0.0080
      7 C         -62.0209  -50.8588  -23.8073 C.ar    1  UNL1        0.0148
      8 C         -63.3393  -51.1614  -24.1886 C.ar    1  UNL1        0.0502
      9 C         -64.0502  -50.2308  -24.9652 C.ar    1  UNL1        0.0443
     10 C         -63.4544  -49.0308  -25.3664 C.ar    1  UNL1        0.1457
     11 F         -64.1960  -48.1392  -26.0716 F       1  UNL1       -0.2040
     12 N         -63.9605  -52.3974  -23.7729 N.pl3   1  UNL1       -0.3040
     13 C         -63.5029  -53.0537  -22.5356 C.3     1  UNL1        0.1122
     14 C         -64.0242  -54.4879  -22.4396 C.3     1  UNL1        0.1122
     15 N         -65.4691  -54.4986  -22.6935 N.pl3   1  UNL1       -0.3040
     16 C         -66.0104  -53.7863  -23.8605 C.3     1  UNL1        0.1122
     17 C         -64.9066  -53.0863  -24.6664 C.3     1  UNL1        0.1122
     18 C         -66.3720  -55.1239  -21.7627 C.ar    1  UNL1        0.0488
     19 C         -66.4056  -56.5215  -21.6342 C.ar    1  UNL1        0.0154
     20 C         -67.2899  -57.1269  -20.7377 C.ar    1  UNL1        0.0135
     21 C         -68.1542  -56.3467  -19.9624 C.ar    1  UNL1        0.0683
     22 CL        -69.2530  -57.1455  -18.8459 Cl      1  UNL1       -0.0814
     23 C         -68.1323  -54.9477  -20.0884 C.ar    1  UNL1        0.0694
     24 CL        -69.2081  -53.9301  -19.1400 Cl      1  UNL1       -0.0813
     25 C         -67.2448  -54.3433  -20.9865 C.ar    1  UNL1        0.0268
     26 C         -60.9842  -45.7554  -27.2144 C.3     1  UNL1        0.1535
     27 C         -60.9480  -45.6428  -28.7213 C.2     1  UNL1        0.2443
     28 O         -61.8655  -46.1665  -29.4102 O.2     1  UNL1       -0.2730
     29 N         -59.9342  -44.8393  -29.3495 N.am    1  UNL1       -0.2825
     30 H         -59.2595  -44.3381  -28.7279 H       1  UNL1        0.1549
     31 C         -59.9599  -44.4619  -30.7355 C.ar    1  UNL1        0.0535
     32 C         -61.0736  -43.8221  -31.3035 C.ar    1  UNL1        0.0353
     33 C         -61.0516  -43.4761  -32.6571 C.ar    1  UNL1        0.1002
     34 N         -59.9649  -43.7694  -33.4193 N.ar    1  UNL1       -0.2422
     35 C         -58.8819  -44.4057  -32.9000 C.ar    1  UNL1        0.1002
     36 C         -58.8650  -44.7729  -31.5529 C.ar    1  UNL1        0.0353
     37 C         -61.9315  -44.6988  -26.6096 C.3     1  UNL1        0.0569
     38 C         -61.6427  -43.3208  -27.1455 C.ar    1  UNL1       -0.0012
     39 C         -60.5123  -42.5856  -26.8025 C.ar    1  UNL1        0.0681
     40 N         -60.4268  -41.4658  -27.5469 N.ar    1  UNL1       -0.3522
     41 C         -61.4866  -41.4834  -28.3704 C.ar    1  UNL1        0.0568
     42 C         -61.7830  -40.5377  -29.3492 C.ar    1  UNL1        0.0170
     43 C         -62.9220  -40.7406  -30.1400 C.ar    1  UNL1        0.0020
     44 C         -63.7390  -41.8684  -29.9350 C.ar    1  UNL1        0.0068
     45 C         -63.4288  -42.8158  -28.9404 C.ar    1  UNL1        0.0357
     46 BR        -64.6424  -44.2752  -28.7011 Br      1  UNL1       -0.0490
     47 C         -62.2707  -42.6005  -28.1647 C.ar    1  UNL1        0.0193
     48 H         -59.6702  -40.7472  -27.5078 H       1  UNL1        0.1660
@<TRIPOS>BOND
     1     1     2    2
     2     2     3   am
     3     3    26    1
     4    26    37    1
     5    37    38    1
     6    38    39   ar
     7    39    40   ar
     8    40    41   ar
     9    41    42   ar
    10    42    43   ar
    11    43    44   ar
    12    44    45   ar
    13    45    46    1
    14    45    47   ar
    15    26    27    1
    16    27    28    2
    17    27    29   am
    18    29    31    1
    19    31    32   ar
    20    32    33   ar
    21    33    34   ar
    22    34    35   ar
    23    35    36   ar
    24     2     5    1
    25     5     6   ar
    26     6     7   ar
    27     7     8   ar
    28     8    12    1
    29    12    13    1
    30    13    14    1
    31    14    15    1
    32    15    18    1
    33    18    19   ar
    34    19    20   ar
    35    20    21   ar
    36    21    22    1
    37    21    23   ar
    38    23    24    1
    39    23    25   ar
    40    15    16    1
    41    16    17    1
    42     8     9   ar
    43     9    10   ar
    44    10    11    1
    45    47    38   ar
    46    36    31   ar
    47    10     5   ar
    48    47    41   ar
    49    17    12    1
    50    25    18   ar
    51     3     4    1
    52    40    48    1
    53    29    30    1
@<TRIPOS>MOLECULE
*****
 48 53 0 0 0
SMALL
GASTEIGER

@<TRIPOS>ATOM
      1 O         -60.0719  -45.2456  -24.8827 O.2     1  UNL1       -0.2701
      2 C         -61.2591  -45.5671  -25.1635 C.2     1  UNL1        0.2483
      3 N         -62.1355  -44.6032  -25.7699 N.am    1  UNL1       -0.2945
      4 H         -63.0140  -44.9501  -26.2166 H       1  UNL1        0.1501
      5 C         -61.7190  -46.9479  -24.8923 C.ar    1  UNL1        0.0808
      6 C         -62.9373  -47.3918  -25.4314 C.ar    1  UNL1        0.0080
      7 C         -63.3924  -48.6896  -25.1864 C.ar    1  UNL1        0.0148
      8 C         -62.6345  -49.5771  -24.4035 C.ar    1  UNL1        0.0502
      9 C         -61.4047  -49.1400  -23.8828 C.ar    1  UNL1        0.0443
     10 C         -60.9472  -47.8406  -24.1245 C.ar    1  UNL1        0.1457
     11 F         -59.7300  -47.4790  -23.6452 F       1  UNL1       -0.2040
     12 N         -63.1006  -50.9215  -24.1551 N.pl3   1  UNL1       -0.3040
     13 C         -62.8698  -51.5319  -22.8341 C.3     1  UNL1        0.1122
     14 C         -63.1203  -53.0400  -22.8652 C.3     1  UNL1        0.1122
     15 N         -64.4193  -53.3047  -23.4936 N.pl3   1  UNL1       -0.3040
     16 C         -64.7584  -52.6573  -24.7696 C.3     1  UNL1        0.1122
     17 C         -63.6327  -51.7356  -25.2607 C.3     1  UNL1        0.1122
     18 C         -65.4016  -54.1213  -22.8295 C.ar    1  UNL1        0.0488
     19 C         -65.0038  -55.2146  -22.0439 C.ar    1  UNL1        0.0154
     20 C         -65.9592  -56.0121  -21.4087 C.ar    1  UNL1        0.0135
     21 C         -67.3221  -55.7321  -21.5530 C.ar    1  UNL1        0.0683
     22 CL        -68.4941  -56.7592  -20.7384 Cl      1  UNL1       -0.0814
     23 C         -67.7302  -54.6438  -22.3421 C.ar    1  UNL1        0.0694
     24 CL        -69.4332  -54.2621  -22.5578 Cl      1  UNL1       -0.0813
     25 C         -66.7712  -53.8456  -22.9768 C.ar    1  UNL1        0.0268
     26 C         -61.8009  -43.1739  -25.8256 C.3     1  UNL1        0.1535
     27 C         -61.2991  -42.6805  -24.4879 C.2     1  UNL1        0.2443
     28 O         -60.1371  -42.1990  -24.3943 O.2     1  UNL1       -0.2730
     29 N         -62.1912  -42.6541  -23.3603 N.am    1  UNL1       -0.2825
     30 H         -63.1772  -42.9646  -23.5156 H       1  UNL1        0.1549
     31 C         -61.8991  -41.9773  -22.1271 C.ar    1  UNL1        0.0535
     32 C         -60.9419  -42.4706  -21.2256 C.ar    1  UNL1        0.0353
     33 C         -60.6941  -41.7773  -20.0381 C.ar    1  UNL1        0.1002
     34 N         -61.3848  -40.6415  -19.7536 N.ar    1  UNL1       -0.2422
     35 C         -62.3306  -40.1530  -20.5987 C.ar    1  UNL1        0.1002
     36 C         -62.6121  -40.8179  -21.7939 C.ar    1  UNL1        0.0353
     37 C         -60.7541  -42.9204  -26.9298 C.3     1  UNL1        0.0569
     38 C         -61.4025  -42.5270  -28.2315 C.ar    1  UNL1       -0.0012
     39 C         -62.1624  -41.3725  -28.3919 C.ar    1  UNL1        0.0681
     40 N         -62.4821  -41.1874  -29.6877 N.ar    1  UNL1       -0.3522
     41 C         -61.9246  -42.2074  -30.3589 C.ar    1  UNL1        0.0568
     42 C         -61.9622  -42.4025  -31.7376 C.ar    1  UNL1        0.0170
     43 C         -61.2913  -43.5137  -32.2657 C.ar    1  UNL1        0.0020
     44 C         -60.6095  -44.4040  -31.4148 C.ar    1  UNL1        0.0068
     45 C         -60.5812  -44.1959  -30.0223 C.ar    1  UNL1        0.0357
     46 BR        -59.6831  -45.5025  -28.9518 Br      1  UNL1       -0.0490
     47 C         -61.2508  -43.0641  -29.5123 C.ar    1  UNL1        0.0193
     48 H         -63.0287  -40.3927  -30.0878 H       1  UNL1        0.1660
@<TRIPOS>BOND
     1     1     2    2
     2     2     3   am
     3     3    26    1
     4    26    37    1
     5    37    38    1
     6    38    39   ar
     7    39    40   ar
     8    40    41   ar
     9    41    42   ar
    10    42    43   ar
    11    43    44   ar
    12    44    45   ar
    13    45    46    1
    14    45    47   ar
    15    26    27    1
    16    27    28    2
    17    27    29   am
    18    29    31    1
    19    31    32   ar
    20    32    33   ar
    21    33    34   ar
    22    34    35   ar
    23    35    36   ar
    24     2     5    1
    25     5     6   ar
    26     6     7   ar
    27     7     8   ar
    28     8    12    1
    29    12    13    1
    30    13    14    1
    31    14    15    1
    32    15    18    1
    33    18    19   ar
    34    19    20   ar
    35    20    21   ar
    36    21    22    1
    37    21    23   ar
    38    23    24    1
    39    23    25   ar
    40    15    16    1
    41    16    17    1
    42     8     9   ar
    43     9    10   ar
    44    10    11    1
    45    47    38   ar
    46    36    31   ar
    47    10     5   ar
    48    47    41   ar
    49    17    12    1
    50    25    18   ar
    51     3     4    1
    52    40    48    1
    53    29    30    1
