@<TRIPOS>MOLECULE
*****
 45 50 0 0 0
SMALL
GASTEIGER

@<TRIPOS>ATOM
      1 C          60.9036   87.1303    8.3526 C.ar    1  UNL1        0.0702
      2 C          60.7870   87.9182    9.5029 C.ar    1  UNL1        0.0191
      3 C          60.8899   87.3383   10.7682 C.ar    1  UNL1        0.0356
      4 C          61.0946   85.9512   10.8844 C.ar    1  UNL1        0.1319
      5 N          61.1776   85.2036    9.7478 N.ar    1  UNL1       -0.2279
      6 C          61.0841   85.7471    8.5057 C.ar    1  UNL1        0.1149
      7 N          61.2175   85.3124   12.1771 N.pl3   1  UNL1       -0.2904
      8 C          62.5370   85.1499   12.8135 C.3     1  UNL1        0.0925
      9 C          62.4905   84.1496   13.9783 C.3     1  UNL1        0.0280
     10 C          61.6488   82.9221   13.5857 C.3     1  UNL1        0.0797
     11 C          60.1866   83.3183   13.2320 C.3     1  UNL1        0.1842
     12 F          59.7544   82.5520   12.1617 F       1  UNL1       -0.2353
     13 C          60.0280   84.8089   12.8819 C.3     1  UNL1        0.1274
     14 C          61.6910   81.8613   14.7028 C.3     1  UNL1        0.2081
     15 O          61.8822   80.5524   14.1628 O.3     1  UNL1       -0.4754
     16 C          61.5427   80.1471   12.8615 C.ar    1  UNL1        0.1388
     17 C          62.4003   80.3257   11.7596 C.ar    1  UNL1        0.0369
     18 C          62.0068   79.9043   10.4880 C.ar    1  UNL1        0.0033
     19 C          60.7623   79.2995   10.3000 C.ar    1  UNL1        0.0066
     20 C          59.8949   79.1069   11.3880 C.ar    1  UNL1        0.0785
     21 C          60.2984   79.5341   12.6666 C.ar    1  UNL1        0.0433
     22 C          58.5772   78.4644   11.1874 C.2     1  UNL1        0.3381
     23 O          57.6887   79.0315   10.4954 O.2     1  UNL1       -0.2451
     24 O          58.3056   77.2254   11.7621 O.3     1  UNL1       -0.4771
     25 H          57.4068   76.7768   11.6310 H       1  UNL1        0.2954
     26 C          59.9353   88.8734    6.7813 C.2     1  UNL1        0.2839
     27 O          59.0690   89.2407    7.6200 O.2     1  UNL1       -0.2665
     28 N          60.7731   87.7389    7.0563 N.am    1  UNL1       -0.2766
     29 H          61.2512   87.2757    6.2504 H       1  UNL1        0.1553
     30 C          57.5519   90.0021    4.9596 C.3     1  UNL1        0.0345
     31 C          59.0258   90.0791    4.6969 C.ar    1  UNL1        0.0202
     32 C          60.0635   89.5841    5.4948 C.ar    1  UNL1        0.1946
     33 O          61.2301   89.8450    4.9323 O.2     1  UNL1       -0.4492
     34 C          61.0026   90.4832    3.8105 C.ar    1  UNL1        0.1452
     35 C          61.9437   90.9510    2.8999 C.ar    1  UNL1        0.0375
     36 C          61.4782   91.6163    1.7526 C.ar    1  UNL1        0.0031
     37 C          60.0867   91.8037    1.5331 C.ar    1  UNL1        0.0002
     38 C          59.1617   91.3114    2.4851 C.ar    1  UNL1        0.0028
     39 C          59.6588   90.6554    3.6123 C.ar    1  UNL1        0.0337
     40 C          59.6067   92.5085    0.3174 C.ar    1  UNL1        0.0000
     41 C          60.5123   93.1844   -0.5226 C.ar    1  UNL1        0.0000
     42 C          60.0573   93.8479   -1.6662 C.ar    1  UNL1        0.0000
     43 C          58.6975   93.8444   -1.9846 C.ar    1  UNL1        0.0000
     44 C          57.7893   93.1774   -1.1596 C.ar    1  UNL1        0.0000
     45 C          58.2384   92.5129   -0.0142 C.ar    1  UNL1        0.0000
@<TRIPOS>BOND
     1    30    31    1
     2    31    32   ar
     3    32    26    1
     4    26    27    2
     5    26    28   am
     6    28     1    1
     7     1     2   ar
     8     2     3   ar
     9     3     4   ar
    10     4     7    1
    11     7     8    1
    12     8     9    1
    13     9    10    1
    14    10    14    1
    15    14    15    1
    16    15    16    1
    17    16    17   ar
    18    17    18   ar
    19    18    19   ar
    20    19    20   ar
    21    20    22    1
    22    22    23    2
    23    22    24    1
    24    20    21   ar
    25    10    11    1
    26    11    12    1
    27    11    13    1
    28     4     5   ar
    29     5     6   ar
    30    32    33   ar
    31    33    34   ar
    32    34    35   ar
    33    35    36   ar
    34    36    37   ar
    35    37    40    1
    36    40    41   ar
    37    41    42   ar
    38    42    43   ar
    39    43    44   ar
    40    44    45   ar
    41    37    38   ar
    42    38    39   ar
    43    39    31   ar
    44     6     1   ar
    45    39    34   ar
    46    13     7    1
    47    45    40   ar
    48    21    16   ar
    49    28    29    1
    50    24    25    1
