@<TRIPOS>MOLECULE
*****
 38 42 0 0 0
SMALL
GASTEIGER

@<TRIPOS>ATOM
      1 C         -61.2011  -44.2518  -23.8072 C.2     1  UNL1        0.2493
      2 O         -61.1516  -43.7248  -24.9517 O.2     1  UNL1       -0.2699
      3 N         -61.4840  -43.4396  -22.6473 N.am    1  UNL1       -0.2760
      4 C         -61.2534  -41.9883  -22.6771 C.3     1  UNL1        0.0954
      5 C         -62.5121  -41.2688  -22.1902 C.3     1  UNL1        0.0399
      6 C         -62.9417  -41.7012  -20.7486 C.3     1  UNL1        0.0645
      7 C         -62.2552  -43.0311  -20.3164 C.3     1  UNL1        0.0399
      8 C         -62.1240  -44.0414  -21.4654 C.3     1  UNL1        0.0954
      9 C         -62.5268  -40.5898  -19.7201 C.3     1  UNL1        0.0477
     10 C         -63.4530  -39.4143  -19.7979 C.ar    1  UNL1        0.0220
     11 C         -63.3081  -38.1224  -19.3487 C.ar    1  UNL1        0.0923
     12 N         -64.5033  -37.4961  -19.4924 N.ar    1  UNL1       -0.2534
     13 N         -65.4002  -38.3511  -19.9766 N.ar    1  UNL1       -0.1651
     14 C         -64.7594  -39.5177  -20.1622 C.ar    1  UNL1        0.1515
     15 C         -65.3141  -40.7848  -20.6111 C.2     1  UNL1        0.2650
     16 O         -66.5423  -40.9128  -20.8577 O.2     1  UNL1       -0.2684
     17 N         -64.4133  -41.8962  -20.7394 N.am    1  UNL1       -0.3023
     18 H         -64.8130  -42.8228  -21.0117 H       1  UNL1        0.1497
     19 C         -62.9596  -50.0824  -24.1896 C.ar    1  UNL1        0.2249
     20 C         -61.8169  -50.6883  -23.6591 C.ar    1  UNL1        0.0577
     21 C         -60.7356  -49.8968  -23.2663 C.ar    1  UNL1        0.0063
     22 C         -60.8035  -48.5042  -23.4056 C.ar    1  UNL1        0.0181
     23 C         -59.7342  -47.6828  -23.0271 C.ar    1  UNL1        0.0081
     24 C         -59.8102  -46.2855  -23.1796 C.ar    1  UNL1        0.0799
     25 C         -61.0053  -45.7125  -23.6944 C.ar    1  UNL1        0.0613
     26 C         -62.0641  -46.5457  -24.0892 C.ar    1  UNL1        0.0239
     27 C         -61.9708  -47.9305  -23.9456 C.ar    1  UNL1        0.0845
     28 N         -63.0088  -48.7266  -24.3189 N.ar    1  UNL1       -0.2117
     29 C         -58.6199  -45.4723  -22.8201 C.2     1  UNL1        0.3382
     30 O         -58.7374  -44.4142  -22.1459 O.2     1  UNL1       -0.2451
     31 O         -57.3553  -45.8602  -23.2558 O.3     1  UNL1       -0.4771
     32 H         -56.5350  -45.3117  -23.0266 H       1  UNL1        0.2954
     33 C         -64.0653  -52.2881  -24.3898 C.3     1  UNL1        0.2542
     34 O         -64.0398  -50.8787  -24.5811 O.3     1  UNL1       -0.4561
     35 C         -64.8052  -36.1056  -19.0979 C.3     1  UNL1        0.0867
     36 C         -64.7642  -35.9561  -17.5616 C.3     1  UNL1        0.0244
     37 C         -66.2135  -35.7206  -19.5918 C.3     1  UNL1        0.0244
     38 C         -63.7601  -35.1611  -19.7191 C.3     1  UNL1        0.0244
@<TRIPOS>BOND
     1    33    34    1
     2    34    19    1
     3    19    20   ar
     4    20    21   ar
     5    21    22   ar
     6    22    23   ar
     7    23    24   ar
     8    24    29    1
     9    29    30    2
    10    29    31    1
    11    24    25   ar
    12    25     1    1
    13     1     2    2
    14     1     3   am
    15     3     4    1
    16     4     5    1
    17     5     6    1
    18     6     7    1
    19     7     8    1
    20     6     9    1
    21     9    10    1
    22    10    11   ar
    23    11    12   ar
    24    12    35    1
    25    35    36    1
    26    35    37    1
    27    35    38    1
    28    12    13   ar
    29    13    14   ar
    30    14    15    1
    31    15    16    2
    32    15    17   am
    33    25    26   ar
    34    26    27   ar
    35    27    28   ar
    36    28    19   ar
    37    27    22   ar
    38     8     3    1
    39    14    10   ar
    40    17     6    1
    41    31    32    1
    42    17    18    1
@<TRIPOS>MOLECULE
*****
 38 42 0 0 0
SMALL
GASTEIGER

@<TRIPOS>ATOM
      1 C         -61.7597  -45.4665  -27.9937 C.2     1  UNL1        0.2493
      2 O         -62.0075  -46.6610  -27.6745 O.2     1  UNL1       -0.2699
      3 N         -62.1589  -44.3862  -27.1226 N.am    1  UNL1       -0.2760
      4 C         -63.2322  -44.5786  -26.1372 C.3     1  UNL1        0.0954
      5 C         -62.7448  -44.1118  -24.7647 C.3     1  UNL1        0.0399
      6 C         -62.2893  -42.6143  -24.7572 C.3     1  UNL1        0.0645
      7 C         -62.0468  -42.0776  -26.1993 C.3     1  UNL1        0.0399
      8 C         -61.4081  -43.1193  -27.1294 C.3     1  UNL1        0.0954
      9 C         -63.4039  -41.7284  -24.0956 C.3     1  UNL1        0.0477
     10 C         -63.4001  -41.8857  -22.6053 C.ar    1  UNL1        0.0220
     11 C         -64.3568  -41.5816  -21.6653 C.ar    1  UNL1        0.0923
     12 N         -63.7973  -41.7344  -20.4385 N.ar    1  UNL1       -0.2534
     13 N         -62.5204  -42.0841  -20.5704 N.ar    1  UNL1       -0.1651
     14 C         -62.2805  -42.1761  -21.8895 C.ar    1  UNL1        0.1515
     15 C         -61.0196  -42.4634  -22.5544 C.2     1  UNL1        0.2650
     16 O         -59.9577  -42.6379  -21.9004 O.2     1  UNL1       -0.2684
     17 N         -61.0222  -42.5164  -23.9898 N.am    1  UNL1       -0.3023
     18 H         -60.1104  -42.6712  -24.4768 H       1  UNL1        0.1497
     19 C         -61.1935  -43.4764  -33.7342 C.ar    1  UNL1        0.2249
     20 C         -59.8869  -43.9060  -33.9843 C.ar    1  UNL1        0.0577
     21 C         -59.1714  -44.5598  -32.9790 C.ar    1  UNL1        0.0063
     22 C         -59.7667  -44.7809  -31.7300 C.ar    1  UNL1        0.0181
     23 C         -59.0742  -45.4280  -30.6990 C.ar    1  UNL1        0.0081
     24 C         -59.6793  -45.6370  -29.4454 C.ar    1  UNL1        0.0799
     25 C         -61.0214  -45.2106  -29.2483 C.ar    1  UNL1        0.0613
     26 C         -61.7004  -44.5455  -30.2816 C.ar    1  UNL1        0.0239
     27 C         -61.0843  -44.3323  -31.5153 C.ar    1  UNL1        0.0845
     28 N         -61.7573  -43.6988  -32.5135 N.ar    1  UNL1       -0.2117
     29 C         -58.8726  -46.2715  -28.3712 C.2     1  UNL1        0.3382
     30 O         -58.6685  -45.6789  -27.2780 O.2     1  UNL1       -0.2451
     31 O         -58.3040  -47.5260  -28.5774 O.3     1  UNL1       -0.4771
     32 H         -57.7440  -47.9681  -27.8583 H       1  UNL1        0.2954
     33 C         -63.2762  -43.0919  -35.0158 C.3     1  UNL1        0.2542
     34 O         -61.9061  -42.8226  -34.7436 O.3     1  UNL1       -0.4561
     35 C         -64.4610  -41.4741  -19.1454 C.3     1  UNL1        0.0867
     36 C         -63.8075  -40.2704  -18.4324 C.3     1  UNL1        0.0244
     37 C         -64.3316  -42.7128  -18.2375 C.3     1  UNL1        0.0244
     38 C         -65.9486  -41.1618  -19.3898 C.3     1  UNL1        0.0244
@<TRIPOS>BOND
     1    33    34    1
     2    34    19    1
     3    19    20   ar
     4    20    21   ar
     5    21    22   ar
     6    22    23   ar
     7    23    24   ar
     8    24    29    1
     9    29    30    2
    10    29    31    1
    11    24    25   ar
    12    25     1    1
    13     1     2    2
    14     1     3   am
    15     3     4    1
    16     4     5    1
    17     5     6    1
    18     6     7    1
    19     7     8    1
    20     6     9    1
    21     9    10    1
    22    10    11   ar
    23    11    12   ar
    24    12    35    1
    25    35    36    1
    26    35    37    1
    27    35    38    1
    28    12    13   ar
    29    13    14   ar
    30    14    15    1
    31    15    16    2
    32    15    17   am
    33    25    26   ar
    34    26    27   ar
    35    27    28   ar
    36    28    19   ar
    37    27    22   ar
    38     8     3    1
    39    14    10   ar
    40    17     6    1
    41    31    32    1
    42    17    18    1
@<TRIPOS>MOLECULE
*****
 38 42 0 0 0
SMALL
GASTEIGER

@<TRIPOS>ATOM
      1 C         -61.3544  -43.7728  -23.7088 C.2     1  UNL1        0.2493
      2 O         -60.8527  -43.1078  -24.6554 O.2     1  UNL1       -0.2699
      3 N         -61.8185  -43.1010  -22.5179 N.am    1  UNL1       -0.2760
      4 C         -61.3131  -41.7658  -22.1682 C.3     1  UNL1        0.0954
      5 C         -62.4960  -40.8374  -21.8889 C.3     1  UNL1        0.0399
      6 C         -63.4250  -41.3622  -20.7438 C.3     1  UNL1        0.0645
      7 C         -63.1772  -42.8709  -20.4453 C.3     1  UNL1        0.0399
      8 C         -62.8961  -43.6959  -21.7095 C.3     1  UNL1        0.0954
      9 C         -63.1408  -40.5583  -19.4254 C.3     1  UNL1        0.0477
     10 C         -63.7513  -39.1912  -19.4885 C.ar    1  UNL1        0.0220
     11 C         -63.5046  -38.0596  -18.7467 C.ar    1  UNL1        0.0923
     12 N         -64.4517  -37.1408  -19.0630 N.ar    1  UNL1       -0.2534
     13 N         -65.3032  -37.6616  -19.9426 N.ar    1  UNL1       -0.1651
     14 C         -64.8754  -38.9091  -20.2007 C.ar    1  UNL1        0.1515
     15 C         -65.4989  -39.9148  -21.0460 C.2     1  UNL1        0.2650
     16 O         -66.5912  -39.6937  -21.6322 O.2     1  UNL1       -0.2684
     17 N         -64.8360  -41.1831  -21.1692 N.am    1  UNL1       -0.3023
     18 H         -65.3038  -41.9285  -21.7331 H       1  UNL1        0.1497
     19 C         -63.6692  -48.8418  -26.1950 C.ar    1  UNL1        0.2249
     20 C         -63.0505  -49.7881  -25.3727 C.ar    1  UNL1        0.0577
     21 C         -62.1795  -49.3639  -24.3670 C.ar    1  UNL1        0.0063
     22 C         -61.9329  -47.9962  -24.1889 C.ar    1  UNL1        0.0181
     23 C         -61.0602  -47.5385  -23.1938 C.ar    1  UNL1        0.0081
     24 C         -60.8133  -46.1625  -23.0296 C.ar    1  UNL1        0.0799
     25 C         -61.4901  -45.2358  -23.8693 C.ar    1  UNL1        0.0613
     26 C         -62.3479  -45.7055  -24.8765 C.ar    1  UNL1        0.0239
     27 C         -62.5735  -47.0731  -25.0378 C.ar    1  UNL1        0.0845
     28 N         -63.4176  -47.5154  -26.0086 N.ar    1  UNL1       -0.2117
     29 C         -59.8290  -45.7418  -21.9992 C.2     1  UNL1        0.3382
     30 O         -58.5922  -45.7561  -22.2402 O.2     1  UNL1       -0.2451
     31 O         -60.2678  -45.3535  -20.7358 O.3     1  UNL1       -0.4771
     32 H         -59.6088  -45.0725  -20.0196 H       1  UNL1        0.2954
     33 C         -64.1491  -49.3770  -28.5638 C.3     1  UNL1        0.2542
     34 O         -64.5406  -49.2710  -27.2002 O.3     1  UNL1       -0.4561
     35 C         -64.5851  -35.7952  -18.4697 C.3     1  UNL1        0.0867
     36 C         -65.0995  -35.8909  -17.0170 C.3     1  UNL1        0.0244
     37 C         -65.5879  -34.9628  -19.2925 C.3     1  UNL1        0.0244
     38 C         -63.2112  -35.1005  -18.4676 C.3     1  UNL1        0.0244
@<TRIPOS>BOND
     1    33    34    1
     2    34    19    1
     3    19    20   ar
     4    20    21   ar
     5    21    22   ar
     6    22    23   ar
     7    23    24   ar
     8    24    29    1
     9    29    30    2
    10    29    31    1
    11    24    25   ar
    12    25     1    1
    13     1     2    2
    14     1     3   am
    15     3     4    1
    16     4     5    1
    17     5     6    1
    18     6     7    1
    19     7     8    1
    20     6     9    1
    21     9    10    1
    22    10    11   ar
    23    11    12   ar
    24    12    35    1
    25    35    36    1
    26    35    37    1
    27    35    38    1
    28    12    13   ar
    29    13    14   ar
    30    14    15    1
    31    15    16    2
    32    15    17   am
    33    25    26   ar
    34    26    27   ar
    35    27    28   ar
    36    28    19   ar
    37    27    22   ar
    38     8     3    1
    39    14    10   ar
    40    17     6    1
    41    31    32    1
    42    17    18    1
@<TRIPOS>MOLECULE
*****
 38 42 0 0 0
SMALL
GASTEIGER

@<TRIPOS>ATOM
      1 C         -61.5391  -43.8052  -24.0723 C.2     1  UNL1        0.2493
      2 O         -60.9467  -43.1175  -24.9476 O.2     1  UNL1       -0.2699
      3 N         -62.0172  -43.1803  -22.8614 N.am    1  UNL1       -0.2760
      4 C         -61.4422  -41.9090  -22.3994 C.3     1  UNL1        0.0954
      5 C         -62.5730  -40.9199  -22.1131 C.3     1  UNL1        0.0399
      6 C         -63.5920  -41.4507  -21.0503 C.3     1  UNL1        0.0645
      7 C         -63.4611  -42.9891  -20.8432 C.3     1  UNL1        0.0399
      8 C         -63.1719  -43.7490  -22.1459 C.3     1  UNL1        0.0954
      9 C         -63.3221  -40.7550  -19.6689 C.3     1  UNL1        0.0477
     10 C         -63.8358  -39.3473  -19.6677 C.ar    1  UNL1        0.0220
     11 C         -63.5520  -38.2858  -18.8405 C.ar    1  UNL1        0.0923
     12 N         -64.4182  -37.2844  -19.1375 N.ar    1  UNL1       -0.2534
     13 N         -65.2569  -37.6867  -20.0888 N.ar    1  UNL1       -0.1651
     14 C         -64.9008  -38.9420  -20.4105 C.ar    1  UNL1        0.1515
     15 C         -65.5464  -39.8452  -21.3497 C.2     1  UNL1        0.2650
     16 O         -66.5903  -39.5109  -21.9696 O.2     1  UNL1       -0.2684
     17 N         -64.9644  -41.1463  -21.5275 N.am    1  UNL1       -0.3023
     18 H         -65.4517  -41.8193  -22.1615 H       1  UNL1        0.1497
     19 C         -60.9170  -49.7696  -22.9438 C.ar    1  UNL1        0.2249
     20 C         -61.5641  -50.2726  -24.0763 C.ar    1  UNL1        0.0577
     21 C         -62.1140  -49.3882  -25.0066 C.ar    1  UNL1        0.0063
     22 C         -62.0130  -48.0062  -24.7995 C.ar    1  UNL1        0.0181
     23 C         -62.5591  -47.0929  -25.7100 C.ar    1  UNL1        0.0081
     24 C         -62.4591  -45.7066  -25.4874 C.ar    1  UNL1        0.0799
     25 C         -61.7641  -45.2417  -24.3373 C.ar    1  UNL1        0.0613
     26 C         -61.2372  -46.1653  -23.4206 C.ar    1  UNL1        0.0239
     27 C         -61.3550  -47.5373  -23.6460 C.ar    1  UNL1        0.0845
     28 N         -60.8284  -48.4224  -22.7574 N.ar    1  UNL1       -0.2117
     29 C         -63.1136  -44.7890  -26.4554 C.2     1  UNL1        0.3382
     30 O         -63.4839  -45.1986  -27.5882 O.2     1  UNL1       -0.2451
     31 O         -63.2972  -43.4480  -26.1275 O.3     1  UNL1       -0.4771
     32 H         -63.7337  -42.8077  -26.7800 H       1  UNL1        0.2954
     33 C         -60.1565  -52.0360  -22.3015 C.3     1  UNL1        0.2542
     34 O         -60.3678  -50.6586  -22.0154 O.3     1  UNL1       -0.4561
     35 C         -64.4914  -35.9737  -18.4615 C.3     1  UNL1        0.0867
     36 C         -65.0615  -36.1296  -17.0350 C.3     1  UNL1        0.0244
     37 C         -65.4128  -35.0297  -19.2587 C.3     1  UNL1        0.0244
     38 C         -63.0791  -35.3674  -18.3708 C.3     1  UNL1        0.0244
@<TRIPOS>BOND
     1    33    34    1
     2    34    19    1
     3    19    20   ar
     4    20    21   ar
     5    21    22   ar
     6    22    23   ar
     7    23    24   ar
     8    24    29    1
     9    29    30    2
    10    29    31    1
    11    24    25   ar
    12    25     1    1
    13     1     2    2
    14     1     3   am
    15     3     4    1
    16     4     5    1
    17     5     6    1
    18     6     7    1
    19     7     8    1
    20     6     9    1
    21     9    10    1
    22    10    11   ar
    23    11    12   ar
    24    12    35    1
    25    35    36    1
    26    35    37    1
    27    35    38    1
    28    12    13   ar
    29    13    14   ar
    30    14    15    1
    31    15    16    2
    32    15    17   am
    33    25    26   ar
    34    26    27   ar
    35    27    28   ar
    36    28    19   ar
    37    27    22   ar
    38     8     3    1
    39    14    10   ar
    40    17     6    1
    41    31    32    1
    42    17    18    1
@<TRIPOS>MOLECULE
*****
 38 42 0 0 0
SMALL
GASTEIGER

@<TRIPOS>ATOM
      1 C         -61.4594  -42.8466  -21.7186 C.2     1  UNL1        0.2493
      2 O         -60.5969  -43.6167  -21.2155 O.2     1  UNL1       -0.2699
      3 N         -61.4574  -42.5860  -23.1389 N.am    1  UNL1       -0.2760
      4 C         -60.2397  -42.7946  -23.9351 C.3     1  UNL1        0.0954
      5 C         -60.5765  -43.6557  -25.1534 C.3     1  UNL1        0.0399
      6 C         -61.6902  -43.0260  -26.0551 C.3     1  UNL1        0.0645
      7 C         -62.4749  -41.9076  -25.3066 C.3     1  UNL1        0.0399
      8 C         -62.7111  -42.2279  -23.8235 C.3     1  UNL1        0.0954
      9 C         -61.0352  -42.3834  -27.3291 C.3     1  UNL1        0.0477
     10 C         -60.6331  -43.4377  -28.3152 C.ar    1  UNL1        0.0220
     11 C         -59.7662  -43.3894  -29.3818 C.ar    1  UNL1        0.0923
     12 N         -59.8937  -44.5497  -30.0738 N.ar    1  UNL1       -0.2534
     13 N         -60.8306  -45.3063  -29.5083 N.ar    1  UNL1       -0.1651
     14 C         -61.2792  -44.6284  -28.4381 C.ar    1  UNL1        0.1515
     15 C         -62.3505  -44.9972  -27.5266 C.2     1  UNL1        0.2650
     16 O         -63.0180  -46.0522  -27.6912 O.2     1  UNL1       -0.2684
     17 N         -62.6389  -44.1001  -26.4426 N.am    1  UNL1       -0.3023
     18 H         -63.4408  -44.3322  -25.8137 H       1  UNL1        0.1497
     19 C         -64.1152  -38.2982  -18.6375 C.ar    1  UNL1        0.2249
     20 C         -65.0920  -39.0358  -17.9621 C.ar    1  UNL1        0.0577
     21 C         -65.1848  -40.4132  -18.1725 C.ar    1  UNL1        0.0063
     22 C         -64.2999  -41.0450  -19.0563 C.ar    1  UNL1        0.0181
     23 C         -64.3704  -42.4233  -19.2939 C.ar    1  UNL1        0.0081
     24 C         -63.4817  -43.0460  -20.1905 C.ar    1  UNL1        0.0799
     25 C         -62.4845  -42.2597  -20.8301 C.ar    1  UNL1        0.0613
     26 C         -62.4344  -40.8757  -20.6002 C.ar    1  UNL1        0.0239
     27 C         -63.3302  -40.2683  -19.7194 C.ar    1  UNL1        0.0845
     28 N         -63.2630  -38.9284  -19.4943 N.ar    1  UNL1       -0.2117
     29 C         -63.6468  -44.4996  -20.4500 C.2     1  UNL1        0.3382
     30 O         -64.7928  -45.0152  -20.5438 O.2     1  UNL1       -0.2451
     31 O         -62.5254  -45.3177  -20.5624 O.3     1  UNL1       -0.4771
     32 H         -62.6213  -46.3121  -20.7304 H       1  UNL1        0.2954
     33 C         -63.5485  -36.0171  -19.4142 C.3     1  UNL1        0.2542
     34 O         -64.0259  -36.9197  -18.4236 O.3     1  UNL1       -0.4561
     35 C         -59.1751  -44.9013  -31.3149 C.3     1  UNL1        0.0867
     36 C         -57.8203  -44.1639  -31.3852 C.3     1  UNL1        0.0244
     37 C         -60.0208  -44.4936  -32.5372 C.3     1  UNL1        0.0244
     38 C         -58.9189  -46.4191  -31.3429 C.3     1  UNL1        0.0244
@<TRIPOS>BOND
     1    33    34    1
     2    34    19    1
     3    19    20   ar
     4    20    21   ar
     5    21    22   ar
     6    22    23   ar
     7    23    24   ar
     8    24    29    1
     9    29    30    2
    10    29    31    1
    11    24    25   ar
    12    25     1    1
    13     1     2    2
    14     1     3   am
    15     3     4    1
    16     4     5    1
    17     5     6    1
    18     6     7    1
    19     7     8    1
    20     6     9    1
    21     9    10    1
    22    10    11   ar
    23    11    12   ar
    24    12    35    1
    25    35    36    1
    26    35    37    1
    27    35    38    1
    28    12    13   ar
    29    13    14   ar
    30    14    15    1
    31    15    16    2
    32    15    17   am
    33    25    26   ar
    34    26    27   ar
    35    27    28   ar
    36    28    19   ar
    37    27    22   ar
    38     8     3    1
    39    14    10   ar
    40    17     6    1
    41    31    32    1
    42    17    18    1
@<TRIPOS>MOLECULE
*****
 38 42 0 0 0
SMALL
GASTEIGER

@<TRIPOS>ATOM
      1 C         -62.7454  -44.2831  -25.5072 C.2     1  UNL1        0.2493
      2 O         -63.5868  -43.8953  -26.3627 O.2     1  UNL1       -0.2699
      3 N         -62.3269  -43.3949  -24.4484 N.am    1  UNL1       -0.2760
      4 C         -62.4723  -41.9395  -24.5928 C.3     1  UNL1        0.0954
      5 C         -63.1829  -41.3800  -23.3595 C.3     1  UNL1        0.0399
      6 C         -62.4305  -41.7012  -22.0251 C.3     1  UNL1        0.0645
      7 C         -61.3858  -42.8416  -22.2117 C.3     1  UNL1        0.0399
      8 C         -61.8655  -43.9470  -23.1635 C.3     1  UNL1        0.0954
      9 C         -61.6639  -40.4228  -21.5322 C.3     1  UNL1        0.0477
     10 C         -62.6094  -39.4302  -20.9269 C.ar    1  UNL1        0.0220
     11 C         -62.4612  -38.0878  -20.6674 C.ar    1  UNL1        0.0923
     12 N         -63.5330  -37.6845  -19.9394 N.ar    1  UNL1       -0.2534
     13 N         -64.3269  -38.7248  -19.6995 N.ar    1  UNL1       -0.1651
     14 C         -63.7636  -39.7862  -20.3014 C.ar    1  UNL1        0.1515
     15 C         -64.2081  -41.1706  -20.2798 C.2     1  UNL1        0.2650
     16 O         -65.2224  -41.5240  -19.6226 O.2     1  UNL1       -0.2684
     17 N         -63.4323  -42.1291  -21.0164 N.am    1  UNL1       -0.3023
     18 H         -63.7153  -43.1338  -20.9639 H       1  UNL1        0.1497
     19 C         -61.8999  -49.9687  -23.4593 C.ar    1  UNL1        0.2249
     20 C         -61.0684  -50.4440  -24.4777 C.ar    1  UNL1        0.0577
     21 C         -60.7313  -49.6044  -25.5414 C.ar    1  UNL1        0.0063
     22 C         -61.2267  -48.2944  -25.5801 C.ar    1  UNL1        0.0181
     23 C         -60.9125  -47.4293  -26.6357 C.ar    1  UNL1        0.0081
     24 C         -61.4230  -46.1179  -26.6686 C.ar    1  UNL1        0.0799
     25 C         -62.2390  -45.6689  -25.5942 C.ar    1  UNL1        0.0613
     26 C         -62.5642  -46.5498  -24.5505 C.ar    1  UNL1        0.0239
     27 C         -62.0627  -47.8519  -24.5367 C.ar    1  UNL1        0.0845
     28 N         -62.3737  -48.6919  -23.5129 N.ar    1  UNL1       -0.2117
     29 C         -61.1068  -45.2686  -27.8459 C.2     1  UNL1        0.3382
     30 O         -59.9131  -45.0162  -28.1612 O.2     1  UNL1       -0.2451
     31 O         -62.1378  -44.7138  -28.6001 O.3     1  UNL1       -0.4771
     32 H         -61.9387  -44.1254  -29.4004 H       1  UNL1        0.2954
     33 C         -62.2142  -52.2309  -22.5046 C.3     1  UNL1        0.2542
     34 O         -62.2345  -50.8126  -22.3963 O.3     1  UNL1       -0.4561
     35 C         -63.7591  -36.3241  -19.4116 C.3     1  UNL1        0.0867
     36 C         -63.3272  -36.2372  -17.9317 C.3     1  UNL1        0.0244
     37 C         -65.2567  -35.9727  -19.5081 C.3     1  UNL1        0.0244
     38 C         -62.9346  -35.3155  -20.2320 C.3     1  UNL1        0.0244
@<TRIPOS>BOND
     1    33    34    1
     2    34    19    1
     3    19    20   ar
     4    20    21   ar
     5    21    22   ar
     6    22    23   ar
     7    23    24   ar
     8    24    29    1
     9    29    30    2
    10    29    31    1
    11    24    25   ar
    12    25     1    1
    13     1     2    2
    14     1     3   am
    15     3     4    1
    16     4     5    1
    17     5     6    1
    18     6     7    1
    19     7     8    1
    20     6     9    1
    21     9    10    1
    22    10    11   ar
    23    11    12   ar
    24    12    35    1
    25    35    36    1
    26    35    37    1
    27    35    38    1
    28    12    13   ar
    29    13    14   ar
    30    14    15    1
    31    15    16    2
    32    15    17   am
    33    25    26   ar
    34    26    27   ar
    35    27    28   ar
    36    28    19   ar
    37    27    22   ar
    38     8     3    1
    39    14    10   ar
    40    17     6    1
    41    31    32    1
    42    17    18    1
