@<TRIPOS>MOLECULE
*****
 38 40 0 0 0
SMALL
GASTEIGER

@<TRIPOS>ATOM
      1 C          47.5799   12.6146  -23.9474 C.ar    1  UNL1       -0.0023
      2 C          48.6256   12.3989  -24.8597 C.ar    1  UNL1       -0.0026
      3 C          48.3470   12.0719  -26.1894 C.ar    1  UNL1       -0.0003
      4 C          47.0193   11.9452  -26.6243 C.ar    1  UNL1        0.0001
      5 C          45.9734   12.1626  -25.7134 C.ar    1  UNL1       -0.0003
      6 C          46.2521   12.4881  -24.3837 C.ar    1  UNL1       -0.0026
      7 C          46.7279   11.6195  -28.0401 C.ar    1  UNL1        0.0032
      8 C          46.9081   10.2942  -28.4617 C.ar    1  UNL1        0.0001
      9 C          46.7238    9.9439  -29.7953 C.ar    1  UNL1        0.0002
     10 C          46.3360   10.9048  -30.7249 C.ar    1  UNL1        0.0065
     11 C          46.1116   12.2362  -30.3341 C.ar    1  UNL1        0.0784
     12 C          46.3260   12.6086  -28.9778 C.ar    1  UNL1        0.0434
     13 C          46.1552   14.0134  -28.5392 C.ar    1  UNL1        0.1808
     14 N          44.9793   14.6684  -28.5052 N.ar    1  UNL1       -0.1083
     15 N          45.2700   15.8654  -28.0149 N.ar    1  UNL1       -0.0229
     16 N          46.5660   15.9445  -27.7510 N.ar    1  UNL1       -0.0464
     17 N          47.1382   14.7978  -28.0690 N.ar    1  UNL1       -0.2388
     18 H          48.1499   14.5699  -27.9493 H       1  UNL1        0.1923
     19 C          45.5979   13.1849  -31.3528 C.2     1  UNL1        0.3381
     20 O          44.7987   12.7844  -32.2421 O.2     1  UNL1       -0.2451
     21 O          45.9508   14.5310  -31.3124 O.3     1  UNL1       -0.4771
     22 H          45.5927   15.1840  -31.9991 H       1  UNL1        0.2954
     23 C          47.8780   13.0201  -22.5276 C.3     1  UNL1        0.1206
     24 C          47.7884   10.6738  -21.6813 C.2     1  UNL1        0.2262
     25 O          46.6174   10.6758  -21.2157 O.2     1  UNL1       -0.2749
     26 N          48.5106   11.9183  -21.7849 N.am    1  UNL1       -0.2673
     27 C          48.3373    9.3901  -22.2365 C.3     1  UNL1        0.0853
     28 C          49.8256    9.5499  -22.5739 C.3     1  UNL1        0.0096
     29 C          51.1821    9.4063  -24.7299 C.3     1  UNL1        0.0000
     30 C          50.2593    8.6724  -23.7575 C.3     1  UNL1        0.0005
     31 C          49.8570   12.1228  -21.1939 C.3     1  UNL1        0.1746
     32 C          49.8319   11.9539  -19.6866 C.2     1  UNL1        0.3320
     33 O          48.9022   12.4775  -19.0171 O.2     1  UNL1       -0.2485
     34 O          50.7403   11.1311  -19.0218 O.3     1  UNL1       -0.4790
     35 H          51.4539   10.6016  -19.5034 H       1  UNL1        0.2951
     36 C          50.5684   13.4197  -21.7042 C.3     1  UNL1        0.0292
     37 C          51.2042   14.2133  -20.5537 C.3     1  UNL1        0.0023
     38 C          51.5937   13.1976  -22.8292 C.3     1  UNL1        0.0023
@<TRIPOS>BOND
     1    29    30    1
     2    30    28    1
     3    28    27    1
     4    27    24    1
     5    24    25    2
     6    24    26   am
     7    26    23    1
     8    23     1    1
     9     1     2   ar
    10     2     3   ar
    11     3     4   ar
    12     4     7    1
    13     7     8   ar
    14     8     9   ar
    15     9    10   ar
    16    10    11   ar
    17    11    19    1
    18    19    20    2
    19    19    21    1
    20    11    12   ar
    21    12    13    1
    22    13    14   ar
    23    14    15   ar
    24    15    16   ar
    25    16    17   ar
    26     4     5   ar
    27     5     6   ar
    28    26    31    1
    29    31    32    1
    30    32    33    2
    31    32    34    1
    32    31    36    1
    33    36    37    1
    34    36    38    1
    35     6     1   ar
    36    12     7   ar
    37    17    13   ar
    38    21    22    1
    39    17    18    1
    40    34    35    1
@<TRIPOS>MOLECULE
*****
 38 40 0 0 0
SMALL
GASTEIGER

@<TRIPOS>ATOM
      1 C          46.9777   13.2516  -24.1301 C.ar    1  UNL1       -0.0023
      2 C          47.9751   13.5470  -25.0736 C.ar    1  UNL1       -0.0026
      3 C          47.8444   13.1192  -26.3974 C.ar    1  UNL1       -0.0003
      4 C          46.7200   12.3807  -26.7953 C.ar    1  UNL1        0.0001
      5 C          45.7216   12.0865  -25.8533 C.ar    1  UNL1       -0.0003
      6 C          45.8531   12.5131  -24.5295 C.ar    1  UNL1       -0.0026
      7 C          46.5749   11.9474  -28.2049 C.ar    1  UNL1        0.0032
      8 C          46.9350   10.6316  -28.5300 C.ar    1  UNL1        0.0001
      9 C          46.8926   10.1910  -29.8488 C.ar    1  UNL1        0.0002
     10 C          46.4700   11.0485  -30.8607 C.ar    1  UNL1        0.0065
     11 C          46.0678   12.3635  -30.5697 C.ar    1  UNL1        0.0784
     12 C          46.1358   12.8308  -29.2276 C.ar    1  UNL1        0.0434
     13 C          45.7747   14.2274  -28.8898 C.ar    1  UNL1        0.1808
     14 N          45.1877   14.6109  -27.7404 N.ar    1  UNL1       -0.1083
     15 N          45.0873   15.9298  -27.8324 N.ar    1  UNL1       -0.0229
     16 N          45.5959   16.3436  -28.9837 N.ar    1  UNL1       -0.0464
     17 N          46.0330   15.2968  -29.6594 N.ar    1  UNL1       -0.2388
     18 H          46.4991   15.3278  -30.5930 H       1  UNL1        0.1923
     19 C          45.5285   13.1893  -31.6781 C.2     1  UNL1        0.3381
     20 O          44.4111   12.9071  -32.1896 O.2     1  UNL1       -0.2451
     21 O          46.2212   14.3078  -32.1334 O.3     1  UNL1       -0.4771
     22 H          45.8506   14.8809  -32.8819 H       1  UNL1        0.2954
     23 C          47.0913   13.7584  -22.7161 C.3     1  UNL1        0.1206
     24 C          49.3257   13.5871  -21.6174 C.2     1  UNL1        0.2262
     25 O          50.0369   14.0705  -22.5385 O.2     1  UNL1       -0.2749
     26 N          48.0657   12.9673  -21.9478 N.am    1  UNL1       -0.2673
     27 C          49.7572   13.7960  -20.1934 C.3     1  UNL1        0.0853
     28 C          51.2718   13.5894  -20.0609 C.3     1  UNL1        0.0096
     29 C          50.4759   12.2909  -18.0141 C.3     1  UNL1        0.0000
     30 C          51.6346   12.5702  -18.9706 C.3     1  UNL1        0.0005
     31 C          47.7114   11.5864  -21.5336 C.3     1  UNL1        0.1746
     32 C          46.7921   11.5885  -20.3271 C.2     1  UNL1        0.3320
     33 O          47.2250   11.9930  -19.2155 O.2     1  UNL1       -0.2485
     34 O          45.4383   11.2712  -20.4312 O.3     1  UNL1       -0.4790
     35 H          44.9978   11.0318  -21.3088 H       1  UNL1        0.2951
     36 C          48.9487   10.6349  -21.4231 C.3     1  UNL1        0.0292
     37 C          48.7350    9.5395  -20.3684 C.3     1  UNL1        0.0023
     38 C          49.4096   10.0126  -22.7521 C.3     1  UNL1        0.0023
@<TRIPOS>BOND
     1    29    30    1
     2    30    28    1
     3    28    27    1
     4    27    24    1
     5    24    25    2
     6    24    26   am
     7    26    23    1
     8    23     1    1
     9     1     2   ar
    10     2     3   ar
    11     3     4   ar
    12     4     7    1
    13     7     8   ar
    14     8     9   ar
    15     9    10   ar
    16    10    11   ar
    17    11    19    1
    18    19    20    2
    19    19    21    1
    20    11    12   ar
    21    12    13    1
    22    13    14   ar
    23    14    15   ar
    24    15    16   ar
    25    16    17   ar
    26     4     5   ar
    27     5     6   ar
    28    26    31    1
    29    31    32    1
    30    32    33    2
    31    32    34    1
    32    31    36    1
    33    36    37    1
    34    36    38    1
    35     6     1   ar
    36    12     7   ar
    37    17    13   ar
    38    21    22    1
    39    17    18    1
    40    34    35    1
@<TRIPOS>MOLECULE
*****
 38 40 0 0 0
SMALL
GASTEIGER

@<TRIPOS>ATOM
      1 C          46.6394   12.9226  -24.1455 C.ar    1  UNL1       -0.0023
      2 C          45.5196   12.2448  -24.6543 C.ar    1  UNL1       -0.0026
      3 C          45.4462   11.9206  -26.0115 C.ar    1  UNL1       -0.0003
      4 C          46.4862   12.2787  -26.8823 C.ar    1  UNL1        0.0001
      5 C          47.6068   12.9546  -26.3743 C.ar    1  UNL1       -0.0003
      6 C          47.6793   13.2798  -25.0176 C.ar    1  UNL1       -0.0026
      7 C          46.4143   11.9142  -28.3167 C.ar    1  UNL1        0.0032
      8 C          46.7642   10.6063  -28.6824 C.ar    1  UNL1        0.0001
      9 C          46.7893   10.2277  -30.0207 C.ar    1  UNL1        0.0002
     10 C          46.4452   11.1407  -31.0137 C.ar    1  UNL1        0.0065
     11 C          46.0552   12.4504  -30.6845 C.ar    1  UNL1        0.0784
     12 C          46.0549   12.8539  -29.3201 C.ar    1  UNL1        0.0434
     13 C          45.7050   14.2420  -28.9381 C.ar    1  UNL1        0.1808
     14 N          45.0131   14.5820  -27.8343 N.ar    1  UNL1       -0.1083
     15 N          44.9651   15.9068  -27.8568 N.ar    1  UNL1       -0.0229
     16 N          45.6046   16.3654  -28.9228 N.ar    1  UNL1       -0.0464
     17 N          46.0766   15.3425  -29.6114 N.ar    1  UNL1       -0.2388
     18 H          46.6388   15.4083  -30.4886 H       1  UNL1        0.1923
     19 C          45.5996   13.3391  -31.7818 C.2     1  UNL1        0.3381
     20 O          44.5268   13.0865  -32.3944 O.2     1  UNL1       -0.2451
     21 O          46.3200   14.4826  -32.1160 O.3     1  UNL1       -0.4771
     22 H          46.0057   15.0980  -32.8567 H       1  UNL1        0.2954
     23 C          46.7443   13.2246  -22.6735 C.3     1  UNL1        0.1206
     24 C          48.0881   11.1653  -22.2464 C.2     1  UNL1        0.2262
     25 O          47.1618   10.3992  -21.8682 O.2     1  UNL1       -0.2749
     26 N          47.9362   12.5910  -22.0875 N.am    1  UNL1       -0.2673
     27 C          49.2603   10.5690  -22.9729 C.3     1  UNL1        0.0853
     28 C          49.5489    9.1564  -22.4479 C.3     1  UNL1        0.0096
     29 C          50.8952    9.0821  -24.6137 C.3     1  UNL1        0.0000
     30 C          50.2505    8.2722  -23.4895 C.3     1  UNL1        0.0005
     31 C          48.9311   13.4356  -21.3799 C.3     1  UNL1        0.1746
     32 C          49.8388   14.1588  -22.3567 C.2     1  UNL1        0.3320
     33 O          50.6559   13.4991  -23.0522 O.2     1  UNL1       -0.2485
     34 O          49.7160   15.5256  -22.6036 O.3     1  UNL1       -0.4790
     35 H          49.0178   16.1027  -22.1552 H       1  UNL1        0.2951
     36 C          49.6676   12.6870  -20.2198 C.3     1  UNL1        0.0292
     37 C          51.0395   13.3078  -19.9192 C.3     1  UNL1        0.0023
     38 C          48.8536   12.5393  -18.9230 C.3     1  UNL1        0.0023
@<TRIPOS>BOND
     1    29    30    1
     2    30    28    1
     3    28    27    1
     4    27    24    1
     5    24    25    2
     6    24    26   am
     7    26    23    1
     8    23     1    1
     9     1     2   ar
    10     2     3   ar
    11     3     4   ar
    12     4     7    1
    13     7     8   ar
    14     8     9   ar
    15     9    10   ar
    16    10    11   ar
    17    11    19    1
    18    19    20    2
    19    19    21    1
    20    11    12   ar
    21    12    13    1
    22    13    14   ar
    23    14    15   ar
    24    15    16   ar
    25    16    17   ar
    26     4     5   ar
    27     5     6   ar
    28    26    31    1
    29    31    32    1
    30    32    33    2
    31    32    34    1
    32    31    36    1
    33    36    37    1
    34    36    38    1
    35     6     1   ar
    36    12     7   ar
    37    17    13   ar
    38    21    22    1
    39    17    18    1
    40    34    35    1
@<TRIPOS>MOLECULE
*****
 38 40 0 0 0
SMALL
GASTEIGER

@<TRIPOS>ATOM
      1 C          49.3587   15.1560  -24.7108 C.ar    1  UNL1       -0.0023
      2 C          48.6145   15.2964  -23.5281 C.ar    1  UNL1       -0.0026
      3 C          48.3499   14.1850  -22.7235 C.ar    1  UNL1       -0.0003
      4 C          48.8162   12.9150  -23.0947 C.ar    1  UNL1        0.0001
      5 C          49.5617   12.7740  -24.2758 C.ar    1  UNL1       -0.0003
      6 C          49.8249   13.8850  -25.0808 C.ar    1  UNL1       -0.0026
      7 C          48.5519   11.7427  -22.2278 C.ar    1  UNL1        0.0032
      8 C          47.4728   10.9098  -22.5572 C.ar    1  UNL1        0.0001
      9 C          47.1293    9.8386  -21.7388 C.ar    1  UNL1        0.0002
     10 C          47.8696    9.5681  -20.5912 C.ar    1  UNL1        0.0065
     11 C          48.9792   10.3590  -20.2465 C.ar    1  UNL1        0.0784
     12 C          49.3193   11.4737  -21.0626 C.ar    1  UNL1        0.0434
     13 C          50.4469   12.3644  -20.7013 C.ar    1  UNL1        0.1808
     14 N          50.5177   13.0911  -19.5700 N.ar    1  UNL1       -0.1083
     15 N          51.6952   13.6979  -19.6280 N.ar    1  UNL1       -0.0229
     16 N          52.3268   13.3561  -20.7414 N.ar    1  UNL1       -0.0464
     17 N          51.5659   12.5220  -21.4262 N.ar    1  UNL1       -0.2388
     18 H          51.8190   12.0761  -22.3355 H       1  UNL1        0.1923
     19 C          49.7870    9.9524  -19.0702 C.2     1  UNL1        0.3381
     20 O          50.4544    8.8831  -19.1020 O.2     1  UNL1       -0.2451
     21 O          49.8571   10.7640  -17.9412 O.3     1  UNL1       -0.4771
     22 H          50.4169   10.4955  -17.1408 H       1  UNL1        0.2954
     23 C          49.6906   16.3616  -25.5507 C.3     1  UNL1        0.1206
     24 C          47.7519   15.7757  -27.0092 C.2     1  UNL1        0.2262
     25 O          48.3288   14.9762  -27.7939 O.2     1  UNL1       -0.2749
     26 N          48.5260   16.7927  -26.3402 N.am    1  UNL1       -0.2673
     27 C          46.2992   15.5519  -26.6975 C.3     1  UNL1        0.0853
     28 C          46.0480   14.0752  -26.3650 C.3     1  UNL1        0.0096
     29 C          44.7647   12.4992  -24.8228 C.3     1  UNL1        0.0000
     30 C          45.3883   13.8842  -24.9912 C.3     1  UNL1        0.0005
     31 C          48.1880   18.2369  -26.4024 C.3     1  UNL1        0.1746
     32 C          49.2419   19.0205  -27.1614 C.2     1  UNL1        0.3320
     33 O          50.4603   18.7465  -26.9961 O.2     1  UNL1       -0.2485
     34 O          48.9036   19.9590  -28.1355 O.3     1  UNL1       -0.4790
     35 H          47.9472   20.1617  -28.3921 H       1  UNL1        0.2951
     36 C          47.7834   18.8398  -25.0162 C.3     1  UNL1        0.0292
     37 C          47.4894   20.3439  -25.1109 C.3     1  UNL1        0.0023
     38 C          46.6281   18.1145  -24.3053 C.3     1  UNL1        0.0023
@<TRIPOS>BOND
     1    29    30    1
     2    30    28    1
     3    28    27    1
     4    27    24    1
     5    24    25    2
     6    24    26   am
     7    26    23    1
     8    23     1    1
     9     1     2   ar
    10     2     3   ar
    11     3     4   ar
    12     4     7    1
    13     7     8   ar
    14     8     9   ar
    15     9    10   ar
    16    10    11   ar
    17    11    19    1
    18    19    20    2
    19    19    21    1
    20    11    12   ar
    21    12    13    1
    22    13    14   ar
    23    14    15   ar
    24    15    16   ar
    25    16    17   ar
    26     4     5   ar
    27     5     6   ar
    28    26    31    1
    29    31    32    1
    30    32    33    2
    31    32    34    1
    32    31    36    1
    33    36    37    1
    34    36    38    1
    35     6     1   ar
    36    12     7   ar
    37    17    13   ar
    38    21    22    1
    39    17    18    1
    40    34    35    1
@<TRIPOS>MOLECULE
*****
 38 40 0 0 0
SMALL
GASTEIGER

@<TRIPOS>ATOM
      1 C          49.0895    9.6774  -21.8568 C.ar    1  UNL1       -0.0023
      2 C          49.8795    8.5888  -22.2607 C.ar    1  UNL1       -0.0026
      3 C          50.2871    8.4669  -23.5917 C.ar    1  UNL1       -0.0003
      4 C          49.9022    9.4255  -24.5409 C.ar    1  UNL1        0.0001
      5 C          49.1141   10.5150  -24.1376 C.ar    1  UNL1       -0.0003
      6 C          48.7055   10.6360  -22.8072 C.ar    1  UNL1       -0.0026
      7 C          50.3544    9.3041  -25.9467 C.ar    1  UNL1        0.0032
      8 C          49.6129    8.4832  -26.8086 C.ar    1  UNL1        0.0001
      9 C          50.0314    8.2701  -28.1180 C.ar    1  UNL1        0.0002
     10 C          51.1835    8.8891  -28.5949 C.ar    1  UNL1        0.0065
     11 C          51.9340    9.7465  -27.7720 C.ar    1  UNL1        0.0784
     12 C          51.5289    9.9468  -26.4230 C.ar    1  UNL1        0.0434
     13 C          52.3254   10.7978  -25.5084 C.ar    1  UNL1        0.1808
     14 N          52.3343   12.1440  -25.5269 N.ar    1  UNL1       -0.1083
     15 N          53.1333   12.4933  -24.5282 N.ar    1  UNL1       -0.0229
     16 N          53.5921   11.4119  -23.9154 N.ar    1  UNL1       -0.0464
     17 N          53.0985   10.3413  -24.5101 N.ar    1  UNL1       -0.2388
     18 H          53.2760    9.3525  -24.2263 H       1  UNL1        0.1923
     19 C          53.0896   10.4562  -28.3742 C.2     1  UNL1        0.3381
     20 O          53.8500    9.8540  -29.1799 O.2     1  UNL1       -0.2451
     21 O          53.3208   11.8008  -28.0973 O.3     1  UNL1       -0.4771
     22 H          54.1018   12.2918  -28.5157 H       1  UNL1        0.2954
     23 C          48.6948    9.8388  -20.4121 C.3     1  UNL1        0.1206
     24 C          50.2973   11.6960  -19.9517 C.2     1  UNL1        0.2262
     25 O          51.1854   11.0442  -19.3399 O.2     1  UNL1       -0.2749
     26 N          48.9376   11.2141  -19.9482 N.am    1  UNL1       -0.2673
     27 C          50.7164   12.8808  -20.7751 C.3     1  UNL1        0.0853
     28 C          49.7980   14.0769  -20.4919 C.3     1  UNL1        0.0096
     29 C          49.9112   14.1536  -23.0395 C.3     1  UNL1        0.0000
     30 C          49.4139   14.8404  -21.7681 C.3     1  UNL1        0.0005
     31 C          47.7865   12.0464  -19.5168 C.3     1  UNL1        0.1746
     32 C          47.6525   12.0664  -18.0060 C.2     1  UNL1        0.3320
     33 O          47.6253   13.1693  -17.3982 O.2     1  UNL1       -0.2485
     34 O          47.4336   10.9026  -17.2699 O.3     1  UNL1       -0.4790
     35 H          47.3459    9.9916  -17.6988 H       1  UNL1        0.2951
     36 C          46.4663   11.7313  -20.2956 C.3     1  UNL1        0.0292
     37 C          45.2214   11.9598  -19.4263 C.3     1  UNL1        0.0023
     38 C          46.3174   12.4602  -21.6420 C.3     1  UNL1        0.0023
@<TRIPOS>BOND
     1    29    30    1
     2    30    28    1
     3    28    27    1
     4    27    24    1
     5    24    25    2
     6    24    26   am
     7    26    23    1
     8    23     1    1
     9     1     2   ar
    10     2     3   ar
    11     3     4   ar
    12     4     7    1
    13     7     8   ar
    14     8     9   ar
    15     9    10   ar
    16    10    11   ar
    17    11    19    1
    18    19    20    2
    19    19    21    1
    20    11    12   ar
    21    12    13    1
    22    13    14   ar
    23    14    15   ar
    24    15    16   ar
    25    16    17   ar
    26     4     5   ar
    27     5     6   ar
    28    26    31    1
    29    31    32    1
    30    32    33    2
    31    32    34    1
    32    31    36    1
    33    36    37    1
    34    36    38    1
    35     6     1   ar
    36    12     7   ar
    37    17    13   ar
    38    21    22    1
    39    17    18    1
    40    34    35    1
@<TRIPOS>MOLECULE
*****
 38 40 0 0 0
SMALL
GASTEIGER

@<TRIPOS>ATOM
      1 C          48.4330   13.4574  -22.0960 C.ar    1  UNL1       -0.0023
      2 C          47.7748   13.5460  -23.3335 C.ar    1  UNL1       -0.0026
      3 C          48.1437   14.5231  -24.2617 C.ar    1  UNL1       -0.0003
      4 C          49.1688   15.4329  -23.9626 C.ar    1  UNL1        0.0001
      5 C          49.8286   15.3439  -22.7267 C.ar    1  UNL1       -0.0003
      6 C          49.4586   14.3678  -21.7982 C.ar    1  UNL1       -0.0026
      7 C          49.5716   16.4538  -24.9582 C.ar    1  UNL1        0.0032
      8 C          50.8111   16.2993  -25.5956 C.ar    1  UNL1        0.0001
      9 C          51.2767   17.2646  -26.4825 C.ar    1  UNL1        0.0002
     10 C          50.5042   18.3879  -26.7643 C.ar    1  UNL1        0.0065
     11 C          49.2412   18.5609  -26.1721 C.ar    1  UNL1        0.0784
     12 C          48.7706   17.5927  -25.2419 C.ar    1  UNL1        0.0434
     13 C          47.4702   17.7686  -24.5541 C.ar    1  UNL1        0.1808
     14 N          47.3157   17.8688  -23.2204 N.ar    1  UNL1       -0.1083
     15 N          46.0157   18.0585  -23.0412 N.ar    1  UNL1       -0.0229
     16 N          45.3956   18.0816  -24.2118 N.ar    1  UNL1       -0.0464
     17 N          46.2854   17.9044  -25.1711 N.ar    1  UNL1       -0.2388
     18 H          46.0816   17.8960  -26.1948 H       1  UNL1        0.1923
     19 C          48.4255   19.7254  -26.5966 C.2     1  UNL1        0.3381
     20 O          47.6894   20.3182  -25.7620 O.2     1  UNL1       -0.2451
     21 O          48.4976   20.2061  -27.9012 O.3     1  UNL1       -0.4771
     22 H          47.9512   21.0081  -28.1915 H       1  UNL1        0.2954
     23 C          48.0730   12.3708  -21.1168 C.3     1  UNL1        0.1206
     24 C          48.9893   10.4860  -22.4723 C.2     1  UNL1        0.2262
     25 O          47.9064   10.0076  -22.9038 O.2     1  UNL1       -0.2749
     26 N          48.9919   11.2273  -21.2348 N.am    1  UNL1       -0.2673
     27 C          50.2147   10.3797  -23.3352 C.3     1  UNL1        0.0853
     28 C          49.9792   11.0767  -24.6817 C.3     1  UNL1        0.0096
     29 C          51.9340   12.6175  -24.1215 C.3     1  UNL1        0.0000
     30 C          51.2339   11.7938  -25.2018 C.3     1  UNL1        0.0005
     31 C          49.8857   10.8966  -20.0966 C.3     1  UNL1        0.1746
     32 C          49.5273    9.5571  -19.4816 C.2     1  UNL1        0.3320
     33 O          48.3500    9.1207  -19.5832 O.2     1  UNL1       -0.2485
     34 O          50.4906    8.7275  -18.9089 O.3     1  UNL1       -0.4790
     35 H          51.4720    8.9673  -18.8786 H       1  UNL1        0.2951
     36 C          50.0523   12.0714  -19.0765 C.3     1  UNL1        0.0292
     37 C          49.5255   11.6978  -17.6834 C.3     1  UNL1        0.0023
     38 C          51.4764   12.6433  -18.9721 C.3     1  UNL1        0.0023
@<TRIPOS>BOND
     1    29    30    1
     2    30    28    1
     3    28    27    1
     4    27    24    1
     5    24    25    2
     6    24    26   am
     7    26    23    1
     8    23     1    1
     9     1     2   ar
    10     2     3   ar
    11     3     4   ar
    12     4     7    1
    13     7     8   ar
    14     8     9   ar
    15     9    10   ar
    16    10    11   ar
    17    11    19    1
    18    19    20    2
    19    19    21    1
    20    11    12   ar
    21    12    13    1
    22    13    14   ar
    23    14    15   ar
    24    15    16   ar
    25    16    17   ar
    26     4     5   ar
    27     5     6   ar
    28    26    31    1
    29    31    32    1
    30    32    33    2
    31    32    34    1
    32    31    36    1
    33    36    37    1
    34    36    38    1
    35     6     1   ar
    36    12     7   ar
    37    17    13   ar
    38    21    22    1
    39    17    18    1
    40    34    35    1
@<TRIPOS>MOLECULE
*****
 38 40 0 0 0
SMALL
GASTEIGER

@<TRIPOS>ATOM
      1 C          47.0051   12.5120  -24.1702 C.ar    1  UNL1       -0.0023
      2 C          48.1133   12.1348  -24.9460 C.ar    1  UNL1       -0.0026
      3 C          47.9583   11.8390  -26.3028 C.ar    1  UNL1       -0.0003
      4 C          46.6915   11.9054  -26.9019 C.ar    1  UNL1        0.0001
      5 C          45.5834   12.2842  -26.1276 C.ar    1  UNL1       -0.0003
      6 C          45.7384   12.5785  -24.7707 C.ar    1  UNL1       -0.0026
      7 C          46.5348   11.6119  -28.3458 C.ar    1  UNL1        0.0032
      8 C          46.7492   10.2949  -28.7773 C.ar    1  UNL1        0.0001
      9 C          46.6913    9.9743  -30.1297 C.ar    1  UNL1        0.0002
     10 C          46.3973   10.9572  -31.0707 C.ar    1  UNL1        0.0065
     11 C          46.1418   12.2812  -30.6739 C.ar    1  UNL1        0.0784
     12 C          46.2277   12.6232  -29.2956 C.ar    1  UNL1        0.0434
     13 C          46.0213   14.0192  -28.8444 C.ar    1  UNL1        0.1808
     14 N          44.8619   14.6956  -28.9503 N.ar    1  UNL1       -0.1083
     15 N          45.1025   15.8738  -28.3919 N.ar    1  UNL1       -0.0229
     16 N          46.3522   15.9211  -27.9541 N.ar    1  UNL1       -0.0464
     17 N          46.9441   14.7722  -28.2246 N.ar    1  UNL1       -0.2388
     18 H          47.9267   14.5219  -27.9765 H       1  UNL1        0.1923
     19 C          45.7309   13.2545  -31.7157 C.2     1  UNL1        0.3381
     20 O          45.0905   12.8622  -32.7286 O.2     1  UNL1       -0.2451
     21 O          46.0028   14.6118  -31.5672 O.3     1  UNL1       -0.4771
     22 H          45.7134   15.2808  -32.2707 H       1  UNL1        0.2954
     23 C          47.1796   12.8835  -22.7209 C.3     1  UNL1        0.1206
     24 C          47.9583   15.1491  -23.4207 C.2     1  UNL1        0.2262
     25 O          47.9176   14.9951  -24.6708 O.2     1  UNL1       -0.2749
     26 N          48.1311   13.9961  -22.5712 N.am    1  UNL1       -0.2673
     27 C          47.6896   16.5158  -22.8574 C.3     1  UNL1        0.0853
     28 C          47.0091   17.4007  -23.9101 C.3     1  UNL1        0.0096
     29 C          47.7044   19.4483  -25.2639 C.3     1  UNL1        0.0000
     30 C          48.0065   17.9907  -24.9182 C.3     1  UNL1        0.0005
     31 C          49.2070   13.8966  -21.5532 C.3     1  UNL1        0.1746
     32 C          50.5789   13.8554  -22.1991 C.2     1  UNL1        0.3320
     33 O          50.7182   13.3196  -23.3306 O.2     1  UNL1       -0.2485
     34 O          51.6783   14.5025  -21.6363 O.3     1  UNL1       -0.4790
     35 H          51.6208   15.0353  -20.7794 H       1  UNL1        0.2951
     36 C          48.9456   12.7879  -20.4802 C.3     1  UNL1        0.0292
     37 C          49.9776   11.6542  -20.5666 C.3     1  UNL1        0.0023
     38 C          48.8342   13.2984  -19.0335 C.3     1  UNL1        0.0023
@<TRIPOS>BOND
     1    29    30    1
     2    30    28    1
     3    28    27    1
     4    27    24    1
     5    24    25    2
     6    24    26   am
     7    26    23    1
     8    23     1    1
     9     1     2   ar
    10     2     3   ar
    11     3     4   ar
    12     4     7    1
    13     7     8   ar
    14     8     9   ar
    15     9    10   ar
    16    10    11   ar
    17    11    19    1
    18    19    20    2
    19    19    21    1
    20    11    12   ar
    21    12    13    1
    22    13    14   ar
    23    14    15   ar
    24    15    16   ar
    25    16    17   ar
    26     4     5   ar
    27     5     6   ar
    28    26    31    1
    29    31    32    1
    30    32    33    2
    31    32    34    1
    32    31    36    1
    33    36    37    1
    34    36    38    1
    35     6     1   ar
    36    12     7   ar
    37    17    13   ar
    38    21    22    1
    39    17    18    1
    40    34    35    1
@<TRIPOS>MOLECULE
*****
 38 40 0 0 0
SMALL
GASTEIGER

@<TRIPOS>ATOM
      1 C          46.1551   13.3095  -23.9852 C.ar    1  UNL1       -0.0023
      2 C          46.7390   14.4096  -23.3364 C.ar    1  UNL1       -0.0026
      3 C          47.4912   14.2263  -22.1731 C.ar    1  UNL1       -0.0003
      4 C          47.6620   12.9419  -21.6352 C.ar    1  UNL1        0.0001
      5 C          47.0802   11.8415  -22.2842 C.ar    1  UNL1       -0.0003
      6 C          46.3270   12.0251  -23.4464 C.ar    1  UNL1       -0.0026
      7 C          48.4783   12.7493  -20.4137 C.ar    1  UNL1        0.0032
      8 C          47.8111   12.4608  -19.2144 C.ar    1  UNL1        0.0001
      9 C          48.5171   12.3448  -18.0214 C.ar    1  UNL1        0.0002
     10 C          49.9013   12.4928  -18.0091 C.ar    1  UNL1        0.0065
     11 C          50.6092   12.7476  -19.1964 C.ar    1  UNL1        0.0784
     12 C          49.8916   12.8965  -20.4159 C.ar    1  UNL1        0.0434
     13 C          50.5964   13.2218  -21.6778 C.ar    1  UNL1        0.1808
     14 N          50.9902   14.4575  -22.0394 N.ar    1  UNL1       -0.1083
     15 N          51.6117   14.2915  -23.1988 N.ar    1  UNL1       -0.0229
     16 N          51.6085   13.0099  -23.5352 N.ar    1  UNL1       -0.0464
     17 N          50.9811   12.3231  -22.5982 N.ar    1  UNL1       -0.2388
     18 H          50.8446   11.2882  -22.5921 H       1  UNL1        0.1923
     19 C          52.0909   12.7887  -19.1298 C.2     1  UNL1        0.3381
     20 O          52.7345   11.7700  -18.7581 O.2     1  UNL1       -0.2451
     21 O          52.7886   13.9285  -19.5198 O.3     1  UNL1       -0.4771
     22 H          53.8007   13.9562  -19.4869 H       1  UNL1        0.2954
     23 C          45.3896   13.4992  -25.2686 C.3     1  UNL1        0.1206
     24 C          46.7067   12.7289  -27.2438 C.2     1  UNL1        0.2262
     25 O          47.2437   11.7075  -26.7376 O.2     1  UNL1       -0.2749
     26 N          46.2971   13.8124  -26.3840 N.am    1  UNL1       -0.2673
     27 C          46.3912   12.7198  -28.7127 C.3     1  UNL1        0.0853
     28 C          46.5005   11.2949  -29.2714 C.3     1  UNL1        0.0096
     29 C          45.7167   12.4037  -31.4313 C.3     1  UNL1        0.0000
     30 C          46.5204   11.2636  -30.8069 C.3     1  UNL1        0.0005
     31 C          46.7360   15.2159  -26.5880 C.3     1  UNL1        0.1746
     32 C          45.8607   15.9285  -27.6013 C.2     1  UNL1        0.3320
     33 O          44.6896   16.2665  -27.2835 O.2     1  UNL1       -0.2485
     34 O          46.3505   16.3354  -28.8417 O.3     1  UNL1       -0.4790
     35 H          47.3081   16.1858  -29.1283 H       1  UNL1        0.2951
     36 C          48.2761   15.3560  -26.8270 C.3     1  UNL1        0.0292
     37 C          48.7081   16.8263  -26.9237 C.3     1  UNL1        0.0023
     38 C          49.1606   14.6058  -25.8165 C.3     1  UNL1        0.0023
@<TRIPOS>BOND
     1    29    30    1
     2    30    28    1
     3    28    27    1
     4    27    24    1
     5    24    25    2
     6    24    26   am
     7    26    23    1
     8    23     1    1
     9     1     2   ar
    10     2     3   ar
    11     3     4   ar
    12     4     7    1
    13     7     8   ar
    14     8     9   ar
    15     9    10   ar
    16    10    11   ar
    17    11    19    1
    18    19    20    2
    19    19    21    1
    20    11    12   ar
    21    12    13    1
    22    13    14   ar
    23    14    15   ar
    24    15    16   ar
    25    16    17   ar
    26     4     5   ar
    27     5     6   ar
    28    26    31    1
    29    31    32    1
    30    32    33    2
    31    32    34    1
    32    31    36    1
    33    36    37    1
    34    36    38    1
    35     6     1   ar
    36    12     7   ar
    37    17    13   ar
    38    21    22    1
    39    17    18    1
    40    34    35    1
@<TRIPOS>MOLECULE
*****
 38 40 0 0 0
SMALL
GASTEIGER

@<TRIPOS>ATOM
      1 C          47.6774   13.3566  -21.8991 C.ar    1  UNL1       -0.0023
      2 C          46.7990   13.5998  -22.9676 C.ar    1  UNL1       -0.0026
      3 C          46.8529   14.8093  -23.6654 C.ar    1  UNL1       -0.0003
      4 C          47.7784   15.7978  -23.2987 C.ar    1  UNL1        0.0001
      5 C          48.6580   15.5547  -22.2320 C.ar    1  UNL1       -0.0003
      6 C          48.6030   14.3460  -21.5336 C.ar    1  UNL1       -0.0026
      7 C          47.8468   17.0702  -24.0548 C.ar    1  UNL1        0.0032
      8 C          46.9476   18.0900  -23.7109 C.ar    1  UNL1        0.0001
      9 C          46.9132   19.2776  -24.4344 C.ar    1  UNL1        0.0002
     10 C          47.7893   19.4757  -25.4981 C.ar    1  UNL1        0.0065
     11 C          48.7285   18.4913  -25.8508 C.ar    1  UNL1        0.0784
     12 C          48.7505   17.2623  -25.1344 C.ar    1  UNL1        0.0434
     13 C          49.6871   16.1785  -25.5128 C.ar    1  UNL1        0.1808
     14 N          50.6899   15.7260  -24.7367 N.ar    1  UNL1       -0.1083
     15 N          51.2396   14.7392  -25.4309 N.ar    1  UNL1       -0.0229
     16 N          50.6009   14.5840  -26.5813 N.ar    1  UNL1       -0.0464
     17 N          49.6259   15.4715  -26.6526 N.ar    1  UNL1       -0.2388
     18 H          48.9479   15.5671  -27.4406 H       1  UNL1        0.1923
     19 C          49.7019   18.8091  -26.9246 C.2     1  UNL1        0.3381
     20 O          50.8595   18.3101  -26.8950 O.2     1  UNL1       -0.2451
     21 O          49.3379   19.6182  -27.9974 O.3     1  UNL1       -0.4771
     22 H          49.9960   19.8278  -28.7384 H       1  UNL1        0.2954
     23 C          47.6568   12.0325  -21.1812 C.3     1  UNL1        0.1206
     24 C          49.1684   10.8832  -22.8009 C.2     1  UNL1        0.2262
     25 O          48.3065   10.2275  -23.4452 O.2     1  UNL1       -0.2749
     26 N          48.8897   11.2717  -21.4399 N.am    1  UNL1       -0.2673
     27 C          50.4003   11.3513  -23.5225 C.3     1  UNL1        0.0853
     28 C          50.1805   11.2977  -25.0401 C.3     1  UNL1        0.0096
     29 C          51.9640    9.4846  -24.8386 C.3     1  UNL1        0.0000
     30 C          51.2574   10.4753  -25.7632 C.3     1  UNL1        0.0005
     31 C          49.7948   10.9529  -20.3072 C.3     1  UNL1        0.1746
     32 C          49.4792    9.5943  -19.7110 C.2     1  UNL1        0.3320
     33 O          48.3401    9.0864  -19.8882 O.2     1  UNL1       -0.2485
     34 O          50.4514    8.8258  -19.0720 O.3     1  UNL1       -0.4790
     35 H          51.4120    9.1255  -18.9780 H       1  UNL1        0.2951
     36 C          49.9256   12.1178  -19.2705 C.3     1  UNL1        0.0292
     37 C          49.4543   11.6940  -17.8719 C.3     1  UNL1        0.0023
     38 C          51.3202   12.7619  -19.1907 C.3     1  UNL1        0.0023
@<TRIPOS>BOND
     1    29    30    1
     2    30    28    1
     3    28    27    1
     4    27    24    1
     5    24    25    2
     6    24    26   am
     7    26    23    1
     8    23     1    1
     9     1     2   ar
    10     2     3   ar
    11     3     4   ar
    12     4     7    1
    13     7     8   ar
    14     8     9   ar
    15     9    10   ar
    16    10    11   ar
    17    11    19    1
    18    19    20    2
    19    19    21    1
    20    11    12   ar
    21    12    13    1
    22    13    14   ar
    23    14    15   ar
    24    15    16   ar
    25    16    17   ar
    26     4     5   ar
    27     5     6   ar
    28    26    31    1
    29    31    32    1
    30    32    33    2
    31    32    34    1
    32    31    36    1
    33    36    37    1
    34    36    38    1
    35     6     1   ar
    36    12     7   ar
    37    17    13   ar
    38    21    22    1
    39    17    18    1
    40    34    35    1
