@<TRIPOS>MOLECULE
*****
 25 28 0 0 0
SMALL
GASTEIGER

@<TRIPOS>ATOM
      1 C         -22.2302  -13.0848  -15.7002 C.3     1  UNL1        0.1420
      2 O         -21.7015  -12.9967  -17.0018 O.3     1  UNL1       -0.3753
      3 C         -21.0764  -13.2422  -14.6686 C.3     1  UNL1        0.0395
      4 C         -21.4561  -12.4097  -13.4256 C.3     1  UNL1        0.0036
      5 C         -22.8796  -11.9560  -13.7113 C.3     1  UNL1        0.0036
      6 C         -23.4587  -10.7323  -12.9999 C.3     1  UNL1        0.0052
      7 C         -23.2470  -10.6782  -11.4801 C.3     1  UNL1        0.0152
      8 C         -23.9836   -9.4556  -10.8408 C.3     1  UNL1        0.0747
      9 I         -25.0620  -10.0718   -9.0905 I       1  UNL1       -0.0705
     10 C         -24.9370   -8.6926  -11.7682 C.ar    1  UNL1       -0.0137
     11 C         -25.3172   -7.3845  -11.4274 C.ar    1  UNL1        0.0328
     12 C         -26.1429   -6.6384  -12.2763 C.ar    1  UNL1        0.1334
     13 O         -26.5200   -5.3405  -11.9386 O.3     1  UNL1       -0.5055
     14 C         -26.5879   -7.1934  -13.4774 C.ar    1  UNL1        0.0363
     15 C         -26.2266   -8.4946  -13.8331 C.ar    1  UNL1       -0.0015
     16 C         -25.4211   -9.2664  -12.9745 C.ar    1  UNL1       -0.0255
     17 C         -24.9850  -10.6840  -13.2678 C.3     1  UNL1        0.0221
     18 C         -25.4640  -11.4067  -14.5796 C.3     1  UNL1        0.0045
     19 C         -24.4253  -11.5505  -15.7200 C.3     1  UNL1        0.0035
     20 C         -22.9440  -11.7720  -15.2451 C.3     1  UNL1        0.0333
     21 C         -22.1081  -10.5417  -15.7468 C.3     1  UNL1        0.0033
     22 H         -22.4621  -12.8384  -17.6213 H       1  UNL1        0.2114
     23 H         -26.2127   -4.9069  -11.0757 H       1  UNL1        0.2922
     24 C         -23.8424  -15.2342  -15.5525 C.1     1  UNL1       -0.0119
     25 C         -23.1201  -14.2712  -15.6200 C.1     1  UNL1       -0.0526
@<TRIPOS>BOND
     1    24    25    3
     2     1    25    1
     3     1     2    1
     4     1     3    1
     5     3     4    1
     6     4     5    1
     7     5     6    1
     8     6     7    1
     9     7     8    1
    10     8     9    1
    11     8    10    1
    12    10    11   ar
    13    11    12   ar
    14    12    13    1
    15    12    14   ar
    16    14    15   ar
    17    15    16   ar
    18    16    17    1
    19    17    18    1
    20    18    19    1
    21    19    20    1
    22    20    21    1
    23    20     1    1
    24    20     5    1
    25    17     6    1
    26    16    10   ar
    27     2    22    1
    28    13    23    1
@<TRIPOS>MOLECULE
*****
 25 28 0 0 0
SMALL
GASTEIGER

@<TRIPOS>ATOM
      1 C         -23.2694  -12.4671  -15.6057 C.3     1  UNL1        0.1420
      2 O         -22.4458  -13.5957  -15.4347 O.3     1  UNL1       -0.3753
      3 C         -24.7321  -12.8120  -15.2031 C.3     1  UNL1        0.0395
      4 C         -25.3110  -11.5782  -14.4784 C.3     1  UNL1        0.0036
      5 C         -24.2349  -10.5168  -14.6488 C.3     1  UNL1        0.0036
      6 C         -24.1658   -9.3253  -13.6927 C.3     1  UNL1        0.0052
      7 C         -25.4946   -8.6046  -13.4228 C.3     1  UNL1        0.0152
      8 C         -25.2885   -7.3329  -12.5360 C.3     1  UNL1        0.0747
      9 I         -26.3595   -5.6685  -13.3660 I       1  UNL1       -0.0705
     10 C         -23.8323   -6.9165  -12.2964 C.ar    1  UNL1       -0.0137
     11 C         -23.5353   -6.0672  -11.2182 C.ar    1  UNL1        0.0328
     12 C         -22.2118   -5.7092  -10.9367 C.ar    1  UNL1        0.1334
     13 O         -21.9169   -4.8670   -9.8669 O.3     1  UNL1       -0.5055
     14 C         -21.1742   -6.2052  -11.7279 C.ar    1  UNL1        0.0363
     15 C         -21.4475   -7.0465  -12.8085 C.ar    1  UNL1       -0.0015
     16 C         -22.7765   -7.3905  -13.1206 C.ar    1  UNL1       -0.0255
     17 C         -23.1723   -8.2859  -14.2727 C.3     1  UNL1        0.0221
     18 C         -22.0769   -8.8652  -15.2407 C.3     1  UNL1        0.0045
     19 C         -21.7072  -10.3596  -15.0667 C.3     1  UNL1        0.0035
     20 C         -22.8980  -11.2935  -14.6441 C.3     1  UNL1        0.0333
     21 C         -22.5433  -11.8872  -13.2350 C.3     1  UNL1        0.0033
     22 H         -21.5150  -13.3188  -15.6447 H       1  UNL1        0.2114
     23 H         -22.6458   -4.4913   -9.2715 H       1  UNL1        0.2922
     24 C         -23.2152  -11.7303  -18.1933 C.1     1  UNL1       -0.0119
     25 C         -23.2408  -12.0608  -17.0340 C.1     1  UNL1       -0.0526
@<TRIPOS>BOND
     1    24    25    3
     2     1    25    1
     3     1     2    1
     4     1     3    1
     5     3     4    1
     6     4     5    1
     7     5     6    1
     8     6     7    1
     9     7     8    1
    10     8     9    1
    11     8    10    1
    12    10    11   ar
    13    11    12   ar
    14    12    13    1
    15    12    14   ar
    16    14    15   ar
    17    15    16   ar
    18    16    17    1
    19    17    18    1
    20    18    19    1
    21    19    20    1
    22    20    21    1
    23    20     1    1
    24    20     5    1
    25    17     6    1
    26    16    10   ar
    27     2    22    1
    28    13    23    1
@<TRIPOS>MOLECULE
*****
 25 28 0 0 0
SMALL
GASTEIGER

@<TRIPOS>ATOM
      1 C         -24.1959  -12.6281  -15.0062 C.3     1  UNL1        0.1420
      2 O         -24.7848  -12.6549  -16.2844 O.3     1  UNL1       -0.3753
      3 C         -22.7982  -13.3099  -15.0519 C.3     1  UNL1        0.0395
      4 C         -21.8606  -12.4952  -14.1356 C.3     1  UNL1        0.0036
      5 C         -22.7875  -11.4941  -13.4628 C.3     1  UNL1        0.0036
      6 C         -22.2282  -10.2010  -12.8681 C.3     1  UNL1        0.0052
      7 C         -20.9835  -10.3543  -11.9820 C.3     1  UNL1        0.0152
      8 C         -20.5727   -8.9941  -11.3284 C.3     1  UNL1        0.0747
      9 I         -20.1669   -9.2680   -9.2387 I       1  UNL1       -0.0705
     10 C         -21.5756   -7.8459  -11.4930 C.ar    1  UNL1       -0.0137
     11 C         -21.1352   -6.5252  -11.3094 C.ar    1  UNL1        0.0328
     12 C         -22.0089   -5.4491  -11.5037 C.ar    1  UNL1        0.1334
     13 O         -21.5721   -4.1388  -11.3220 O.3     1  UNL1       -0.5055
     14 C         -23.3288   -5.6866  -11.8912 C.ar    1  UNL1        0.0363
     15 C         -23.7893   -6.9924  -12.0737 C.ar    1  UNL1       -0.0015
     16 C         -22.9292   -8.0847  -11.8528 C.ar    1  UNL1       -0.0255
     17 C         -23.3369   -9.5314  -12.0159 C.3     1  UNL1        0.0221
     18 C         -24.8121   -9.9002  -12.4163 C.3     1  UNL1        0.0045
     19 C         -25.0491  -10.3537  -13.8785 C.3     1  UNL1        0.0035
     20 C         -23.8747  -11.1801  -14.5162 C.3     1  UNL1        0.0333
     21 C         -23.3265  -10.3462  -15.7278 C.3     1  UNL1        0.0033
     22 H         -25.6447  -12.1605  -16.2257 H       1  UNL1        0.2114
     23 H         -20.6201   -3.9313  -11.0433 H       1  UNL1        0.2922
     24 C         -25.7753  -13.9694  -13.2894 C.1     1  UNL1       -0.0119
     25 C         -25.0672  -13.3676  -14.0576 C.1     1  UNL1       -0.0526
@<TRIPOS>BOND
     1    24    25    3
     2     1    25    1
     3     1     2    1
     4     1     3    1
     5     3     4    1
     6     4     5    1
     7     5     6    1
     8     6     7    1
     9     7     8    1
    10     8     9    1
    11     8    10    1
    12    10    11   ar
    13    11    12   ar
    14    12    13    1
    15    12    14   ar
    16    14    15   ar
    17    15    16   ar
    18    16    17    1
    19    17    18    1
    20    18    19    1
    21    19    20    1
    22    20    21    1
    23    20     1    1
    24    20     5    1
    25    17     6    1
    26    16    10   ar
    27     2    22    1
    28    13    23    1
@<TRIPOS>MOLECULE
*****
 25 28 0 0 0
SMALL
GASTEIGER

@<TRIPOS>ATOM
      1 C         -22.3254   -7.8643   -9.1385 C.3     1  UNL1        0.1420
      2 O         -22.8523   -6.6900   -8.5686 O.3     1  UNL1       -0.3753
      3 C         -23.0698   -9.1082   -8.5736 C.3     1  UNL1        0.0395
      4 C         -23.2424  -10.1069   -9.7377 C.3     1  UNL1        0.0036
      5 C         -22.4407   -9.4869  -10.8721 C.3     1  UNL1        0.0036
      6 C         -22.7312   -9.8703  -12.3238 C.3     1  UNL1        0.0052
      7 C         -22.8568  -11.3741  -12.6076 C.3     1  UNL1        0.0152
      8 C         -23.0282  -11.6578  -14.1360 C.3     1  UNL1        0.0747
      9 I         -21.7209  -13.2467  -14.7467 I       1  UNL1       -0.0705
     10 C         -22.8163  -10.4561  -15.0647 C.ar    1  UNL1       -0.0137
     11 C         -23.3318  -10.5048  -16.3700 C.ar    1  UNL1        0.0328
     12 C         -23.2044   -9.4062  -17.2279 C.ar    1  UNL1        0.1334
     13 O         -23.7159   -9.4541  -18.5228 O.3     1  UNL1       -0.5055
     14 C         -22.5668   -8.2469  -16.7827 C.ar    1  UNL1        0.0363
     15 C         -22.0417   -8.1791  -15.4904 C.ar    1  UNL1       -0.0015
     16 C         -22.1369   -9.2873  -14.6277 C.ar    1  UNL1       -0.0255
     17 C         -21.5932   -9.3128  -13.2171 C.3     1  UNL1        0.0221
     18 C         -20.8287   -8.0666  -12.6382 C.3     1  UNL1        0.0045
     19 C         -21.5963   -7.1825  -11.6236 C.3     1  UNL1        0.0035
     20 C         -22.5802   -7.9596  -10.6767 C.3     1  UNL1        0.0333
     21 C         -24.0279   -7.4359  -10.9829 C.3     1  UNL1        0.0033
     22 H         -22.3932   -5.9200   -8.9971 H       1  UNL1        0.2114
     23 H         -24.1864  -10.2790  -18.8766 H       1  UNL1        0.2922
     24 C         -19.7139   -8.0433   -8.5145 C.1     1  UNL1       -0.0119
     25 C         -20.8837   -7.9625   -8.7953 C.1     1  UNL1       -0.0526
@<TRIPOS>BOND
     1    24    25    3
     2     1    25    1
     3     1     2    1
     4     1     3    1
     5     3     4    1
     6     4     5    1
     7     5     6    1
     8     6     7    1
     9     7     8    1
    10     8     9    1
    11     8    10    1
    12    10    11   ar
    13    11    12   ar
    14    12    13    1
    15    12    14   ar
    16    14    15   ar
    17    15    16   ar
    18    16    17    1
    19    17    18    1
    20    18    19    1
    21    19    20    1
    22    20    21    1
    23    20     1    1
    24    20     5    1
    25    17     6    1
    26    16    10   ar
    27     2    22    1
    28    13    23    1
@<TRIPOS>MOLECULE
*****
 25 28 0 0 0
SMALL
GASTEIGER

@<TRIPOS>ATOM
      1 C         -22.4154   -7.3553  -11.1925 C.3     1  UNL1        0.1420
      2 O         -21.4445   -6.3369  -11.2298 O.3     1  UNL1       -0.3753
      3 C         -23.7632   -6.8242  -11.7597 C.3     1  UNL1        0.0395
      4 C         -24.3950   -7.9657  -12.5845 C.3     1  UNL1        0.0036
      5 C         -23.4871   -9.1561  -12.3152 C.3     1  UNL1        0.0036
      6 C         -23.4469  -10.3340  -13.2897 C.3     1  UNL1        0.0052
      7 C         -24.8104  -10.8784  -13.7395 C.3     1  UNL1        0.0152
      8 C         -24.6538  -12.1540  -14.6309 C.3     1  UNL1        0.0747
      9 I         -26.0160  -13.6817  -13.9853 I       1  UNL1       -0.0705
     10 C         -23.2415  -12.7467  -14.7037 C.ar    1  UNL1       -0.0137
     11 C         -22.9196  -13.6121  -15.7617 C.ar    1  UNL1        0.0328
     12 C         -21.6256  -14.1297  -15.8906 C.ar    1  UNL1        0.1334
     13 O         -21.3060  -14.9880  -16.9403 O.3     1  UNL1       -0.5055
     14 C         -20.6411  -13.7785  -14.9653 C.ar    1  UNL1        0.0363
     15 C         -20.9410  -12.9241  -13.9021 C.ar    1  UNL1       -0.0015
     16 C         -22.2459  -12.4201  -13.7441 C.ar    1  UNL1       -0.0255
     17 C         -22.6685  -11.4976  -12.6233 C.3     1  UNL1        0.0221
     18 C         -21.6388  -11.0733  -11.5132 C.3     1  UNL1        0.0045
     19 C         -21.0695   -9.6349  -11.5981 C.3     1  UNL1        0.0035
     20 C         -22.0747   -8.5534  -12.1352 C.3     1  UNL1        0.0333
     21 C         -21.4775   -7.9902  -13.4731 C.3     1  UNL1        0.0033
     22 H         -20.5881   -6.7313  -10.9162 H       1  UNL1        0.2114
     23 H         -21.9960  -15.2611  -17.6304 H       1  UNL1        0.2922
     24 C         -22.7771   -8.1287   -8.6406 C.1     1  UNL1       -0.0119
     25 C         -22.6144   -7.7811   -9.7836 C.1     1  UNL1       -0.0526
@<TRIPOS>BOND
     1    24    25    3
     2     1    25    1
     3     1     2    1
     4     1     3    1
     5     3     4    1
     6     4     5    1
     7     5     6    1
     8     6     7    1
     9     7     8    1
    10     8     9    1
    11     8    10    1
    12    10    11   ar
    13    11    12   ar
    14    12    13    1
    15    12    14   ar
    16    14    15   ar
    17    15    16   ar
    18    16    17    1
    19    17    18    1
    20    18    19    1
    21    19    20    1
    22    20    21    1
    23    20     1    1
    24    20     5    1
    25    17     6    1
    26    16    10   ar
    27     2    22    1
    28    13    23    1
@<TRIPOS>MOLECULE
*****
 25 28 0 0 0
SMALL
GASTEIGER

@<TRIPOS>ATOM
      1 C         -23.8011  -13.2478  -15.5390 C.3     1  UNL1        0.1420
      2 O         -23.6309  -14.6442  -15.4876 O.3     1  UNL1       -0.3753
      3 C         -25.2556  -12.9064  -15.9729 C.3     1  UNL1        0.0395
      4 C         -25.7040  -11.6808  -15.1487 C.3     1  UNL1        0.0036
      5 C         -24.4433  -11.2560  -14.4112 C.3     1  UNL1        0.0036
      6 C         -24.5387  -10.4156  -13.1371 C.3     1  UNL1        0.0052
      7 C         -25.4728   -9.1988  -13.2054 C.3     1  UNL1        0.0152
      8 C         -25.3990   -8.3440  -11.8977 C.3     1  UNL1        0.0747
      9 I         -25.2180   -6.2611  -12.3824 I       1  UNL1       -0.0705
     10 C         -24.2844   -8.7237  -10.9155 C.ar    1  UNL1       -0.0137
     11 C         -24.3841   -8.3075   -9.5780 C.ar    1  UNL1        0.0328
     12 C         -23.4131   -8.6805   -8.6414 C.ar    1  UNL1        0.1334
     13 O         -23.5120   -8.2680   -7.3144 O.3     1  UNL1       -0.5055
     14 C         -22.3386   -9.4800   -9.0349 C.ar    1  UNL1        0.0363
     15 C         -22.2169   -9.9003  -10.3611 C.ar    1  UNL1       -0.0015
     16 C         -23.1704   -9.5077  -11.3194 C.ar    1  UNL1       -0.0255
     17 C         -23.1199   -9.9043  -12.7775 C.3     1  UNL1        0.0221
     18 C         -21.9296  -10.7751  -13.3227 C.3     1  UNL1        0.0045
     19 C         -22.2263  -12.2689  -13.6066 C.3     1  UNL1        0.0035
     20 C         -23.6742  -12.5691  -14.1378 C.3     1  UNL1        0.0333
     21 C         -24.3801  -13.4776  -13.0700 C.3     1  UNL1        0.0033
     22 H         -22.7125  -14.8193  -15.1515 H       1  UNL1        0.2114
     23 H         -24.2802   -7.6892   -6.9952 H       1  UNL1        0.2922
     24 C         -22.0793  -12.2232  -17.3353 C.1     1  UNL1       -0.0119
     25 C         -22.8517  -12.6821  -16.5313 C.1     1  UNL1       -0.0526
@<TRIPOS>BOND
     1    24    25    3
     2     1    25    1
     3     1     2    1
     4     1     3    1
     5     3     4    1
     6     4     5    1
     7     5     6    1
     8     6     7    1
     9     7     8    1
    10     8     9    1
    11     8    10    1
    12    10    11   ar
    13    11    12   ar
    14    12    13    1
    15    12    14   ar
    16    14    15   ar
    17    15    16   ar
    18    16    17    1
    19    17    18    1
    20    18    19    1
    21    19    20    1
    22    20    21    1
    23    20     1    1
    24    20     5    1
    25    17     6    1
    26    16    10   ar
    27     2    22    1
    28    13    23    1
@<TRIPOS>MOLECULE
*****
 25 28 0 0 0
SMALL
GASTEIGER

@<TRIPOS>ATOM
      1 C         -23.0864  -12.7138  -16.4210 C.3     1  UNL1        0.1420
      2 O         -23.1661  -12.7468  -17.8260 O.3     1  UNL1       -0.3753
      3 C         -21.5982  -12.6252  -15.9762 C.3     1  UNL1        0.0395
      4 C         -21.5391  -11.6771  -14.7596 C.3     1  UNL1        0.0036
      5 C         -23.0007  -11.4014  -14.4406 C.3     1  UNL1        0.0036
      6 C         -23.3973  -10.1557  -13.6472 C.3     1  UNL1        0.0052
      7 C         -22.5818   -9.8838  -12.3748 C.3     1  UNL1        0.0152
      8 C         -23.1498   -8.6634  -11.5785 C.3     1  UNL1        0.0747
      9 I         -23.3024   -9.1450   -9.4926 I       1  UNL1       -0.0705
     10 C         -24.5001   -8.1218  -12.0629 C.ar    1  UNL1       -0.0137
     11 C         -24.8845   -6.8223  -11.6949 C.ar    1  UNL1        0.0328
     12 C         -26.0850   -6.2749  -12.1621 C.ar    1  UNL1        0.1334
     13 O         -26.4663   -4.9856  -11.7974 O.3     1  UNL1       -0.5055
     14 C         -26.9065   -7.0217  -13.0084 C.ar    1  UNL1        0.0363
     15 C         -26.5463   -8.3181  -13.3823 C.ar    1  UNL1       -0.0015
     16 C         -25.3563   -8.8914  -12.8956 C.ar    1  UNL1       -0.0255
     17 C         -24.8865  -10.2875  -13.2364 C.3     1  UNL1        0.0221
     18 C         -25.7609  -11.2174  -14.1546 C.3     1  UNL1        0.0045
     19 C         -25.2827  -11.4099  -15.6156 C.3     1  UNL1        0.0035
     20 C         -23.7233  -11.4263  -15.8072 C.3     1  UNL1        0.0333
     21 C         -23.3553  -10.1986  -16.7134 C.3     1  UNL1        0.0033
     22 H         -24.1295  -12.7435  -18.0691 H       1  UNL1        0.2114
     23 H         -25.8923   -4.4159  -11.1868 H       1  UNL1        0.2922
     24 C         -24.1695  -14.9701  -15.4325 C.1     1  UNL1       -0.0119
     25 C         -23.6845  -13.9584  -15.8743 C.1     1  UNL1       -0.0526
@<TRIPOS>BOND
     1    24    25    3
     2     1    25    1
     3     1     2    1
     4     1     3    1
     5     3     4    1
     6     4     5    1
     7     5     6    1
     8     6     7    1
     9     7     8    1
    10     8     9    1
    11     8    10    1
    12    10    11   ar
    13    11    12   ar
    14    12    13    1
    15    12    14   ar
    16    14    15   ar
    17    15    16   ar
    18    16    17    1
    19    17    18    1
    20    18    19    1
    21    19    20    1
    22    20    21    1
    23    20     1    1
    24    20     5    1
    25    17     6    1
    26    16    10   ar
    27     2    22    1
    28    13    23    1
@<TRIPOS>MOLECULE
*****
 25 28 0 0 0
SMALL
GASTEIGER

@<TRIPOS>ATOM
      1 C         -22.4856   -7.4867  -11.2926 C.3     1  UNL1        0.1420
      2 O         -22.3077   -7.5397   -9.8973 O.3     1  UNL1       -0.3753
      3 C         -21.1171   -7.2483  -11.9930 C.3     1  UNL1        0.0395
      4 C         -21.1046   -8.1035  -13.2779 C.3     1  UNL1        0.0036
      5 C         -22.5197   -8.6552  -13.3627 C.3     1  UNL1        0.0036
      6 C         -22.8109   -9.9150  -14.1791 C.3     1  UNL1        0.0052
      7 C         -22.2092   -9.9523  -15.5914 C.3     1  UNL1        0.0152
      8 C         -22.6709  -11.2222  -16.3790 C.3     1  UNL1        0.0747
      9 I         -23.2976  -10.6799  -18.3587 I       1  UNL1       -0.0705
     10 C         -23.7786  -12.0507  -15.7172 C.ar    1  UNL1       -0.0137
     11 C         -23.9686  -13.3816  -16.1229 C.ar    1  UNL1        0.0328
     12 C         -24.9340  -14.1842  -15.5041 C.ar    1  UNL1        0.1334
     13 O         -25.1224  -15.5047  -15.9062 O.3     1  UNL1       -0.5055
     14 C         -25.7115  -13.6630  -14.4685 C.ar    1  UNL1        0.0363
     15 C         -25.5431  -12.3403  -14.0532 C.ar    1  UNL1       -0.0015
     16 C         -24.5964  -11.5135  -14.6869 C.ar    1  UNL1       -0.0255
     17 C         -24.3476  -10.0694  -14.3145 C.3     1  UNL1        0.0221
     18 C         -25.1978   -9.3834  -13.1835 C.3     1  UNL1        0.0045
     19 C         -24.5024   -9.1695  -11.8158 C.3     1  UNL1        0.0035
     20 C         -22.9670   -8.8452  -11.8949 C.3     1  UNL1        0.0333
     21 C         -22.2089  -10.0152  -11.1736 C.3     1  UNL1        0.0033
     22 H         -23.1905   -7.7511   -9.4931 H       1  UNL1        0.2114
     23 H         -24.5735  -15.9148  -16.6529 H       1  UNL1        0.2922
     24 C         -24.1440   -5.4523  -11.8859 C.1     1  UNL1       -0.0119
     25 C         -23.4020   -6.3647  -11.6201 C.1     1  UNL1       -0.0526
@<TRIPOS>BOND
     1    24    25    3
     2     1    25    1
     3     1     2    1
     4     1     3    1
     5     3     4    1
     6     4     5    1
     7     5     6    1
     8     6     7    1
     9     7     8    1
    10     8     9    1
    11     8    10    1
    12    10    11   ar
    13    11    12   ar
    14    12    13    1
    15    12    14   ar
    16    14    15   ar
    17    15    16   ar
    18    16    17    1
    19    17    18    1
    20    18    19    1
    21    19    20    1
    22    20    21    1
    23    20     1    1
    24    20     5    1
    25    17     6    1
    26    16    10   ar
    27     2    22    1
    28    13    23    1
@<TRIPOS>MOLECULE
*****
 25 28 0 0 0
SMALL
GASTEIGER

@<TRIPOS>ATOM
      1 C         -25.8898   -6.9415  -12.0595 C.3     1  UNL1        0.1420
      2 O         -25.3852   -5.6531  -11.8010 O.3     1  UNL1       -0.3753
      3 C         -26.7125   -6.9338  -13.3798 C.3     1  UNL1        0.0395
      4 C         -26.4136   -8.2582  -14.1139 C.3     1  UNL1        0.0036
      5 C         -25.5816   -9.0489  -13.1156 C.3     1  UNL1        0.0036
      6 C         -24.6722  -10.1820  -13.5927 C.3     1  UNL1        0.0052
      7 C         -25.3051  -11.1828  -14.5702 C.3     1  UNL1        0.0152
      8 C         -24.3318  -12.3637  -14.8935 C.3     1  UNL1        0.0747
      9 I         -25.3686  -14.2379  -14.7569 I       1  UNL1       -0.0705
     10 C         -23.0626  -12.4349  -14.0360 C.ar    1  UNL1       -0.0137
     11 C         -21.9677  -13.1815  -14.5005 C.ar    1  UNL1        0.0328
     12 C         -20.7742  -13.2255  -13.7707 C.ar    1  UNL1        0.1334
     13 O         -19.6877  -13.9658  -14.2315 O.3     1  UNL1       -0.5055
     14 C         -20.6647  -12.5158  -12.5736 C.ar    1  UNL1        0.0363
     15 C         -21.7432  -11.7717  -12.0904 C.ar    1  UNL1       -0.0015
     16 C         -22.9589  -11.7429  -12.7995 C.ar    1  UNL1       -0.0255
     17 C         -24.1825  -10.9748  -12.3536 C.3     1  UNL1        0.0221
     18 C         -24.1673  -10.1728  -11.0011 C.3     1  UNL1        0.0045
     19 C         -24.0465   -8.6316  -11.1013 C.3     1  UNL1        0.0035
     20 C         -24.7653   -7.9883  -12.3416 C.3     1  UNL1        0.0333
     21 C         -23.6547   -7.3128  -13.2214 C.3     1  UNL1        0.0033
     22 H         -24.8201   -5.7133  -10.9860 H       1  UNL1        0.2114
     23 H         -19.7328  -14.4904  -15.0974 H       1  UNL1        0.2922
     24 C         -27.4915   -7.6795  -10.0269 C.1     1  UNL1       -0.0119
     25 C         -26.7741   -7.3475  -10.9374 C.1     1  UNL1       -0.0526
@<TRIPOS>BOND
     1    24    25    3
     2     1    25    1
     3     1     2    1
     4     1     3    1
     5     3     4    1
     6     4     5    1
     7     5     6    1
     8     6     7    1
     9     7     8    1
    10     8     9    1
    11     8    10    1
    12    10    11   ar
    13    11    12   ar
    14    12    13    1
    15    12    14   ar
    16    14    15   ar
    17    15    16   ar
    18    16    17    1
    19    17    18    1
    20    18    19    1
    21    19    20    1
    22    20    21    1
    23    20     1    1
    24    20     5    1
    25    17     6    1
    26    16    10   ar
    27     2    22    1
    28    13    23    1
