@<TRIPOS>MOLECULE
*****
 52 57 0 0 0
SMALL
GASTEIGER

@<TRIPOS>ATOM
      1 C          59.8513   87.9764    7.6621 C.ar    1  UNL1        0.0502
      2 C          60.5461   88.2709    8.8475 C.ar    1  UNL1        0.0148
      3 C          60.4555   87.4234    9.9543 C.ar    1  UNL1        0.0080
      4 C          59.6589   86.2679    9.9072 C.ar    1  UNL1        0.0808
      5 C          58.9726   85.9616    8.7170 C.ar    1  UNL1        0.1457
      6 F          58.2472   84.8213    8.6019 F       1  UNL1       -0.2040
      7 C          59.0661   86.8109    7.6101 C.ar    1  UNL1        0.0443
      8 N          60.0709   90.4356    4.1470 N.pl3   1  UNL1       -0.3041
      9 C          58.7651   90.0279    4.6887 C.3     1  UNL1        0.1122
     10 C          58.8367   89.7698    6.1970 C.3     1  UNL1        0.1122
     11 N          59.9428   88.8562    6.5189 N.pl3   1  UNL1       -0.3040
     12 C          61.1844   88.8999    5.7305 C.3     1  UNL1        0.1122
     13 C          61.2949   90.1987    4.9260 C.3     1  UNL1        0.1122
     14 C          60.2512   92.5328    0.4179 C.ar    1  UNL1       -0.0185
     15 C          59.0253   92.0840    0.9487 C.ar    1  UNL1       -0.0031
     16 C          58.9681   91.4026    2.1612 C.ar    1  UNL1        0.0142
     17 C          60.1350   91.1420    2.8877 C.ar    1  UNL1        0.0479
     18 C          61.3652   91.5848    2.3767 C.ar    1  UNL1        0.0181
     19 C          61.4492   92.2770    1.1494 C.ar    1  UNL1        0.0687
     20 C          62.8112   92.7293    0.6501 C.3     1  UNL1        0.4183
     21 F          63.6503   93.0979    1.6881 F       1  UNL1       -0.1659
     22 F          62.6640   93.8240   -0.1828 F       1  UNL1       -0.1659
     23 F          63.4227   91.6976   -0.0397 F       1  UNL1       -0.1659
     24 C          58.8005   93.5805   -1.3666 C.3     1  UNL1        0.0047
     25 C          60.2358   93.2743   -0.9190 C.3     1  UNL1        0.0223
     26 C          60.9930   92.4878   -1.9971 C.3     1  UNL1        0.0047
     27 C          59.5707   85.3920   11.0979 C.2     1  UNL1        0.2483
     28 O          58.6369   85.5706   11.9273 O.2     1  UNL1       -0.2701
     29 N          60.5065   84.3196   11.2956 N.am    1  UNL1       -0.2945
     30 H          61.0769   84.0147   10.4760 H       1  UNL1        0.1501
     31 C          60.4517   83.4469   12.4744 C.3     1  UNL1        0.1535
     32 C          61.0461   84.1392   13.6745 C.2     1  UNL1        0.2443
     33 O          60.9846   83.5897   14.8087 O.2     1  UNL1       -0.2730
     34 N          61.7578   85.3748   13.5031 N.am    1  UNL1       -0.2825
     35 H          62.0310   85.6482   12.5319 H       1  UNL1        0.1549
     36 C          62.2236   86.1921   14.5900 C.ar    1  UNL1        0.0535
     37 C          62.7516   87.4620   14.3200 C.ar    1  UNL1        0.0353
     38 C          63.1861   88.2688   15.3743 C.ar    1  UNL1        0.1002
     39 N          63.0815   87.8302   16.6565 N.ar    1  UNL1       -0.2422
     40 C          62.5556   86.6119   16.9513 C.ar    1  UNL1        0.1002
     41 C          62.1103   85.7731   15.9266 C.ar    1  UNL1        0.0353
     42 C          59.0126   82.9623   12.7477 C.3     1  UNL1        0.0569
     43 C          58.5454   81.8938   11.7957 C.ar    1  UNL1       -0.0017
     44 C          58.0678   82.0880   10.5021 C.ar    1  UNL1        0.0681
     45 N          57.7751   80.9018    9.9227 N.ar    1  UNL1       -0.3523
     46 C          58.0628   79.9601   10.8379 C.ar    1  UNL1        0.0563
     47 C          57.9321   78.5791   10.6980 C.ar    1  UNL1        0.0170
     48 C          58.2988   77.7699   11.7889 C.ar    1  UNL1        0.0015
     49 C          58.7803   78.3526   12.9820 C.ar    1  UNL1        0.0001
     50 C          58.9000   79.7494   13.0952 C.ar    1  UNL1        0.0012
     51 C          58.5336   80.5262   11.9953 C.ar    1  UNL1        0.0131
     52 H          57.4056   80.7520    8.9576 H       1  UNL1        0.1660
@<TRIPOS>BOND
     1    24    25    1
     2    25    26    1
     3    25    14    1
     4    14    15   ar
     5    15    16   ar
     6    16    17   ar
     7    17     8    1
     8     8     9    1
     9     9    10    1
    10    10    11    1
    11    11     1    1
    12     1     2   ar
    13     2     3   ar
    14     3     4   ar
    15     4    27    1
    16    27    28    2
    17    27    29   am
    18    29    31    1
    19    31    42    1
    20    42    43    1
    21    43    44   ar
    22    44    45   ar
    23    45    46   ar
    24    46    47   ar
    25    47    48   ar
    26    48    49   ar
    27    49    50   ar
    28    50    51   ar
    29    31    32    1
    30    32    33    2
    31    32    34   am
    32    34    36    1
    33    36    37   ar
    34    37    38   ar
    35    38    39   ar
    36    39    40   ar
    37    40    41   ar
    38     4     5   ar
    39     5     6    1
    40     5     7   ar
    41    11    12    1
    42    12    13    1
    43    17    18   ar
    44    18    19   ar
    45    19    20    1
    46    20    21    1
    47    20    22    1
    48    20    23    1
    49    19    14   ar
    50    13     8    1
    51     7     1   ar
    52    51    43   ar
    53    41    36   ar
    54    51    46   ar
    55    29    30    1
    56    45    52    1
    57    34    35    1
@<TRIPOS>MOLECULE
*****
 52 57 0 0 0
SMALL
GASTEIGER

@<TRIPOS>ATOM
      1 C          59.5964   87.8114    7.5010 C.ar    1  UNL1        0.0502
      2 C          60.1815   88.0780    8.7505 C.ar    1  UNL1        0.0148
      3 C          59.9905   87.2069    9.8257 C.ar    1  UNL1        0.0080
      4 C          59.2002   86.0550    9.6816 C.ar    1  UNL1        0.0808
      5 C          58.6239   85.7768    8.4279 C.ar    1  UNL1        0.1457
      6 F          57.9107   84.6414    8.2229 F       1  UNL1       -0.2040
      7 C          58.8179   86.6497    7.3529 C.ar    1  UNL1        0.0443
      8 N          60.1166   90.3510    4.0760 N.pl3   1  UNL1       -0.3041
      9 C          58.7667   90.0282    4.5639 C.3     1  UNL1        0.1122
     10 C          58.7688   89.7202    6.0645 C.3     1  UNL1        0.1122
     11 N          59.7916   88.7155    6.3904 N.pl3   1  UNL1       -0.3040
     12 C          61.0583   88.6880    5.6422 C.3     1  UNL1        0.1122
     13 C          61.2929   89.9980    4.8840 C.3     1  UNL1        0.1122
     14 C          60.5771   92.5386    0.4237 C.ar    1  UNL1       -0.0185
     15 C          59.3167   92.0677    0.8429 C.ar    1  UNL1       -0.0031
     16 C          59.1684   91.3569    2.0305 C.ar    1  UNL1        0.0142
     17 C          60.2753   91.0880    2.8428 C.ar    1  UNL1        0.0479
     18 C          61.5384   91.5525    2.4435 C.ar    1  UNL1        0.0181
     19 C          61.7145   92.2745    1.2435 C.ar    1  UNL1        0.0687
     20 C          63.1079   92.7493    0.8668 C.3     1  UNL1        0.4183
     21 F          63.8486   93.1221    1.9757 F       1  UNL1       -0.1659
     22 F          63.0176   93.8478    0.0307 F       1  UNL1       -0.1659
     23 F          63.7916   91.7311    0.2264 F       1  UNL1       -0.1659
     24 C          59.2841   93.8338   -1.3192 C.3     1  UNL1        0.0047
     25 C          60.6624   93.3119   -0.8925 C.3     1  UNL1        0.0223
     26 C          61.2935   92.4552   -1.9980 C.3     1  UNL1        0.0047
     27 C          59.0040   85.1538   10.8400 C.2     1  UNL1        0.2483
     28 O          58.0797   84.2957   10.8045 O.2     1  UNL1       -0.2701
     29 N          59.8770   85.2168   11.9797 N.am    1  UNL1       -0.2945
     30 H          60.7854   85.7192   11.8691 H       1  UNL1        0.1501
     31 C          59.6954   84.3466   13.1477 C.3     1  UNL1        0.1535
     32 C          58.9591   83.0889   12.7622 C.2     1  UNL1        0.2443
     33 O          57.8035   82.8740   13.2212 O.2     1  UNL1       -0.2730
     34 N          59.5396   82.1897   11.8044 N.am    1  UNL1       -0.2825
     35 H          60.3492   82.5355   11.2410 H       1  UNL1        0.1549
     36 C          59.0007   80.8955   11.4869 C.ar    1  UNL1        0.0535
     37 C          59.1161   79.8539   12.4176 C.ar    1  UNL1        0.0353
     38 C          58.5756   78.6001   12.1229 C.ar    1  UNL1        0.1002
     39 N          57.9265   78.3968   10.9460 N.ar    1  UNL1       -0.2422
     40 C          57.7812   79.3924   10.0322 C.ar    1  UNL1        0.1002
     41 C          58.3079   80.6613   10.2869 C.ar    1  UNL1        0.0353
     42 C          61.0436   84.0343   13.8300 C.3     1  UNL1        0.0569
     43 C          61.8363   82.9597   13.1349 C.ar    1  UNL1       -0.0017
     44 C          62.1035   81.6823   13.6206 C.ar    1  UNL1        0.0681
     45 N          62.8105   80.9699   12.7144 N.ar    1  UNL1       -0.3523
     46 C          62.9928   81.7851   11.6612 C.ar    1  UNL1        0.0563
     47 C          63.6615   81.4927   10.4732 C.ar    1  UNL1        0.0170
     48 C          63.7302   82.4991    9.4924 C.ar    1  UNL1        0.0015
     49 C          63.1379   83.7610    9.7193 C.ar    1  UNL1        0.0001
     50 C          62.4710   84.0283   10.9285 C.ar    1  UNL1        0.0012
     51 C          62.4145   83.0094   11.8806 C.ar    1  UNL1        0.0131
     52 H          63.1413   79.9845   12.8146 H       1  UNL1        0.1660
@<TRIPOS>BOND
     1    24    25    1
     2    25    26    1
     3    25    14    1
     4    14    15   ar
     5    15    16   ar
     6    16    17   ar
     7    17     8    1
     8     8     9    1
     9     9    10    1
    10    10    11    1
    11    11     1    1
    12     1     2   ar
    13     2     3   ar
    14     3     4   ar
    15     4    27    1
    16    27    28    2
    17    27    29   am
    18    29    31    1
    19    31    42    1
    20    42    43    1
    21    43    44   ar
    22    44    45   ar
    23    45    46   ar
    24    46    47   ar
    25    47    48   ar
    26    48    49   ar
    27    49    50   ar
    28    50    51   ar
    29    31    32    1
    30    32    33    2
    31    32    34   am
    32    34    36    1
    33    36    37   ar
    34    37    38   ar
    35    38    39   ar
    36    39    40   ar
    37    40    41   ar
    38     4     5   ar
    39     5     6    1
    40     5     7   ar
    41    11    12    1
    42    12    13    1
    43    17    18   ar
    44    18    19   ar
    45    19    20    1
    46    20    21    1
    47    20    22    1
    48    20    23    1
    49    19    14   ar
    50    13     8    1
    51     7     1   ar
    52    51    43   ar
    53    41    36   ar
    54    51    46   ar
    55    29    30    1
    56    45    52    1
    57    34    35    1
@<TRIPOS>MOLECULE
*****
 52 57 0 0 0
SMALL
GASTEIGER

@<TRIPOS>ATOM
      1 C          59.8734   88.3329    7.3276 C.ar    1  UNL1        0.0502
      2 C          60.4350   88.8158    8.5219 C.ar    1  UNL1        0.0148
      3 C          60.3061   88.0943    9.7111 C.ar    1  UNL1        0.0080
      4 C          59.6025   86.8792    9.7380 C.ar    1  UNL1        0.0808
      5 C          59.0506   86.3849    8.5412 C.ar    1  UNL1        0.1457
      6 F          58.4228   85.1831    8.5049 F       1  UNL1       -0.2040
      7 C          59.1823   87.1084    7.3519 C.ar    1  UNL1        0.0443
      8 N          60.2054   90.3946    3.5739 N.pl3   1  UNL1       -0.3041
      9 C          58.8821   90.0909    4.1408 C.3     1  UNL1        0.1122
     10 C          58.9328   89.9928    5.6687 C.3     1  UNL1        0.1122
     11 N          60.0042   89.0822    6.0986 N.pl3   1  UNL1       -0.3040
     12 C          61.2528   89.0002    5.3243 C.3     1  UNL1        0.1122
     13 C          61.4143   90.2013    4.3878 C.3     1  UNL1        0.1122
     14 C          60.5064   92.0670   -0.3567 C.ar    1  UNL1       -0.0185
     15 C          61.6276   91.9839    0.4931 C.ar    1  UNL1       -0.0031
     16 C          61.5283   91.4398    1.7705 C.ar    1  UNL1        0.0142
     17 C          60.3037   90.9603    2.2475 C.ar    1  UNL1        0.0479
     18 C          59.1765   91.0311    1.4138 C.ar    1  UNL1        0.0181
     19 C          59.2514   91.5790    0.1152 C.ar    1  UNL1        0.0687
     20 C          57.9949   91.6278   -0.7378 C.3     1  UNL1        0.4183
     21 F          57.5151   92.9184   -0.8850 F       1  UNL1       -0.1659
     22 F          56.9985   90.8719   -0.1464 F       1  UNL1       -0.1659
     23 F          58.2675   91.1332   -2.0008 F       1  UNL1       -0.1659
     24 C          62.1439   93.1209   -1.9675 C.3     1  UNL1        0.0047
     25 C          60.6919   92.6771   -1.7462 C.3     1  UNL1        0.0223
     26 C          59.7192   93.8417   -1.9738 C.3     1  UNL1        0.0047
     27 C          59.4704   86.1394   11.0140 C.2     1  UNL1        0.2483
     28 O          58.9627   84.9844   11.0077 O.2     1  UNL1       -0.2701
     29 N          59.9506   86.7022   12.2459 N.am    1  UNL1       -0.2945
     30 H          60.6099   87.5095   12.1873 H       1  UNL1        0.1501
     31 C          59.8180   85.9977   13.5267 C.3     1  UNL1        0.1535
     32 C          60.8001   84.8570   13.6084 C.2     1  UNL1        0.2443
     33 O          60.7623   84.0671   14.5917 O.2     1  UNL1       -0.2730
     34 N          61.7109   84.6230   12.5227 N.am    1  UNL1       -0.2825
     35 H          61.5241   85.1108   11.6174 H       1  UNL1        0.1549
     36 C          62.7854   83.6692   12.5657 C.ar    1  UNL1        0.0535
     37 C          63.4631   83.4487   13.7726 C.ar    1  UNL1        0.0353
     38 C          64.4940   82.5076   13.8249 C.ar    1  UNL1        0.1002
     39 N          64.8263   81.7977   12.7145 N.ar    1  UNL1       -0.2422
     40 C          64.1744   81.9749   11.5349 C.ar    1  UNL1        0.1002
     41 C          63.1381   82.9070   11.4389 C.ar    1  UNL1        0.0353
     42 C          59.9657   86.9667   14.7183 C.3     1  UNL1        0.0569
     43 C          61.3963   87.2855   15.0621 C.ar    1  UNL1       -0.0017
     44 C          62.0700   86.9202   16.2248 C.ar    1  UNL1        0.0681
     45 N          63.3541   87.3415   16.1798 N.ar    1  UNL1       -0.3523
     46 C          63.4980   87.9698   15.0001 C.ar    1  UNL1        0.0563
     47 C          64.6526   88.5686   14.4979 C.ar    1  UNL1        0.0170
     48 C          64.5824   89.1703   13.2281 C.ar    1  UNL1        0.0015
     49 C          63.3732   89.1618   12.4982 C.ar    1  UNL1        0.0001
     50 C          62.2234   88.5514   13.0308 C.ar    1  UNL1        0.0012
     51 C          62.3244   87.9585   14.2901 C.ar    1  UNL1        0.0131
     52 H          64.0841   87.2006   16.9130 H       1  UNL1        0.1660
@<TRIPOS>BOND
     1    24    25    1
     2    25    26    1
     3    25    14    1
     4    14    15   ar
     5    15    16   ar
     6    16    17   ar
     7    17     8    1
     8     8     9    1
     9     9    10    1
    10    10    11    1
    11    11     1    1
    12     1     2   ar
    13     2     3   ar
    14     3     4   ar
    15     4    27    1
    16    27    28    2
    17    27    29   am
    18    29    31    1
    19    31    42    1
    20    42    43    1
    21    43    44   ar
    22    44    45   ar
    23    45    46   ar
    24    46    47   ar
    25    47    48   ar
    26    48    49   ar
    27    49    50   ar
    28    50    51   ar
    29    31    32    1
    30    32    33    2
    31    32    34   am
    32    34    36    1
    33    36    37   ar
    34    37    38   ar
    35    38    39   ar
    36    39    40   ar
    37    40    41   ar
    38     4     5   ar
    39     5     6    1
    40     5     7   ar
    41    11    12    1
    42    12    13    1
    43    17    18   ar
    44    18    19   ar
    45    19    20    1
    46    20    21    1
    47    20    22    1
    48    20    23    1
    49    19    14   ar
    50    13     8    1
    51     7     1   ar
    52    51    43   ar
    53    41    36   ar
    54    51    46   ar
    55    29    30    1
    56    45    52    1
    57    34    35    1
@<TRIPOS>MOLECULE
*****
 52 57 0 0 0
SMALL
GASTEIGER

@<TRIPOS>ATOM
      1 C          59.5827   87.3704    7.6048 C.ar    1  UNL1        0.0502
      2 C          58.8597   86.1875    7.3750 C.ar    1  UNL1        0.0148
      3 C          58.6924   85.2469    8.3943 C.ar    1  UNL1        0.0080
      4 C          59.2539   85.4600    9.6636 C.ar    1  UNL1        0.0808
      5 C          59.9668   86.6501    9.9022 C.ar    1  UNL1        0.1457
      6 F          60.4674   86.9307   11.1312 F       1  UNL1       -0.2040
      7 C          60.1316   87.5906    8.8806 C.ar    1  UNL1        0.0443
      8 N          60.0556   90.1116    4.3316 N.pl3   1  UNL1       -0.3041
      9 C          58.7125   89.6965    4.7656 C.3     1  UNL1        0.1122
     10 C          58.6938   89.3095    6.2476 C.3     1  UNL1        0.1122
     11 N          59.7584   88.3410    6.5483 N.pl3   1  UNL1       -0.3040
     12 C          61.0427   88.4163    5.8340 C.3     1  UNL1        0.1122
     13 C          61.2284   89.7750    5.1516 C.3     1  UNL1        0.1122
     14 C          60.4927   92.5116    0.8123 C.ar    1  UNL1       -0.0185
     15 C          59.2277   92.0629    1.2418 C.ar    1  UNL1       -0.0031
     16 C          59.0871   91.2830    2.3862 C.ar    1  UNL1        0.0142
     17 C          60.2063   90.9202    3.1431 C.ar    1  UNL1        0.0479
     18 C          61.4744   91.3610    2.7329 C.ar    1  UNL1        0.0181
     19 C          61.6429   92.1519    1.5760 C.ar    1  UNL1        0.0687
     20 C          63.0422   92.5966    1.1847 C.3     1  UNL1        0.4183
     21 F          63.0432   93.8441    0.5836 F       1  UNL1       -0.1659
     22 F          63.5855   91.6950    0.2869 F       1  UNL1       -0.1659
     23 F          63.8415   92.6713    2.3115 F       1  UNL1       -0.1659
     24 C          59.1764   93.8418   -0.8861 C.3     1  UNL1        0.0047
     25 C          60.5692   93.3645   -0.4543 C.3     1  UNL1        0.0223
     26 C          61.2687   92.6070   -1.5905 C.3     1  UNL1        0.0047
     27 C          59.0718   84.4421   10.7235 C.2     1  UNL1        0.2483
     28 O          60.0683   83.7754   11.1165 O.2     1  UNL1       -0.2701
     29 N          57.7882   84.2366   11.3360 N.am    1  UNL1       -0.2945
     30 H          57.0632   84.9765   11.2058 H       1  UNL1        0.1501
     31 C          57.5762   83.2239   12.3770 C.3     1  UNL1        0.1535
     32 C          58.5532   82.0870   12.2172 C.2     1  UNL1        0.2443
     33 O          59.4444   81.8995   13.0907 O.2     1  UNL1       -0.2730
     34 N          58.4060   81.1710   11.1207 N.am    1  UNL1       -0.2825
     35 H          57.5050   81.1871   10.5911 H       1  UNL1        0.1549
     36 C          59.3663   80.1547   10.7873 C.ar    1  UNL1        0.0535
     37 C          60.3215   80.4088    9.7937 C.ar    1  UNL1        0.0353
     38 C          61.2702   79.4325    9.4806 C.ar    1  UNL1        0.1002
     39 N          61.2765   78.2487   10.1485 N.ar    1  UNL1       -0.2422
     40 C          60.3756   77.9808   11.1305 C.ar    1  UNL1        0.1002
     41 C          59.4090   78.9293   11.4740 C.ar    1  UNL1        0.0353
     42 C          57.6471   83.8454   13.7875 C.3     1  UNL1        0.0569
     43 C          58.4106   85.1419   13.8373 C.ar    1  UNL1       -0.0017
     44 C          57.9008   86.4135   13.5878 C.ar    1  UNL1        0.0681
     45 N          58.8603   87.3503   13.7616 N.ar    1  UNL1       -0.3523
     46 C          59.9713   86.6828   14.1181 C.ar    1  UNL1        0.0563
     47 C          61.2226   87.2227   14.4128 C.ar    1  UNL1        0.0170
     48 C          62.2537   86.3353   14.7716 C.ar    1  UNL1        0.0015
     49 C          62.0144   84.9444   14.8251 C.ar    1  UNL1        0.0001
     50 C          60.7420   84.4279   14.5209 C.ar    1  UNL1        0.0012
     51 C          59.7377   85.3323   14.1733 C.ar    1  UNL1        0.0131
     52 H          58.7540   88.3827   13.6463 H       1  UNL1        0.1660
@<TRIPOS>BOND
     1    24    25    1
     2    25    26    1
     3    25    14    1
     4    14    15   ar
     5    15    16   ar
     6    16    17   ar
     7    17     8    1
     8     8     9    1
     9     9    10    1
    10    10    11    1
    11    11     1    1
    12     1     2   ar
    13     2     3   ar
    14     3     4   ar
    15     4    27    1
    16    27    28    2
    17    27    29   am
    18    29    31    1
    19    31    42    1
    20    42    43    1
    21    43    44   ar
    22    44    45   ar
    23    45    46   ar
    24    46    47   ar
    25    47    48   ar
    26    48    49   ar
    27    49    50   ar
    28    50    51   ar
    29    31    32    1
    30    32    33    2
    31    32    34   am
    32    34    36    1
    33    36    37   ar
    34    37    38   ar
    35    38    39   ar
    36    39    40   ar
    37    40    41   ar
    38     4     5   ar
    39     5     6    1
    40     5     7   ar
    41    11    12    1
    42    12    13    1
    43    17    18   ar
    44    18    19   ar
    45    19    20    1
    46    20    21    1
    47    20    22    1
    48    20    23    1
    49    19    14   ar
    50    13     8    1
    51     7     1   ar
    52    51    43   ar
    53    41    36   ar
    54    51    46   ar
    55    29    30    1
    56    45    52    1
    57    34    35    1
@<TRIPOS>MOLECULE
*****
 52 57 0 0 0
SMALL
GASTEIGER

@<TRIPOS>ATOM
      1 C          60.1044   88.1196    7.2915 C.ar    1  UNL1        0.0502
      2 C          59.4360   86.8841    7.2537 C.ar    1  UNL1        0.0148
      3 C          59.5455   85.9834    8.3159 C.ar    1  UNL1        0.0080
      4 C          60.3353   86.2905    9.4357 C.ar    1  UNL1        0.0808
      5 C          60.9952   87.5329    9.4839 C.ar    1  UNL1        0.1457
      6 F          61.7125   87.9016   10.5745 F       1  UNL1       -0.2040
      7 C          60.8827   88.4332    8.4199 C.ar    1  UNL1        0.0443
      8 N          59.7241   90.7268    3.8989 N.pl3   1  UNL1       -0.3041
      9 C          58.5258   90.1766    4.5518 C.3     1  UNL1        0.1122
     10 C          58.7819   89.8665    6.0299 C.3     1  UNL1        0.1122
     11 N          59.9934   89.0490    6.1901 N.pl3   1  UNL1       -0.3040
     12 C          61.1342   89.2409    5.2807 C.3     1  UNL1        0.1122
     13 C          61.0409   90.5754    4.5346 C.3     1  UNL1        0.1122
     14 C          59.3328   92.9801    0.2787 C.ar    1  UNL1       -0.0185
     15 C          60.0080   93.5037    1.3994 C.ar    1  UNL1       -0.0031
     16 C          60.1347   92.7700    2.5755 C.ar    1  UNL1        0.0142
     17 C          59.5889   91.4858    2.6764 C.ar    1  UNL1        0.0479
     18 C          58.9160   90.9459    1.5690 C.ar    1  UNL1        0.0181
     19 C          58.7737   91.6703    0.3659 C.ar    1  UNL1        0.0687
     20 C          58.0335   91.0303   -0.7966 C.3     1  UNL1        0.4183
     21 F          56.7707   91.5712   -0.9710 F       1  UNL1       -0.1659
     22 F          57.8838   89.6745   -0.5662 F       1  UNL1       -0.1659
     23 F          58.7421   91.2285   -1.9682 F       1  UNL1       -0.1659
     24 C          57.8434   93.7344   -1.6185 C.3     1  UNL1        0.0047
     25 C          59.2336   93.8443   -0.9786 C.3     1  UNL1        0.0223
     26 C          60.3336   93.4846   -1.9860 C.3     1  UNL1        0.0047
     27 C          60.4441   85.3137   10.5433 C.2     1  UNL1        0.2483
     28 O          59.5069   85.2267   11.3834 O.2     1  UNL1       -0.2701
     29 N          61.5794   84.4389   10.6463 N.am    1  UNL1       -0.2945
     30 H          62.1863   84.3285    9.8040 H       1  UNL1        0.1501
     31 C          61.7201   83.4729   11.7424 C.3     1  UNL1        0.1535
     32 C          61.8908   84.1866   13.0592 C.2     1  UNL1        0.2443
     33 O          61.4559   83.6578   14.1192 O.2     1  UNL1       -0.2730
     34 N          62.6273   85.4186   13.1107 N.am    1  UNL1       -0.2825
     35 H          63.2067   85.6741   12.2790 H       1  UNL1        0.1549
     36 C          62.7147   86.2553   14.2762 C.ar    1  UNL1        0.0535
     37 C          62.1991   85.7946   15.4953 C.ar    1  UNL1        0.0353
     38 C          62.3004   86.5949   16.6357 C.ar    1  UNL1        0.1002
     39 N          62.9110   87.8072   16.5660 N.ar    1  UNL1       -0.2422
     40 C          63.4383   88.2727   15.4028 C.ar    1  UNL1        0.1002
     41 C          63.3574   87.5045   14.2386 C.ar    1  UNL1        0.0353
     42 C          60.5350   82.4855   11.7760 C.3     1  UNL1        0.0569
     43 C          60.4698   81.5810   10.5744 C.ar    1  UNL1       -0.0017
     44 C          61.3810   80.5829   10.2384 C.ar    1  UNL1        0.0681
     45 N          60.9881   79.9425    9.1141 N.ar    1  UNL1       -0.3523
     46 C          59.8377   80.5266    8.7364 C.ar    1  UNL1        0.0563
     47 C          59.0493   80.2030    7.6330 C.ar    1  UNL1        0.0170
     48 C          57.8723   80.9453    7.4253 C.ar    1  UNL1        0.0015
     49 C          57.5152   81.9836    8.3137 C.ar    1  UNL1        0.0001
     50 C          58.3310   82.2890    9.4180 C.ar    1  UNL1        0.0012
     51 C          59.4894   81.5327    9.6013 C.ar    1  UNL1        0.0131
     52 H          61.4792   79.1514    8.6415 H       1  UNL1        0.1660
@<TRIPOS>BOND
     1    24    25    1
     2    25    26    1
     3    25    14    1
     4    14    15   ar
     5    15    16   ar
     6    16    17   ar
     7    17     8    1
     8     8     9    1
     9     9    10    1
    10    10    11    1
    11    11     1    1
    12     1     2   ar
    13     2     3   ar
    14     3     4   ar
    15     4    27    1
    16    27    28    2
    17    27    29   am
    18    29    31    1
    19    31    42    1
    20    42    43    1
    21    43    44   ar
    22    44    45   ar
    23    45    46   ar
    24    46    47   ar
    25    47    48   ar
    26    48    49   ar
    27    49    50   ar
    28    50    51   ar
    29    31    32    1
    30    32    33    2
    31    32    34   am
    32    34    36    1
    33    36    37   ar
    34    37    38   ar
    35    38    39   ar
    36    39    40   ar
    37    40    41   ar
    38     4     5   ar
    39     5     6    1
    40     5     7   ar
    41    11    12    1
    42    12    13    1
    43    17    18   ar
    44    18    19   ar
    45    19    20    1
    46    20    21    1
    47    20    22    1
    48    20    23    1
    49    19    14   ar
    50    13     8    1
    51     7     1   ar
    52    51    43   ar
    53    41    36   ar
    54    51    46   ar
    55    29    30    1
    56    45    52    1
    57    34    35    1
@<TRIPOS>MOLECULE
*****
 52 57 0 0 0
SMALL
GASTEIGER

@<TRIPOS>ATOM
      1 C          59.8201   87.9746    7.6756 C.ar    1  UNL1        0.0502
      2 C          60.2828   88.5904    8.8510 C.ar    1  UNL1        0.0148
      3 C          60.2013   87.9301   10.0793 C.ar    1  UNL1        0.0080
      4 C          59.6442   86.6438   10.1644 C.ar    1  UNL1        0.0808
      5 C          59.1926   86.0177    8.9874 C.ar    1  UNL1        0.1457
      6 F          58.7112   84.7498    9.0106 F       1  UNL1       -0.2040
      7 C          59.2767   86.6803    7.7590 C.ar    1  UNL1        0.0443
      8 N          60.1997   90.1363    3.9831 N.pl3   1  UNL1       -0.3041
      9 C          61.2620   89.2162    4.4185 C.3     1  UNL1        0.1122
     10 C          60.7102   88.1014    5.3126 C.3     1  UNL1        0.1122
     11 N          59.9016   88.6604    6.4059 N.pl3   1  UNL1       -0.3040
     12 C          59.0997   89.8733    6.1800 C.3     1  UNL1        0.1122
     13 C          58.9086   90.1517    4.6859 C.3     1  UNL1        0.1122
     14 C          60.7890   92.5859    0.5205 C.ar    1  UNL1       -0.0185
     15 C          59.5305   92.0252    0.8170 C.ar    1  UNL1       -0.0031
     16 C          59.3403   91.2293    1.9431 C.ar    1  UNL1        0.0142
     17 C          60.4019   90.9619    2.8141 C.ar    1  UNL1        0.0479
     18 C          61.6622   91.5149    2.5373 C.ar    1  UNL1        0.0181
     19 C          61.8804   92.3243    1.4016 C.ar    1  UNL1        0.0687
     20 C          63.2682   92.8925    1.1572 C.3     1  UNL1        0.4183
     21 F          63.7904   93.4965    2.2887 F       1  UNL1       -0.1659
     22 F          63.2135   93.8464    0.1567 F       1  UNL1       -0.1659
     23 F          64.1308   91.8766    0.7859 F       1  UNL1       -0.1659
     24 C          59.5451   93.8479   -1.2813 C.3     1  UNL1        0.0047
     25 C          60.9220   93.4495   -0.7340 C.3     1  UNL1        0.0223
     26 C          61.7576   92.7408   -1.8081 C.3     1  UNL1        0.0047
     27 C          59.5589   85.9701   11.4803 C.2     1  UNL1        0.2483
     28 O          58.9954   84.8441   11.5616 O.2     1  UNL1       -0.2701
     29 N          60.1454   86.5616   12.6512 N.am    1  UNL1       -0.2945
     30 H          60.8387   87.3298   12.5126 H       1  UNL1        0.1501
     31 C          60.0616   85.9234   13.9703 C.3     1  UNL1        0.1535
     32 C          61.0103   84.7549   14.0549 C.2     1  UNL1        0.2443
     33 O          61.3344   84.2918   15.1831 O.2     1  UNL1       -0.2730
     34 N          61.4662   84.1196   12.8502 N.am    1  UNL1       -0.2825
     35 H          60.9622   84.3425   11.9620 H       1  UNL1        0.1549
     36 C          62.4864   83.1077   12.8110 C.ar    1  UNL1        0.0535
     37 C          63.4257   83.1163   11.7709 C.ar    1  UNL1        0.0353
     38 C          64.4319   82.1479   11.7398 C.ar    1  UNL1        0.1002
     39 N          64.5087   81.2124   12.7228 N.ar    1  UNL1       -0.2422
     40 C          63.6245   81.1904   13.7549 C.ar    1  UNL1        0.1002
     41 C          62.6020   82.1401   13.8236 C.ar    1  UNL1        0.0353
     42 C          60.3054   86.9420   15.1032 C.3     1  UNL1        0.0569
     43 C          61.7410   87.3795   15.2219 C.ar    1  UNL1       -0.0017
     44 C          62.5945   87.1382   16.2954 C.ar    1  UNL1        0.0681
     45 N          63.8240   87.6422   16.0449 N.ar    1  UNL1       -0.3523
     46 C          63.7554   88.1998   14.8236 C.ar    1  UNL1        0.0563
     47 C          64.7804   88.8415   14.1297 C.ar    1  UNL1        0.0170
     48 C          64.4899   89.3521   12.8514 C.ar    1  UNL1        0.0015
     49 C          63.1960   89.2132   12.3025 C.ar    1  UNL1        0.0001
     50 C          62.1808   88.5623   13.0263 C.ar    1  UNL1        0.0012
     51 C          62.4995   88.0618   14.2895 C.ar    1  UNL1        0.0131
     52 H          64.6568   87.5999   16.6735 H       1  UNL1        0.1660
@<TRIPOS>BOND
     1    24    25    1
     2    25    26    1
     3    25    14    1
     4    14    15   ar
     5    15    16   ar
     6    16    17   ar
     7    17     8    1
     8     8     9    1
     9     9    10    1
    10    10    11    1
    11    11     1    1
    12     1     2   ar
    13     2     3   ar
    14     3     4   ar
    15     4    27    1
    16    27    28    2
    17    27    29   am
    18    29    31    1
    19    31    42    1
    20    42    43    1
    21    43    44   ar
    22    44    45   ar
    23    45    46   ar
    24    46    47   ar
    25    47    48   ar
    26    48    49   ar
    27    49    50   ar
    28    50    51   ar
    29    31    32    1
    30    32    33    2
    31    32    34   am
    32    34    36    1
    33    36    37   ar
    34    37    38   ar
    35    38    39   ar
    36    39    40   ar
    37    40    41   ar
    38     4     5   ar
    39     5     6    1
    40     5     7   ar
    41    11    12    1
    42    12    13    1
    43    17    18   ar
    44    18    19   ar
    45    19    20    1
    46    20    21    1
    47    20    22    1
    48    20    23    1
    49    19    14   ar
    50    13     8    1
    51     7     1   ar
    52    51    43   ar
    53    41    36   ar
    54    51    46   ar
    55    29    30    1
    56    45    52    1
    57    34    35    1
