@<TRIPOS>MOLECULE
*****
 37 41 0 0 0
SMALL
GASTEIGER

@<TRIPOS>ATOM
      1 C          49.2834   10.1649  -19.7296 C.2     1  UNL1        0.2490
      2 O          49.6050    8.9527  -19.8672 O.2     1  UNL1       -0.2699
      3 N          48.2446   10.7221  -20.5580 N.am    1  UNL1       -0.2760
      4 C          47.2447   11.6184  -19.9557 C.3     1  UNL1        0.0954
      5 C          46.0236   11.7925  -20.8677 C.3     1  UNL1        0.0399
      6 C          46.4263   12.1807  -22.3173 C.3     1  UNL1        0.0645
      7 C          47.5539   11.2392  -22.8688 C.3     1  UNL1        0.0399
      8 C          47.9999   10.1486  -21.8870 C.3     1  UNL1        0.0954
      9 C          46.9315   13.6691  -22.3243 C.3     1  UNL1        0.0474
     10 C          46.9566   14.2314  -23.7220 C.ar    1  UNL1        0.0164
     11 C          46.0862   13.8154  -24.6782 C.ar    1  UNL1        0.1511
     12 N          46.2239   14.5392  -25.7949 N.ar    1  UNL1       -0.1654
     13 N          47.1774   15.4436  -25.5856 N.ar    1  UNL1       -0.2588
     14 C          47.6327   15.3065  -24.2957 C.ar    1  UNL1        0.0527
     15 C          45.1437   12.7343  -24.4366 C.2     1  UNL1        0.2649
     16 O          44.2707   12.4232  -25.2892 O.2     1  UNL1       -0.2684
     17 N          45.2322   12.0412  -23.1841 N.am    1  UNL1       -0.3023
     18 H          44.5363   11.2850  -22.9919 H       1  UNL1        0.1497
     19 C          49.6297   11.9638  -15.1169 C.ar    1  UNL1        0.2248
     20 N          50.3037   12.7255  -14.2093 N.ar    1  UNL1       -0.2101
     21 C          51.4419   13.3948  -14.5273 C.ar    1  UNL1        0.1021
     22 C          51.9619   13.3198  -15.8187 C.ar    1  UNL1        0.0209
     23 C          51.3013   12.5478  -16.7821 C.ar    1  UNL1        0.0060
     24 C          51.8002   12.4604  -18.0886 C.ar    1  UNL1        0.0003
     25 C          51.1384   11.6860  -19.0435 C.ar    1  UNL1        0.0045
     26 C          49.9745   10.9780  -18.7058 C.ar    1  UNL1        0.0537
     27 C          49.4574   11.0807  -17.4033 C.ar    1  UNL1        0.0092
     28 C          50.1178   11.8555  -16.4333 C.ar    1  UNL1        0.0534
     29 C          48.0049   11.2413  -13.3929 C.3     1  UNL1        0.2542
     30 O          48.4596   11.2935  -14.7398 O.3     1  UNL1       -0.4561
     31 C          47.5763   16.4055  -26.6510 C.3     1  UNL1        0.0863
     32 C          49.0178   16.1307  -27.1401 C.3     1  UNL1        0.0244
     33 C          46.6471   16.2403  -27.8826 C.3     1  UNL1        0.0244
     34 C          47.4155   17.8578  -26.1547 C.3     1  UNL1        0.0244
     35 C          48.6985   16.1448  -23.6047 C.3     1  UNL1        0.0397
     36 C          49.9448   15.3061  -23.3013 C.3     1  UNL1        0.0063
     37 C          48.1646   16.8433  -22.3462 C.3     1  UNL1        0.0063
@<TRIPOS>BOND
     1    29    30    1
     2    30    19    1
     3    19    20   ar
     4    20    21   ar
     5    21    22   ar
     6    22    23   ar
     7    23    24   ar
     8    24    25   ar
     9    25    26   ar
    10    26     1    1
    11     1     2    2
    12     1     3   am
    13     3     4    1
    14     4     5    1
    15     5     6    1
    16     6     7    1
    17     7     8    1
    18     6     9    1
    19     9    10    1
    20    10    11   ar
    21    11    12   ar
    22    12    13   ar
    23    13    31    1
    24    31    32    1
    25    31    33    1
    26    31    34    1
    27    13    14   ar
    28    14    35    1
    29    35    36    1
    30    35    37    1
    31    11    15    1
    32    15    16    2
    33    15    17   am
    34    26    27   ar
    35    27    28   ar
    36    28    19   ar
    37    28    23   ar
    38     8     3    1
    39    14    10   ar
    40    17     6    1
    41    17    18    1
@<TRIPOS>MOLECULE
*****
 37 41 0 0 0
SMALL
GASTEIGER

@<TRIPOS>ATOM
      1 C          47.1368   12.4778  -20.2415 C.2     1  UNL1        0.2490
      2 O          46.0251   12.3123  -19.6683 O.2     1  UNL1       -0.2699
      3 N          47.1766   12.6880  -21.6662 N.am    1  UNL1       -0.2760
      4 C          48.0804   13.7092  -22.2198 C.3     1  UNL1        0.0954
      5 C          47.7122   14.0614  -23.6666 C.3     1  UNL1        0.0399
      6 C          47.5681   12.7972  -24.5583 C.3     1  UNL1        0.0645
      7 C          46.6610   11.7153  -23.8735 C.3     1  UNL1        0.0399
      8 C          46.1079   12.1317  -22.5049 C.3     1  UNL1        0.0954
      9 C          48.9959   12.1964  -24.8249 C.3     1  UNL1        0.0474
     10 C          48.9757   11.2316  -25.9821 C.ar    1  UNL1        0.0164
     11 C          48.1032   11.3676  -27.0142 C.ar    1  UNL1        0.1511
     12 N          48.3545   10.4678  -27.9719 N.ar    1  UNL1       -0.1654
     13 N          49.3977    9.7365  -27.5876 N.ar    1  UNL1       -0.2588
     14 C          49.8338   10.2047  -26.3708 C.ar    1  UNL1        0.0527
     15 C          47.0735   12.3949  -27.0152 C.2     1  UNL1        0.2649
     16 O          46.3362   12.5826  -28.0187 O.2     1  UNL1       -0.2684
     17 N          46.9352   13.2000  -25.8364 N.am    1  UNL1       -0.3023
     18 H          46.2186   13.9613  -25.8439 H       1  UNL1        0.1497
     19 C          49.4798   12.9860  -15.8957 C.ar    1  UNL1        0.2248
     20 N          50.6452   12.9639  -15.1892 N.ar    1  UNL1       -0.2101
     21 C          51.8429   12.7026  -15.7741 C.ar    1  UNL1        0.1021
     22 C          51.9137   12.4455  -17.1425 C.ar    1  UNL1        0.0209
     23 C          50.7400   12.4578  -17.9059 C.ar    1  UNL1        0.0060
     24 C          50.7848   12.2080  -19.2841 C.ar    1  UNL1        0.0003
     25 C          49.6101   12.2183  -20.0389 C.ar    1  UNL1        0.0045
     26 C          48.3715   12.4670  -19.4275 C.ar    1  UNL1        0.0537
     27 C          48.3239   12.7407  -18.0500 C.ar    1  UNL1        0.0092
     28 C          49.5006   12.7299  -17.2803 C.ar    1  UNL1        0.0534
     29 C          48.1732   14.1726  -14.1582 C.3     1  UNL1        0.2542
     30 O          48.2702   13.2615  -15.2463 O.3     1  UNL1       -0.4561
     31 C          49.9236    8.6339  -28.4404 C.3     1  UNL1        0.0863
     32 C          49.8096    7.2690  -27.7216 C.3     1  UNL1        0.0244
     33 C          49.0815    8.5272  -29.7393 C.3     1  UNL1        0.0244
     34 C          51.3773    8.9279  -28.8668 C.3     1  UNL1        0.0244
     35 C          51.0178    9.6947  -25.5621 C.3     1  UNL1        0.0397
     36 C          50.5544    9.0906  -24.2320 C.3     1  UNL1        0.0063
     37 C          52.0881   10.7751  -25.3522 C.3     1  UNL1        0.0063
@<TRIPOS>BOND
     1    29    30    1
     2    30    19    1
     3    19    20   ar
     4    20    21   ar
     5    21    22   ar
     6    22    23   ar
     7    23    24   ar
     8    24    25   ar
     9    25    26   ar
    10    26     1    1
    11     1     2    2
    12     1     3   am
    13     3     4    1
    14     4     5    1
    15     5     6    1
    16     6     7    1
    17     7     8    1
    18     6     9    1
    19     9    10    1
    20    10    11   ar
    21    11    12   ar
    22    12    13   ar
    23    13    31    1
    24    31    32    1
    25    31    33    1
    26    31    34    1
    27    13    14   ar
    28    14    35    1
    29    35    36    1
    30    35    37    1
    31    11    15    1
    32    15    16    2
    33    15    17   am
    34    26    27   ar
    35    27    28   ar
    36    28    19   ar
    37    28    23   ar
    38     8     3    1
    39    14    10   ar
    40    17     6    1
    41    17    18    1
@<TRIPOS>MOLECULE
*****
 37 41 0 0 0
SMALL
GASTEIGER

@<TRIPOS>ATOM
      1 C          46.4507   13.7830  -25.3616 C.2     1  UNL1        0.2490
      2 O          45.2400   13.7227  -25.7116 O.2     1  UNL1       -0.2699
      3 N          46.9902   12.7672  -24.4940 N.am    1  UNL1       -0.2760
      4 C          48.3285   12.2201  -24.7690 C.3     1  UNL1        0.0954
      5 C          48.5684   10.9108  -24.0067 C.3     1  UNL1        0.0399
      6 C          48.2414   11.0460  -22.4938 C.3     1  UNL1        0.0645
      7 C          46.8384   11.7121  -22.2697 C.3     1  UNL1        0.0399
      8 C          46.0959   12.0673  -23.5638 C.3     1  UNL1        0.0954
      9 C          49.3548   11.9179  -21.8078 C.3     1  UNL1        0.0474
     10 C          49.3270   11.7602  -20.3095 C.ar    1  UNL1        0.0164
     11 C          48.9192   10.6080  -19.7170 C.ar    1  UNL1        0.1511
     12 N          49.0945   10.6660  -18.3919 N.ar    1  UNL1       -0.1654
     13 N          49.6264   11.8497  -18.0974 N.ar    1  UNL1       -0.2588
     14 C          49.8185   12.5447  -19.2679 C.ar    1  UNL1        0.0527
     15 C          48.3937    9.4942  -20.4909 C.2     1  UNL1        0.2649
     16 O          48.1153    8.3926  -19.9479 O.2     1  UNL1       -0.2684
     17 N          48.2166    9.6879  -21.9009 N.am    1  UNL1       -0.3023
     18 H          47.8701    8.8802  -22.4670 H       1  UNL1        0.1497
     19 C          50.3485   16.8261  -24.9378 C.ar    1  UNL1        0.2248
     20 N          51.0887   17.8515  -25.4464 N.ar    1  UNL1       -0.2101
     21 C          50.7656   18.4708  -26.6112 C.ar    1  UNL1        0.1021
     22 C          49.6433   18.0661  -27.3327 C.ar    1  UNL1        0.0209
     23 C          48.8553   17.0160  -26.8462 C.ar    1  UNL1        0.0060
     24 C          47.7190   16.5939  -27.5495 C.ar    1  UNL1        0.0003
     25 C          46.9395   15.5437  -27.0606 C.ar    1  UNL1        0.0045
     26 C          47.2887   14.8914  -25.8679 C.ar    1  UNL1        0.0537
     27 C          48.4139   15.3259  -25.1471 C.ar    1  UNL1        0.0092
     28 C          49.2073   16.3806  -25.6322 C.ar    1  UNL1        0.0534
     29 C          51.1892   14.8787  -23.6592 C.3     1  UNL1        0.2542
     30 O          50.7231   16.2206  -23.7320 O.3     1  UNL1       -0.4561
     31 C          49.9368   12.2279  -16.6902 C.3     1  UNL1        0.0863
     32 C          49.0589   13.4131  -16.2240 C.3     1  UNL1        0.0244
     33 C          49.6214   11.0387  -15.7449 C.3     1  UNL1        0.0244
     34 C          51.4395   12.5429  -16.5350 C.3     1  UNL1        0.0244
     35 C          50.4290   13.9301  -19.4230 C.3     1  UNL1        0.0397
     36 C          49.5622   14.8136  -20.3268 C.3     1  UNL1        0.0063
     37 C          51.8836   13.8741  -19.9106 C.3     1  UNL1        0.0063
@<TRIPOS>BOND
     1    29    30    1
     2    30    19    1
     3    19    20   ar
     4    20    21   ar
     5    21    22   ar
     6    22    23   ar
     7    23    24   ar
     8    24    25   ar
     9    25    26   ar
    10    26     1    1
    11     1     2    2
    12     1     3   am
    13     3     4    1
    14     4     5    1
    15     5     6    1
    16     6     7    1
    17     7     8    1
    18     6     9    1
    19     9    10    1
    20    10    11   ar
    21    11    12   ar
    22    12    13   ar
    23    13    31    1
    24    31    32    1
    25    31    33    1
    26    31    34    1
    27    13    14   ar
    28    14    35    1
    29    35    36    1
    30    35    37    1
    31    11    15    1
    32    15    16    2
    33    15    17   am
    34    26    27   ar
    35    27    28   ar
    36    28    19   ar
    37    28    23   ar
    38     8     3    1
    39    14    10   ar
    40    17     6    1
    41    17    18    1
@<TRIPOS>MOLECULE
*****
 37 41 0 0 0
SMALL
GASTEIGER

@<TRIPOS>ATOM
      1 C          49.4718   11.1185  -19.1914 C.2     1  UNL1        0.2490
      2 O          50.3628   10.2371  -19.0462 O.2     1  UNL1       -0.2699
      3 N          48.8020   11.2485  -20.4603 N.am    1  UNL1       -0.2760
      4 C          47.3464   11.4638  -20.4890 C.3     1  UNL1        0.0954
      5 C          46.7645   11.1887  -21.8813 C.3     1  UNL1        0.0399
      6 C          47.5357   11.9453  -22.9980 C.3     1  UNL1        0.0645
      7 C          49.0855   11.7424  -22.8603 C.3     1  UNL1        0.0399
      8 C          49.5017   10.8468  -21.6868 C.3     1  UNL1        0.0954
      9 C          47.1939   13.4767  -22.9052 C.3     1  UNL1        0.0474
     10 C          47.5751   14.1996  -24.1711 C.ar    1  UNL1        0.0164
     11 C          47.5615   13.5828  -25.3812 C.ar    1  UNL1        0.1511
     12 N          47.8207   14.4541  -26.3628 N.ar    1  UNL1       -0.1654
     13 N          47.9987   15.6533  -25.8139 N.ar    1  UNL1       -0.2588
     14 C          47.8190   15.5419  -24.4555 C.ar    1  UNL1        0.0527
     15 C          47.2724   12.1635  -25.5132 C.2     1  UNL1        0.2649
     16 O          47.1589   11.6202  -26.6436 O.2     1  UNL1       -0.2684
     17 N          47.1056   11.4031  -24.3085 N.am    1  UNL1       -0.3023
     18 H          46.8655   10.3895  -24.3978 H       1  UNL1        0.1497
     19 C          49.9434   12.4004  -14.4198 C.ar    1  UNL1        0.2248
     20 N          49.5942   13.2274  -13.3941 N.ar    1  UNL1       -0.2101
     21 C          48.7041   14.2412  -13.5510 C.ar    1  UNL1        0.1021
     22 C          48.1103   14.4672  -14.7919 C.ar    1  UNL1        0.0209
     23 C          48.4412   13.6413  -15.8730 C.ar    1  UNL1        0.0060
     24 C          47.8542   13.8439  -17.1293 C.ar    1  UNL1        0.0003
     25 C          48.1913   13.0187  -18.2040 C.ar    1  UNL1        0.0045
     26 C          49.1280   11.9858  -18.0439 C.ar    1  UNL1        0.0537
     27 C          49.7022   11.7640  -16.7808 C.ar    1  UNL1        0.0092
     28 C          49.3718   12.5910  -15.6926 C.ar    1  UNL1        0.0534
     29 C          50.5773   10.2368  -13.3947 C.3     1  UNL1        0.2542
     30 O          50.8656   11.3685  -14.2069 O.3     1  UNL1       -0.4561
     31 C          48.3142   16.8456  -26.6495 C.3     1  UNL1        0.0863
     32 C          48.1626   18.1530  -25.8368 C.3     1  UNL1        0.0244
     33 C          49.7910   16.7808  -27.1210 C.3     1  UNL1        0.0244
     34 C          47.4349   16.8638  -27.9175 C.3     1  UNL1        0.0244
     35 C          47.8942   16.6594  -23.4252 C.3     1  UNL1        0.0397
     36 C          48.6434   16.1990  -22.1700 C.3     1  UNL1        0.0063
     37 C          46.5106   17.2298  -23.0828 C.3     1  UNL1        0.0063
@<TRIPOS>BOND
     1    29    30    1
     2    30    19    1
     3    19    20   ar
     4    20    21   ar
     5    21    22   ar
     6    22    23   ar
     7    23    24   ar
     8    24    25   ar
     9    25    26   ar
    10    26     1    1
    11     1     2    2
    12     1     3   am
    13     3     4    1
    14     4     5    1
    15     5     6    1
    16     6     7    1
    17     7     8    1
    18     6     9    1
    19     9    10    1
    20    10    11   ar
    21    11    12   ar
    22    12    13   ar
    23    13    31    1
    24    31    32    1
    25    31    33    1
    26    31    34    1
    27    13    14   ar
    28    14    35    1
    29    35    36    1
    30    35    37    1
    31    11    15    1
    32    15    16    2
    33    15    17   am
    34    26    27   ar
    35    27    28   ar
    36    28    19   ar
    37    28    23   ar
    38     8     3    1
    39    14    10   ar
    40    17     6    1
    41    17    18    1
@<TRIPOS>MOLECULE
*****
 37 41 0 0 0
SMALL
GASTEIGER

@<TRIPOS>ATOM
      1 C          46.5983   12.5373  -20.7583 C.2     1  UNL1        0.2490
      2 O          45.4537   12.3885  -20.2488 O.2     1  UNL1       -0.2699
      3 N          46.7233   12.7195  -22.1820 N.am    1  UNL1       -0.2760
      4 C          47.6644   13.7252  -22.7005 C.3     1  UNL1        0.0954
      5 C          47.3845   14.0510  -24.1731 C.3     1  UNL1        0.0399
      6 C          47.2856   12.7704  -25.0474 C.3     1  UNL1        0.0645
      7 C          46.3330   11.7065  -24.3969 C.3     1  UNL1        0.0399
      8 C          45.7027   12.1522  -23.0716 C.3     1  UNL1        0.0954
      9 C          48.7229   12.1575  -25.2175 C.3     1  UNL1        0.0474
     10 C          48.7652   11.1704  -26.3552 C.ar    1  UNL1        0.0164
     11 C          47.9560   11.2906  -27.4395 C.ar    1  UNL1        0.1511
     12 N          48.2579   10.3711  -28.3633 N.ar    1  UNL1       -0.1654
     13 N          49.2722    9.6423  -27.9041 N.ar    1  UNL1       -0.2588
     14 C          49.6385   10.1319  -26.6728 C.ar    1  UNL1        0.0527
     15 C          46.9345   12.3228  -27.5211 C.2     1  UNL1        0.2649
     16 O          46.2588   12.4946  -28.5698 O.2     1  UNL1       -0.2684
     17 N          46.7317   13.1514  -26.3682 N.am    1  UNL1       -0.3023
     18 H          46.0214   13.9159  -26.4326 H       1  UNL1        0.1497
     19 C          51.5119   12.6862  -20.0746 C.ar    1  UNL1        0.2248
     20 N          52.5709   12.6821  -19.2164 N.ar    1  UNL1       -0.2101
     21 C          52.4128   12.5989  -17.8700 C.ar    1  UNL1        0.1021
     22 C          51.1355   12.5125  -17.3180 C.ar    1  UNL1        0.0209
     23 C          50.0196   12.5139  -18.1637 C.ar    1  UNL1        0.0060
     24 C          48.7253   12.4225  -17.6344 C.ar    1  UNL1        0.0003
     25 C          47.6167   12.4280  -18.4832 C.ar    1  UNL1        0.0045
     26 C          47.7826   12.5362  -19.8726 C.ar    1  UNL1        0.0537
     27 C          49.0792   12.6051  -20.4099 C.ar    1  UNL1        0.0092
     28 C          50.2023   12.6032  -19.5638 C.ar    1  UNL1        0.0534
     29 C          52.4274   13.8557  -22.0565 C.3     1  UNL1        0.2542
     30 O          51.7276   12.7729  -21.4554 O.3     1  UNL1       -0.4561
     31 C          49.8408    8.5207  -28.7030 C.3     1  UNL1        0.0863
     32 C          49.7153    7.1769  -27.9472 C.3     1  UNL1        0.0244
     33 C          49.0479    8.3646  -30.0276 C.3     1  UNL1        0.0244
     34 C          51.3058    8.8189  -29.0853 C.3     1  UNL1        0.0244
     35 C          50.7696    9.6319  -25.7858 C.3     1  UNL1        0.0397
     36 C          50.2379    9.1791  -24.4216 C.3     1  UNL1        0.0063
     37 C          51.8961   10.6647  -25.6413 C.3     1  UNL1        0.0063
@<TRIPOS>BOND
     1    29    30    1
     2    30    19    1
     3    19    20   ar
     4    20    21   ar
     5    21    22   ar
     6    22    23   ar
     7    23    24   ar
     8    24    25   ar
     9    25    26   ar
    10    26     1    1
    11     1     2    2
    12     1     3   am
    13     3     4    1
    14     4     5    1
    15     5     6    1
    16     6     7    1
    17     7     8    1
    18     6     9    1
    19     9    10    1
    20    10    11   ar
    21    11    12   ar
    22    12    13   ar
    23    13    31    1
    24    31    32    1
    25    31    33    1
    26    31    34    1
    27    13    14   ar
    28    14    35    1
    29    35    36    1
    30    35    37    1
    31    11    15    1
    32    15    16    2
    33    15    17   am
    34    26    27   ar
    35    27    28   ar
    36    28    19   ar
    37    28    23   ar
    38     8     3    1
    39    14    10   ar
    40    17     6    1
    41    17    18    1
@<TRIPOS>MOLECULE
*****
 37 41 0 0 0
SMALL
GASTEIGER

@<TRIPOS>ATOM
      1 C          46.1696   13.7545  -25.2578 C.2     1  UNL1        0.2490
      2 O          44.9507   13.6444  -25.5644 O.2     1  UNL1       -0.2699
      3 N          46.7846   12.7546  -24.4225 N.am    1  UNL1       -0.2760
      4 C          48.1345   12.2701  -24.7522 C.3     1  UNL1        0.0954
      5 C          48.4593   10.9648  -24.0148 C.3     1  UNL1        0.0399
      6 C          48.1824   11.0697  -22.4895 C.3     1  UNL1        0.0645
      7 C          46.7607   11.6708  -22.2068 C.3     1  UNL1        0.0399
      8 C          45.9564   12.0063  -23.4689 C.3     1  UNL1        0.0954
      9 C          49.2811   11.9828  -21.8339 C.3     1  UNL1        0.0474
     10 C          49.3151   11.8085  -20.3376 C.ar    1  UNL1        0.0164
     11 C          48.9802   10.6334  -19.7445 C.ar    1  UNL1        0.1511
     12 N          49.2012   10.6854  -18.4261 N.ar    1  UNL1       -0.1654
     13 N          49.6913   11.8883  -18.1369 N.ar    1  UNL1       -0.2588
     14 C          49.8097   12.6032  -19.3051 C.ar    1  UNL1        0.0527
     15 C          48.4759    9.5055  -20.5121 C.2     1  UNL1        0.2649
     16 O          48.2661    8.3871  -19.9726 O.2     1  UNL1       -0.2684
     17 N          48.2389    9.7058  -21.9124 N.am    1  UNL1       -0.3023
     18 H          47.9075    8.8895  -22.4753 H       1  UNL1        0.1497
     19 C          47.4266   18.5545  -25.1425 C.ar    1  UNL1        0.2248
     20 N          48.1578   19.5817  -25.6605 N.ar    1  UNL1       -0.2101
     21 C          48.9970   19.4146  -26.7153 C.ar    1  UNL1        0.1021
     22 C          49.1351   18.1611  -27.3098 C.ar    1  UNL1        0.0209
     23 C          48.4027   17.0781  -26.8086 C.ar    1  UNL1        0.0060
     24 C          48.5193   15.8092  -27.3917 C.ar    1  UNL1        0.0003
     25 C          47.7888   14.7328  -26.8847 C.ar    1  UNL1        0.0045
     26 C          46.9391   14.9040  -25.7807 C.ar    1  UNL1        0.0537
     27 C          46.8012   16.1792  -25.2069 C.ar    1  UNL1        0.0092
     28 C          47.5345   17.2693  -25.7080 C.ar    1  UNL1        0.0534
     29 C          46.6892   18.0635  -22.8297 C.3     1  UNL1        0.2542
     30 O          46.5744   18.7783  -24.0542 O.3     1  UNL1       -0.4561
     31 C          50.0362   12.2653  -16.7374 C.3     1  UNL1        0.0863
     32 C          49.1623   13.4427  -16.2448 C.3     1  UNL1        0.0244
     33 C          49.7549   11.0713  -15.7873 C.3     1  UNL1        0.0244
     34 C          51.5401   12.5912  -16.6214 C.3     1  UNL1        0.0244
     35 C          50.3529   14.0158  -19.4657 C.3     1  UNL1        0.0397
     36 C          49.4706   14.8387  -20.4107 C.3     1  UNL1        0.0063
     37 C          51.8229   14.0275  -19.9077 C.3     1  UNL1        0.0063
@<TRIPOS>BOND
     1    29    30    1
     2    30    19    1
     3    19    20   ar
     4    20    21   ar
     5    21    22   ar
     6    22    23   ar
     7    23    24   ar
     8    24    25   ar
     9    25    26   ar
    10    26     1    1
    11     1     2    2
    12     1     3   am
    13     3     4    1
    14     4     5    1
    15     5     6    1
    16     6     7    1
    17     7     8    1
    18     6     9    1
    19     9    10    1
    20    10    11   ar
    21    11    12   ar
    22    12    13   ar
    23    13    31    1
    24    31    32    1
    25    31    33    1
    26    31    34    1
    27    13    14   ar
    28    14    35    1
    29    35    36    1
    30    35    37    1
    31    11    15    1
    32    15    16    2
    33    15    17   am
    34    26    27   ar
    35    27    28   ar
    36    28    19   ar
    37    28    23   ar
    38     8     3    1
    39    14    10   ar
    40    17     6    1
    41    17    18    1
@<TRIPOS>MOLECULE
*****
 37 41 0 0 0
SMALL
GASTEIGER

@<TRIPOS>ATOM
      1 C          52.9158   10.2620  -27.8597 C.2     1  UNL1        0.2490
      2 O          54.1250   10.1097  -28.1861 O.2     1  UNL1       -0.2699
      3 N          52.5707   11.2215  -26.8419 N.am    1  UNL1       -0.2760
      4 C          51.3946   12.0852  -27.0339 C.3     1  UNL1        0.0954
      5 C          51.4095   13.2782  -26.0698 C.3     1  UNL1        0.0399
      6 C          51.6344   12.8377  -24.5969 C.3     1  UNL1        0.0645
      7 C          52.8502   11.8534  -24.4741 C.3     1  UNL1        0.0399
      8 C          53.5539   11.5526  -25.8032 C.3     1  UNL1        0.0954
      9 C          50.3309   12.1343  -24.0709 C.3     1  UNL1        0.0474
     10 C          50.3275   12.0437  -22.5668 C.ar    1  UNL1        0.0164
     11 C          50.9478   12.9701  -21.7910 C.ar    1  UNL1        0.1511
     12 N          50.7073   12.7438  -20.4946 N.ar    1  UNL1       -0.1654
     13 N          49.9209   11.6743  -20.4013 N.ar    1  UNL1       -0.2588
     14 C          49.6343   11.2319  -21.6710 C.ar    1  UNL1        0.0527
     15 C          51.7335   14.0494  -22.3686 C.2     1  UNL1        0.2649
     16 O          52.2188   14.9633  -21.6510 O.2     1  UNL1       -0.2684
     17 N          51.9253   14.0464  -23.7900 N.am    1  UNL1       -0.3023
     18 H          52.4615   14.8373  -24.2140 H       1  UNL1        0.1497
     19 C          51.4587    7.3298  -31.5896 C.ar    1  UNL1        0.2248
     20 N          50.4712    6.6021  -32.1841 N.ar    1  UNL1       -0.2101
     21 C          49.2188    6.5196  -31.6651 C.ar    1  UNL1        0.1021
     22 C          48.9028    7.1923  -30.4856 C.ar    1  UNL1        0.0209
     23 C          49.8879    7.9510  -29.8418 C.ar    1  UNL1        0.0060
     24 C          49.5944    8.6411  -28.6580 C.ar    1  UNL1        0.0003
     25 C          50.5824    9.3930  -28.0193 C.ar    1  UNL1        0.0045
     26 C          51.8815    9.4585  -28.5465 C.ar    1  UNL1        0.0537
     27 C          52.1748    8.7870  -29.7454 C.ar    1  UNL1        0.0092
     28 C          51.1879    8.0246  -30.3951 C.ar    1  UNL1        0.0534
     29 C          53.4005    6.2309  -32.6646 C.3     1  UNL1        0.2542
     30 O          52.7341    7.3841  -32.1650 O.3     1  UNL1       -0.4561
     31 C          49.4762   11.1563  -19.0772 C.3     1  UNL1        0.0863
     32 C          49.8331    9.6600  -18.9144 C.3     1  UNL1        0.0244
     33 C          50.2105   11.9174  -17.9418 C.3     1  UNL1        0.0244
     34 C          47.9651   11.4008  -18.8819 C.3     1  UNL1        0.0244
     35 C          48.7473   10.0564  -22.0548 C.3     1  UNL1        0.0397
     36 C          49.5107    9.0553  -22.9289 C.3     1  UNL1        0.0063
     37 C          47.4387   10.5070  -22.7191 C.3     1  UNL1        0.0063
@<TRIPOS>BOND
     1    29    30    1
     2    30    19    1
     3    19    20   ar
     4    20    21   ar
     5    21    22   ar
     6    22    23   ar
     7    23    24   ar
     8    24    25   ar
     9    25    26   ar
    10    26     1    1
    11     1     2    2
    12     1     3   am
    13     3     4    1
    14     4     5    1
    15     5     6    1
    16     6     7    1
    17     7     8    1
    18     6     9    1
    19     9    10    1
    20    10    11   ar
    21    11    12   ar
    22    12    13   ar
    23    13    31    1
    24    31    32    1
    25    31    33    1
    26    31    34    1
    27    13    14   ar
    28    14    35    1
    29    35    36    1
    30    35    37    1
    31    11    15    1
    32    15    16    2
    33    15    17   am
    34    26    27   ar
    35    27    28   ar
    36    28    19   ar
    37    28    23   ar
    38     8     3    1
    39    14    10   ar
    40    17     6    1
    41    17    18    1
@<TRIPOS>MOLECULE
*****
 37 41 0 0 0
SMALL
GASTEIGER

@<TRIPOS>ATOM
      1 C          50.5892    9.2334  -25.5074 C.2     1  UNL1        0.2490
      2 O          50.0645    8.1553  -25.1147 O.2     1  UNL1       -0.2699
      3 N          50.5797   10.3844  -24.6409 N.am    1  UNL1       -0.2760
      4 C          51.7881   11.2177  -24.5353 C.3     1  UNL1        0.0954
      5 C          51.7328   12.1355  -23.3074 C.3     1  UNL1        0.0399
      6 C          50.4049   12.9390  -23.2364 C.3     1  UNL1        0.0645
      7 C          49.1604   12.0051  -23.4396 C.3     1  UNL1        0.0399
      8 C          49.5098   10.5260  -23.6457 C.3     1  UNL1        0.0954
      9 C          50.4201   14.0475  -24.3506 C.3     1  UNL1        0.0474
     10 C          49.3722   15.0986  -24.0904 C.ar    1  UNL1        0.0164
     11 C          48.9757   15.4200  -22.8317 C.ar    1  UNL1        0.1511
     12 N          48.1291   16.4558  -22.8489 N.ar    1  UNL1       -0.1654
     13 N          47.9652   16.8338  -24.1143 N.ar    1  UNL1       -0.2588
     14 C          48.7498   16.0358  -24.9128 C.ar    1  UNL1        0.0527
     15 C          49.4683   14.7008  -21.6674 C.2     1  UNL1        0.2649
     16 O          49.1788   15.0694  -20.4985 O.2     1  UNL1       -0.2684
     17 N          50.3104   13.5623  -21.8951 N.am    1  UNL1       -0.3023
     18 H          50.6937   13.0613  -21.0614 H       1  UNL1        0.1497
     19 C          50.7129    7.9254  -30.2936 C.ar    1  UNL1        0.2248
     20 N          51.3279    8.0000  -31.5078 N.ar    1  UNL1       -0.2101
     21 C          52.4618    8.7217  -31.7031 C.ar    1  UNL1        0.1021
     22 C          53.0400    9.4196  -30.6437 C.ar    1  UNL1        0.0209
     23 C          52.4403    9.3706  -29.3794 C.ar    1  UNL1        0.0060
     24 C          53.0047   10.0586  -28.2969 C.ar    1  UNL1        0.0003
     25 C          52.3996   10.0083  -27.0395 C.ar    1  UNL1        0.0045
     26 C          51.2158    9.2795  -26.8462 C.ar    1  UNL1        0.0537
     27 C          50.6586    8.5692  -27.9230 C.ar    1  UNL1        0.0092
     28 C          51.2584    8.6155  -29.1939 C.ar    1  UNL1        0.0534
     29 C          48.7675    6.7279  -31.2503 C.3     1  UNL1        0.2542
     30 O          49.5456    7.1669  -30.1433 O.3     1  UNL1       -0.4561
     31 C          47.0669   17.9675  -24.4710 C.3     1  UNL1        0.0863
     32 C          46.0744   17.5637  -25.5867 C.3     1  UNL1        0.0244
     33 C          46.2146   18.3703  -23.2386 C.3     1  UNL1        0.0244
     34 C          47.8947   19.2062  -24.8729 C.3     1  UNL1        0.0244
     35 C          48.9069   16.1215  -26.4241 C.3     1  UNL1        0.0397
     36 C          48.2937   14.8958  -27.1099 C.3     1  UNL1        0.0063
     37 C          50.3670   16.3366  -26.8464 C.3     1  UNL1        0.0063
@<TRIPOS>BOND
     1    29    30    1
     2    30    19    1
     3    19    20   ar
     4    20    21   ar
     5    21    22   ar
     6    22    23   ar
     7    23    24   ar
     8    24    25   ar
     9    25    26   ar
    10    26     1    1
    11     1     2    2
    12     1     3   am
    13     3     4    1
    14     4     5    1
    15     5     6    1
    16     6     7    1
    17     7     8    1
    18     6     9    1
    19     9    10    1
    20    10    11   ar
    21    11    12   ar
    22    12    13   ar
    23    13    31    1
    24    31    32    1
    25    31    33    1
    26    31    34    1
    27    13    14   ar
    28    14    35    1
    29    35    36    1
    30    35    37    1
    31    11    15    1
    32    15    16    2
    33    15    17   am
    34    26    27   ar
    35    27    28   ar
    36    28    19   ar
    37    28    23   ar
    38     8     3    1
    39    14    10   ar
    40    17     6    1
    41    17    18    1
@<TRIPOS>MOLECULE
*****
 37 41 0 0 0
SMALL
GASTEIGER

@<TRIPOS>ATOM
      1 C          48.8312   10.2683  -22.3303 C.2     1  UNL1        0.2490
      2 O          49.4842    9.2550  -22.7028 O.2     1  UNL1       -0.2699
      3 N          48.1230   11.0550  -23.3077 N.am    1  UNL1       -0.2760
      4 C          46.7682   11.5399  -22.9990 C.3     1  UNL1        0.0954
      5 C          46.0354   12.0046  -24.2640 C.3     1  UNL1        0.0399
      6 C          46.8857   13.0000  -25.1007 C.3     1  UNL1        0.0645
      7 C          48.3427   12.4612  -25.3223 C.3     1  UNL1        0.0399
      8 C          48.6091   11.0883  -24.6925 C.3     1  UNL1        0.0954
      9 C          46.9420   14.3792  -24.3488 C.3     1  UNL1        0.0474
     10 C          47.3962   15.4842  -25.2669 C.ar    1  UNL1        0.0164
     11 C          47.1411   15.4590  -26.6008 C.ar    1  UNL1        0.1511
     12 N          47.5352   16.5974  -27.1827 N.ar    1  UNL1       -0.1654
     13 N          48.0448   17.3874  -26.2408 N.ar    1  UNL1       -0.2588
     14 C          47.9436   16.7438  -25.0303 C.ar    1  UNL1        0.0527
     15 C          46.5003   14.3179  -27.2356 C.2     1  UNL1        0.2649
     16 O          46.1727   14.3429  -28.4513 O.2     1  UNL1       -0.2684
     17 N          46.2394   13.1643  -26.4243 N.am    1  UNL1       -0.3023
     18 H          45.7496   12.3539  -26.8674 H       1  UNL1        0.1497
     19 C          51.0707   11.8226  -18.1828 C.ar    1  UNL1        0.2248
     20 N          50.9890   12.1263  -16.8565 N.ar    1  UNL1       -0.2101
     21 C          49.8317   12.0076  -16.1555 C.ar    1  UNL1        0.1021
     22 C          48.6718   11.5613  -16.7873 C.ar    1  UNL1        0.0209
     23 C          48.7114   11.2389  -18.1492 C.ar    1  UNL1        0.0060
     24 C          47.5609   10.7827  -18.8064 C.ar    1  UNL1        0.0003
     25 C          47.6064   10.4663  -20.1655 C.ar    1  UNL1        0.0045
     26 C          48.7986   10.6110  -20.8921 C.ar    1  UNL1        0.0537
     27 C          49.9606   11.0460  -20.2326 C.ar    1  UNL1        0.0092
     28 C          49.9248   11.3701  -18.8648 C.ar    1  UNL1        0.0534
     29 C          52.7022   13.1867  -19.4522 C.3     1  UNL1        0.2542
     30 O          52.2880   11.9610  -18.8610 O.3     1  UNL1       -0.4561
     31 C          48.5836   18.7361  -26.5730 C.3     1  UNL1        0.0863
     32 C          50.1242   18.7704  -26.4390 C.3     1  UNL1        0.0244
     33 C          48.2551   19.0841  -28.0489 C.3     1  UNL1        0.0244
     34 C          47.9162   19.8151  -25.6945 C.3     1  UNL1        0.0244
     35 C          48.3690   17.2761  -23.6695 C.3     1  UNL1        0.0397
     36 C          49.2257   16.2486  -22.9218 C.3     1  UNL1        0.0063
     37 C          47.1732   17.7393  -22.8257 C.3     1  UNL1        0.0063
@<TRIPOS>BOND
     1    29    30    1
     2    30    19    1
     3    19    20   ar
     4    20    21   ar
     5    21    22   ar
     6    22    23   ar
     7    23    24   ar
     8    24    25   ar
     9    25    26   ar
    10    26     1    1
    11     1     2    2
    12     1     3   am
    13     3     4    1
    14     4     5    1
    15     5     6    1
    16     6     7    1
    17     7     8    1
    18     6     9    1
    19     9    10    1
    20    10    11   ar
    21    11    12   ar
    22    12    13   ar
    23    13    31    1
    24    31    32    1
    25    31    33    1
    26    31    34    1
    27    13    14   ar
    28    14    35    1
    29    35    36    1
    30    35    37    1
    31    11    15    1
    32    15    16    2
    33    15    17   am
    34    26    27   ar
    35    27    28   ar
    36    28    19   ar
    37    28    23   ar
    38     8     3    1
    39    14    10   ar
    40    17     6    1
    41    17    18    1
