@<TRIPOS>MOLECULE
*****
 38 42 0 0 0
SMALL
GASTEIGER

@<TRIPOS>ATOM
      1 C          48.9275   12.9237  -21.2873 C.2     1  UNL1        0.2506
      2 O          49.0676   14.0094  -21.9137 O.2     1  UNL1       -0.2699
      3 N          48.5750   11.7195  -22.0033 N.am    1  UNL1       -0.2680
      4 C          47.7592   10.6835  -21.3641 C.3     1  UNL1        0.1412
      5 C          46.3126   11.1635  -21.2379 C.3     1  UNL1        0.2268
      6 O          46.0219   12.2365  -22.1350 O.3     1  UNL1       -0.4739
      7 C          46.1457   12.1489  -23.5273 C.ar    1  UNL1        0.1362
      8 C          45.0010   12.3958  -24.2914 C.ar    1  UNL1        0.0366
      9 C          45.0420   12.3285  -25.6834 C.ar    1  UNL1        0.0031
     10 C          46.2406   12.0252  -26.3452 C.ar    1  UNL1       -0.0000
     11 C          47.3997   11.7986  -25.5838 C.ar    1  UNL1        0.0004
     12 C          47.3761   11.8634  -24.1794 C.ar    1  UNL1        0.0317
     13 C          48.6990   11.6631  -23.4626 C.3     1  UNL1        0.1236
     14 C          46.2845   11.9540  -27.8276 C.ar    1  UNL1        0.0015
     15 C          46.6246   10.7362  -28.4812 C.ar    1  UNL1        0.0016
     16 C          46.6682   10.6589  -29.8859 C.ar    1  UNL1        0.0206
     17 C          46.3690   11.8093  -30.6077 C.ar    1  UNL1        0.0985
     18 N          46.3474   11.9610  -31.9441 N.ar    1  UNL1       -0.2241
     19 C          45.9958   13.2655  -32.0941 C.ar    1  UNL1        0.1750
     20 N          45.8034   13.9121  -30.9192 N.ar    1  UNL1       -0.3349
     21 C          46.0441   12.9779  -29.9920 C.ar    1  UNL1        0.0757
     22 C          45.9892   13.0996  -28.6063 C.ar    1  UNL1        0.0185
     23 H          45.5304   14.9094  -30.7745 H       1  UNL1        0.1675
     24 C          50.3981   12.7058  -19.2535 C.ar    1  UNL1        0.0462
     25 C          49.1239   12.9159  -19.8224 C.ar    1  UNL1        0.0664
     26 C          48.0122   13.0784  -18.9920 C.ar    1  UNL1        0.0070
     27 C          48.1482   13.0266  -17.6088 C.ar    1  UNL1        0.0182
     28 C          49.4028   12.8285  -17.0162 C.ar    1  UNL1        0.1029
     29 C          50.5528   12.7145  -17.8422 C.ar    1  UNL1        0.0085
     30 C          51.9320   12.5981  -17.2331 C.3     1  UNL1        0.0337
     31 S          49.5074   12.7457  -15.2443 S.O2    1  UNL1        0.0102
     32 C          49.9080   11.1087  -14.6632 C.3     1  UNL1        0.1816
     33 O          48.1902   13.1549  -14.6479 O.2     1  UNL1       -0.1686
     34 O          50.5872   13.6718  -14.7591 O.2     1  UNL1       -0.1686
     35 N          51.5370   12.5363  -20.1133 N.pl3   1  UNL1       -0.3327
     36 H          51.9106   11.5679  -20.2378 H       1  UNL1        0.1468
     37 C          52.5967   13.8957  -21.8550 C.3     1  UNL1        0.0229
     38 C          52.4576   13.6447  -20.3589 C.3     1  UNL1        0.0871
@<TRIPOS>BOND
     1    37    38    1
     2    38    35    1
     3    35    24    1
     4    24    25   ar
     5    25     1    1
     6     1     2    2
     7     1     3   am
     8     3     4    1
     9     4     5    1
    10     5     6    1
    11     6     7    1
    12     7     8   ar
    13     8     9   ar
    14     9    10   ar
    15    10    14    1
    16    14    15   ar
    17    15    16   ar
    18    16    17   ar
    19    17    18   ar
    20    18    19   ar
    21    19    20   ar
    22    20    21   ar
    23    21    22   ar
    24    10    11   ar
    25    11    12   ar
    26    12    13    1
    27    25    26   ar
    28    26    27   ar
    29    27    28   ar
    30    28    31    1
    31    31    32    1
    32    31    33    2
    33    31    34    2
    34    28    29   ar
    35    29    30    1
    36    29    24   ar
    37    13     3    1
    38    12     7   ar
    39    22    14   ar
    40    21    17   ar
    41    35    36    1
    42    20    23    1
@<TRIPOS>MOLECULE
*****
 38 42 0 0 0
SMALL
GASTEIGER

@<TRIPOS>ATOM
      1 C          49.1409    9.7173  -22.4559 C.2     1  UNL1        0.2506
      2 O          49.3177    8.4743  -22.5759 O.2     1  UNL1       -0.2699
      3 N          49.1104   10.5572  -23.6308 N.am    1  UNL1       -0.2680
      4 C          49.5940   11.9394  -23.5723 C.3     1  UNL1        0.1412
      5 C          51.1196   11.9536  -23.4667 C.3     1  UNL1        0.2268
      6 O          51.6998   10.7212  -23.8970 O.3     1  UNL1       -0.4739
      7 C          51.5336   10.1823  -25.1789 C.ar    1  UNL1        0.1362
      8 C          52.6877    9.9476  -25.9325 C.ar    1  UNL1        0.0366
      9 C          52.6064    9.4130  -27.2175 C.ar    1  UNL1        0.0031
     10 C          51.3613    9.0860  -27.7737 C.ar    1  UNL1       -0.0000
     11 C          50.1993    9.2980  -27.0126 C.ar    1  UNL1        0.0004
     12 C          50.2635    9.8355  -25.7148 C.ar    1  UNL1        0.0317
     13 C          48.9520    9.9632  -24.9612 C.3     1  UNL1        0.1236
     14 C          51.2747    8.5160  -29.1420 C.ar    1  UNL1        0.0015
     15 C          52.3529    8.6727  -30.0579 C.ar    1  UNL1        0.0016
     16 C          52.2802    8.1354  -31.3568 C.ar    1  UNL1        0.0206
     17 C          51.1230    7.4502  -31.7107 C.ar    1  UNL1        0.0985
     18 N          50.8422    6.8597  -32.8862 N.ar    1  UNL1       -0.2241
     19 C          49.5994    6.3498  -32.6786 C.ar    1  UNL1        0.1750
     20 N          49.1123    6.6003  -31.4394 N.ar    1  UNL1       -0.3349
     21 C          50.0869    7.2965  -30.8428 C.ar    1  UNL1        0.0757
     22 C          50.1158    7.8112  -29.5497 C.ar    1  UNL1        0.0185
     23 H          48.1889    6.3146  -31.0445 H       1  UNL1        0.1675
     24 C          47.7870   10.9483  -20.7243 C.ar    1  UNL1        0.0462
     25 C          48.9743   10.2857  -21.1016 C.ar    1  UNL1        0.0664
     26 C          50.0360   10.1970  -20.1979 C.ar    1  UNL1        0.0070
     27 C          49.9368   10.7636  -18.9315 C.ar    1  UNL1        0.0182
     28 C          48.7663   11.4197  -18.5266 C.ar    1  UNL1        0.1029
     29 C          47.6567   11.4737  -19.4118 C.ar    1  UNL1        0.0085
     30 C          46.3469   12.0876  -18.9708 C.3     1  UNL1        0.0337
     31 S          48.7108   12.1458  -16.9057 S.O2    1  UNL1        0.0102
     32 C          50.3363   12.4836  -16.2567 C.3     1  UNL1        0.1816
     33 O          48.0059   11.2101  -15.9646 O.2     1  UNL1       -0.1686
     34 O          47.9693   13.4520  -16.9636 O.2     1  UNL1       -0.1686
     35 N          46.6999   11.0386  -21.6598 N.pl3   1  UNL1       -0.3327
     36 H          46.4878   10.1948  -22.2394 H       1  UNL1        0.1468
     37 C          45.9105   12.2154  -23.6588 C.3     1  UNL1        0.0229
     38 C          46.2727   12.3344  -22.1840 C.3     1  UNL1        0.0871
@<TRIPOS>BOND
     1    37    38    1
     2    38    35    1
     3    35    24    1
     4    24    25   ar
     5    25     1    1
     6     1     2    2
     7     1     3   am
     8     3     4    1
     9     4     5    1
    10     5     6    1
    11     6     7    1
    12     7     8   ar
    13     8     9   ar
    14     9    10   ar
    15    10    14    1
    16    14    15   ar
    17    15    16   ar
    18    16    17   ar
    19    17    18   ar
    20    18    19   ar
    21    19    20   ar
    22    20    21   ar
    23    21    22   ar
    24    10    11   ar
    25    11    12   ar
    26    12    13    1
    27    25    26   ar
    28    26    27   ar
    29    27    28   ar
    30    28    31    1
    31    31    32    1
    32    31    33    2
    33    31    34    2
    34    28    29   ar
    35    29    30    1
    36    29    24   ar
    37    13     3    1
    38    12     7   ar
    39    22    14   ar
    40    21    17   ar
    41    35    36    1
    42    20    23    1
@<TRIPOS>MOLECULE
*****
 38 42 0 0 0
SMALL
GASTEIGER

@<TRIPOS>ATOM
      1 C          49.8482   10.5311  -20.4833 C.2     1  UNL1        0.2506
      2 O          50.5909    9.5178  -20.5947 O.2     1  UNL1       -0.2699
      3 N          49.2193   11.0953  -21.6550 N.am    1  UNL1       -0.2680
      4 C          48.9634   12.5355  -21.7437 C.3     1  UNL1        0.1412
      5 C          50.2791   13.2866  -21.9529 C.3     1  UNL1        0.2268
      6 O          51.3116   12.4341  -22.4505 O.3     1  UNL1       -0.4739
      7 C          51.2267   11.7200  -23.6523 C.ar    1  UNL1        0.1362
      8 C          52.2078   11.9666  -24.6176 C.ar    1  UNL1        0.0366
      9 C          52.1930   11.2962  -25.8399 C.ar    1  UNL1        0.0031
     10 C          51.1981   10.3478  -26.1183 C.ar    1  UNL1       -0.0000
     11 C          50.2227   10.0787  -25.1432 C.ar    1  UNL1        0.0004
     12 C          50.2235   10.7452  -23.9050 C.ar    1  UNL1        0.0317
     13 C          49.1604   10.3307  -22.9040 C.3     1  UNL1        0.1236
     14 C          51.1827    9.6333  -27.4198 C.ar    1  UNL1        0.0015
     15 C          52.3722    9.5174  -28.1927 C.ar    1  UNL1        0.0016
     16 C          52.3675    8.8414  -29.4273 C.ar    1  UNL1        0.0206
     17 C          51.1650    8.2946  -29.8620 C.ar    1  UNL1        0.0985
     18 N          50.9333    7.6119  -30.9976 N.ar    1  UNL1       -0.2241
     19 C          49.6091    7.3184  -30.9084 C.ar    1  UNL1        0.1750
     20 N          49.0262    7.7872  -29.7789 N.ar    1  UNL1       -0.3349
     21 C          50.0229    8.4013  -29.1309 C.ar    1  UNL1        0.0757
     22 C          49.9818    9.0608  -27.9056 C.ar    1  UNL1        0.0185
     23 H          48.0290    7.6900  -29.4851 H       1  UNL1        0.1675
     24 C          50.7105   11.7182  -18.4355 C.ar    1  UNL1        0.0462
     25 C          49.6456   11.1220  -19.1437 C.ar    1  UNL1        0.0664
     26 C          48.3797   11.0458  -18.5575 C.ar    1  UNL1        0.0070
     27 C          48.1610   11.5450  -17.2779 C.ar    1  UNL1        0.0182
     28 C          49.1979   12.1505  -16.5550 C.ar    1  UNL1        0.1029
     29 C          50.4784   12.2854  -17.1547 C.ar    1  UNL1        0.0085
     30 C          51.5913   13.0199  -16.4413 C.3     1  UNL1        0.0337
     31 S          48.8619   12.7452  -14.9145 S.O2    1  UNL1        0.0102
     32 C          48.1778   14.3913  -14.9155 C.3     1  UNL1        0.1816
     33 O          50.1366   12.7584  -14.1187 O.2     1  UNL1       -0.1686
     34 O          47.8624   11.8432  -14.2462 O.2     1  UNL1       -0.1686
     35 N          52.0108   11.7907  -19.0430 N.pl3   1  UNL1       -0.3327
     36 H          52.6609   10.9855  -18.8943 H       1  UNL1        0.1468
     37 C          53.9012   12.8847  -20.1538 C.3     1  UNL1        0.0229
     38 C          52.6108   13.0830  -19.3689 C.3     1  UNL1        0.0871
@<TRIPOS>BOND
     1    37    38    1
     2    38    35    1
     3    35    24    1
     4    24    25   ar
     5    25     1    1
     6     1     2    2
     7     1     3   am
     8     3     4    1
     9     4     5    1
    10     5     6    1
    11     6     7    1
    12     7     8   ar
    13     8     9   ar
    14     9    10   ar
    15    10    14    1
    16    14    15   ar
    17    15    16   ar
    18    16    17   ar
    19    17    18   ar
    20    18    19   ar
    21    19    20   ar
    22    20    21   ar
    23    21    22   ar
    24    10    11   ar
    25    11    12   ar
    26    12    13    1
    27    25    26   ar
    28    26    27   ar
    29    27    28   ar
    30    28    31    1
    31    31    32    1
    32    31    33    2
    33    31    34    2
    34    28    29   ar
    35    29    30    1
    36    29    24   ar
    37    13     3    1
    38    12     7   ar
    39    22    14   ar
    40    21    17   ar
    41    35    36    1
    42    20    23    1
