@<TRIPOS>MOLECULE
*****
 42 46 0 0 0
SMALL
GASTEIGER

@<TRIPOS>ATOM
      1 C          -7.5194  -13.5998   28.1635 C.ar    1  UNL1        0.0922
      2 C          -8.7366  -13.9698   28.7791 C.ar    1  UNL1        0.0284
      3 C          -9.2204  -13.1788   29.8182 C.ar    1  UNL1        0.1033
      4 N         -10.3611  -13.3548   30.5085 N.ar    1  UNL1       -0.2134
      5 C         -10.3467  -12.3188   31.3852 C.ar    1  UNL1        0.2019
      6 N          -9.2360  -11.5354   31.2898 N.ar    1  UNL1       -0.2950
      7 C          -8.8453  -10.4025   32.1298 C.3     1  UNL1        0.1333
      8 C          -8.5451  -12.0822   30.2719 C.ar    1  UNL1        0.1173
      9 C          -7.3245  -11.6970   29.7104 C.ar    1  UNL1        0.1897
     10 C          -6.8148  -12.4584   28.6373 C.ar    1  UNL1        0.1782
     11 O          -5.5919  -12.0726   28.0746 O.3     1  UNL1       -0.4682
     12 C          -5.0298  -10.7836   28.3298 C.3     1  UNL1        0.2526
     13 C          -5.2362  -10.3975   29.7988 C.3     1  UNL1        0.2527
     14 O          -6.6005  -10.5945   30.1741 O.3     1  UNL1       -0.4669
     15 N          -7.8224  -14.6829   25.8912 N.am    1  UNL1       -0.2803
     16 C          -7.0038  -14.4147   27.0440 C.2     1  UNL1        0.2526
     17 O          -5.8329  -14.8773   27.1162 O.2     1  UNL1       -0.2697
     18 H          -8.7727  -14.2529   25.8395 H       1  UNL1        0.1552
     19 C          -5.7350  -15.7991   22.9958 C.ar    1  UNL1        0.0359
     20 C          -6.1783  -15.1010   24.1281 C.ar    1  UNL1        0.0150
     21 C          -7.3830  -15.4435   24.7537 C.ar    1  UNL1        0.0504
     22 C          -8.1663  -16.4800   24.2202 C.ar    1  UNL1        0.0208
     23 C          -7.7252  -17.2101   23.1013 C.ar    1  UNL1        0.0998
     24 C          -6.5022  -16.8656   22.4962 C.ar    1  UNL1        0.1424
     25 F          -6.0632  -17.5621   21.4146 F       1  UNL1       -0.2045
     26 C          -8.5546  -18.3332   22.5241 C.3     1  UNL1        0.4207
     27 F          -7.8430  -19.5164   22.6025 F       1  UNL1       -0.1658
     28 F          -9.7273  -18.4628   23.2463 F       1  UNL1       -0.1658
     29 F          -8.8827  -18.1024   21.1991 F       1  UNL1       -0.1658
     30 C          -4.4160  -15.4477   22.3645 C.3     1  UNL1        0.1710
     31 C          -2.4358  -16.4579   21.7646 C.3     1  UNL1        0.1746
     32 O          -3.4615  -16.4207   22.7311 O.3     1  UNL1       -0.3463
     33 N         -11.4139  -12.1043   32.3191 N.pl3   1  UNL1       -0.2814
     34 H         -11.6537  -11.1155   32.5550 H       1  UNL1        0.1551
     35 C         -12.0516  -13.1566   33.0642 C.ar    1  UNL1        0.0889
     36 C         -13.2751  -13.7122   32.6342 C.ar    1  UNL1        0.1543
     37 F         -13.8714  -13.2856   31.4926 F       1  UNL1       -0.2028
     38 C         -13.8776  -14.7391   33.3666 C.ar    1  UNL1        0.0310
     39 C         -13.2674  -15.2294   34.5219 C.ar    1  UNL1        0.0033
     40 C         -12.0482  -14.6991   34.9473 C.ar    1  UNL1        0.0128
     41 C         -11.4347  -13.6706   34.2227 C.ar    1  UNL1        0.0733
     42 CL         -9.9131  -13.0141   34.8121 Cl      1  UNL1       -0.0809
@<TRIPOS>BOND
     1    31    32    1
     2    32    30    1
     3    30    19    1
     4    19    20   ar
     5    20    21   ar
     6    21    15    1
     7    15    16   am
     8    16    17    2
     9    16     1    1
    10     1     2   ar
    11     2     3   ar
    12     3     4   ar
    13     4     5   ar
    14     5    33    1
    15    33    35    1
    16    35    36   ar
    17    36    37    1
    18    36    38   ar
    19    38    39   ar
    20    39    40   ar
    21    40    41   ar
    22    41    42    1
    23     5     6   ar
    24     6     7    1
    25     6     8   ar
    26     8     9   ar
    27     9    10   ar
    28    10    11    1
    29    11    12    1
    30    12    13    1
    31    13    14    1
    32    21    22   ar
    33    22    23   ar
    34    23    26    1
    35    26    27    1
    36    26    28    1
    37    26    29    1
    38    23    24   ar
    39    24    25    1
    40    24    19   ar
    41    10     1   ar
    42     8     3   ar
    43    14     9    1
    44    41    35   ar
    45    15    18    1
    46    33    34    1
@<TRIPOS>MOLECULE
*****
 42 46 0 0 0
SMALL
GASTEIGER

@<TRIPOS>ATOM
      1 C          -7.6489  -13.5438   28.2587 C.ar    1  UNL1        0.0922
      2 C          -8.8468  -13.9176   28.9090 C.ar    1  UNL1        0.0284
      3 C          -9.2794  -13.1540   29.9903 C.ar    1  UNL1        0.1033
      4 N         -10.3953  -13.3373   30.7183 N.ar    1  UNL1       -0.2134
      5 C         -10.3329  -12.3301   31.6259 C.ar    1  UNL1        0.2019
      6 N          -9.2157  -11.5584   31.5123 N.ar    1  UNL1       -0.2950
      7 C          -8.7774  -10.4580   32.3717 C.3     1  UNL1        0.1333
      8 C          -8.5719  -12.0812   30.4518 C.ar    1  UNL1        0.1173
      9 C          -7.3684  -11.6940   29.8560 C.ar    1  UNL1        0.1897
     10 C          -6.9108  -12.4272   28.7407 C.ar    1  UNL1        0.1782
     11 O          -5.7050  -12.0393   28.1436 O.3     1  UNL1       -0.4682
     12 C          -5.1155  -10.7665   28.4172 C.3     1  UNL1        0.2526
     13 C          -5.2602  -10.4249   29.9045 C.3     1  UNL1        0.2527
     14 O          -6.6118  -10.6162   30.3258 O.3     1  UNL1       -0.4669
     15 N          -8.0936  -14.6638   26.0280 N.am    1  UNL1       -0.2803
     16 C          -7.1879  -14.3291   27.0951 C.2     1  UNL1        0.2526
     17 O          -5.9856  -14.7071   27.0532 O.2     1  UNL1       -0.2697
     18 H          -9.0726  -14.3025   26.0689 H       1  UNL1        0.1552
     19 C          -8.0927  -17.2934   23.3687 C.ar    1  UNL1        0.0359
     20 C          -8.4542  -16.5310   24.4886 C.ar    1  UNL1        0.0150
     21 C          -7.7138  -15.4004   24.8539 C.ar    1  UNL1        0.0504
     22 C          -6.5804  -15.0468   24.1036 C.ar    1  UNL1        0.0208
     23 C          -6.2177  -15.7831   22.9609 C.ar    1  UNL1        0.0998
     24 C          -6.9845  -16.9055   22.5962 C.ar    1  UNL1        0.1424
     25 F          -6.6462  -17.6263   21.4945 F       1  UNL1       -0.2045
     26 C          -5.0061  -15.4070   22.1405 C.3     1  UNL1        0.4207
     27 F          -5.3947  -15.1536   20.8376 F       1  UNL1       -0.1658
     28 F          -4.4238  -14.2682   22.6675 F       1  UNL1       -0.1658
     29 F          -4.0580  -16.4157   22.1301 F       1  UNL1       -0.1658
     30 C          -8.9268  -18.4776   22.9643 C.3     1  UNL1        0.1710
     31 C          -9.8636  -20.0999   24.3030 C.3     1  UNL1        0.1746
     32 O          -9.8809  -18.7292   23.9735 O.3     1  UNL1       -0.3463
     33 N         -11.3605  -12.1319   32.6066 N.pl3   1  UNL1       -0.2814
     34 H         -11.4598  -11.1739   33.0107 H       1  UNL1        0.1551
     35 C         -12.1398  -13.1971   33.1786 C.ar    1  UNL1        0.0889
     36 C         -13.3630  -13.5942   32.5984 C.ar    1  UNL1        0.1543
     37 F         -13.8257  -12.9983   31.4708 F       1  UNL1       -0.2028
     38 C         -14.1043  -14.6360   33.1634 C.ar    1  UNL1        0.0310
     39 C         -13.6340  -15.2978   34.2984 C.ar    1  UNL1        0.0033
     40 C         -12.4167  -14.9248   34.8708 C.ar    1  UNL1        0.0128
     41 C         -11.6651  -13.8832   34.3147 C.ar    1  UNL1        0.0733
     42 CL        -10.1511  -13.4292   35.0864 Cl      1  UNL1       -0.0809
@<TRIPOS>BOND
     1    31    32    1
     2    32    30    1
     3    30    19    1
     4    19    20   ar
     5    20    21   ar
     6    21    15    1
     7    15    16   am
     8    16    17    2
     9    16     1    1
    10     1     2   ar
    11     2     3   ar
    12     3     4   ar
    13     4     5   ar
    14     5    33    1
    15    33    35    1
    16    35    36   ar
    17    36    37    1
    18    36    38   ar
    19    38    39   ar
    20    39    40   ar
    21    40    41   ar
    22    41    42    1
    23     5     6   ar
    24     6     7    1
    25     6     8   ar
    26     8     9   ar
    27     9    10   ar
    28    10    11    1
    29    11    12    1
    30    12    13    1
    31    13    14    1
    32    21    22   ar
    33    22    23   ar
    34    23    26    1
    35    26    27    1
    36    26    28    1
    37    26    29    1
    38    23    24   ar
    39    24    25    1
    40    24    19   ar
    41    10     1   ar
    42     8     3   ar
    43    14     9    1
    44    41    35   ar
    45    15    18    1
    46    33    34    1
@<TRIPOS>MOLECULE
*****
 42 46 0 0 0
SMALL
GASTEIGER

@<TRIPOS>ATOM
      1 C          -6.1834  -15.5531   25.3083 C.ar    1  UNL1        0.0922
      2 C          -4.8997  -16.0602   25.0042 C.ar    1  UNL1        0.0284
      3 C          -4.7847  -17.0053   23.9879 C.ar    1  UNL1        0.1033
      4 N          -3.6557  -17.5849   23.5428 N.ar    1  UNL1       -0.2134
      5 C          -4.1048  -18.4069   22.5606 C.ar    1  UNL1        0.2019
      6 N          -5.4582  -18.3858   22.4045 N.ar    1  UNL1       -0.2950
      7 C          -6.2858  -19.2045   21.5176 C.3     1  UNL1        0.1333
      8 C          -5.8698  -17.4706   23.3020 C.ar    1  UNL1        0.1173
      9 C          -7.1602  -17.0170   23.5893 C.ar    1  UNL1        0.1897
     10 C          -7.3142  -16.0392   24.5950 C.ar    1  UNL1        0.1782
     11 O          -8.6070  -15.5845   24.8830 O.3     1  UNL1       -0.4682
     12 C          -9.6976  -15.8318   23.9930 C.3     1  UNL1        0.2526
     13 C          -9.6046  -17.2519   23.4235 C.3     1  UNL1        0.2527
     14 O          -8.2901  -17.4968   22.9203 O.3     1  UNL1       -0.4669
     15 N          -7.4740  -14.5149   27.2280 N.am    1  UNL1       -0.2803
     16 C          -6.3202  -14.5324   26.3679 C.2     1  UNL1        0.2526
     17 O          -5.4098  -13.6707   26.5047 O.2     1  UNL1       -0.2697
     18 H          -8.1922  -15.2652   27.1193 H       1  UNL1        0.1552
     19 C          -9.1781  -12.4629   29.8494 C.ar    1  UNL1        0.0359
     20 C          -8.9475  -13.3981   28.8304 C.ar    1  UNL1        0.0150
     21 C          -7.6655  -13.5719   28.2954 C.ar    1  UNL1        0.0504
     22 C          -6.6079  -12.7779   28.7683 C.ar    1  UNL1        0.0208
     23 C          -6.8138  -11.8537   29.8089 C.ar    1  UNL1        0.0998
     24 C          -8.1048  -11.7054   30.3491 C.ar    1  UNL1        0.1424
     25 F          -8.3187  -10.8166   31.3550 F       1  UNL1       -0.2045
     26 C          -5.6820  -11.0007   30.3322 C.3     1  UNL1        0.4207
     27 F          -5.0116  -11.6880   31.3276 F       1  UNL1       -0.1658
     28 F          -4.7994  -10.7191   29.3049 F       1  UNL1       -0.1658
     29 F          -6.1390   -9.8027   30.8540 F       1  UNL1       -0.1658
     30 C         -10.5523  -12.3226   30.4441 C.3     1  UNL1        0.1710
     31 C         -10.9637  -12.6272   32.6890 C.3     1  UNL1        0.1746
     32 O         -10.7063  -13.2823   31.4674 O.3     1  UNL1       -0.3463
     33 N          -3.2104  -19.2168   21.7853 N.pl3   1  UNL1       -0.2814
     34 H          -3.3573  -20.2507   21.8083 H       1  UNL1        0.1551
     35 C          -2.0394  -18.7093   21.1219 C.ar    1  UNL1        0.0889
     36 C          -0.7972  -19.3682   21.2362 C.ar    1  UNL1        0.1543
     37 F          -0.6786  -20.5125   21.9555 F       1  UNL1       -0.2028
     38 C           0.3294  -18.8650   20.5791 C.ar    1  UNL1        0.0310
     39 C           0.2304  -17.7138   19.7965 C.ar    1  UNL1        0.0033
     40 C          -0.9973  -17.0633   19.6623 C.ar    1  UNL1        0.0128
     41 C          -2.1327  -17.5572   20.3152 C.ar    1  UNL1        0.0733
     42 CL         -3.6521  -16.6886   20.1398 Cl      1  UNL1       -0.0809
@<TRIPOS>BOND
     1    31    32    1
     2    32    30    1
     3    30    19    1
     4    19    20   ar
     5    20    21   ar
     6    21    15    1
     7    15    16   am
     8    16    17    2
     9    16     1    1
    10     1     2   ar
    11     2     3   ar
    12     3     4   ar
    13     4     5   ar
    14     5    33    1
    15    33    35    1
    16    35    36   ar
    17    36    37    1
    18    36    38   ar
    19    38    39   ar
    20    39    40   ar
    21    40    41   ar
    22    41    42    1
    23     5     6   ar
    24     6     7    1
    25     6     8   ar
    26     8     9   ar
    27     9    10   ar
    28    10    11    1
    29    11    12    1
    30    12    13    1
    31    13    14    1
    32    21    22   ar
    33    22    23   ar
    34    23    26    1
    35    26    27    1
    36    26    28    1
    37    26    29    1
    38    23    24   ar
    39    24    25    1
    40    24    19   ar
    41    10     1   ar
    42     8     3   ar
    43    14     9    1
    44    41    35   ar
    45    15    18    1
    46    33    34    1
@<TRIPOS>MOLECULE
*****
 42 46 0 0 0
SMALL
GASTEIGER

@<TRIPOS>ATOM
      1 C          -8.0019  -15.7488   26.0862 C.ar    1  UNL1        0.0922
      2 C          -6.9424  -15.1931   25.3340 C.ar    1  UNL1        0.0284
      3 C          -6.6554  -15.7435   24.0873 C.ar    1  UNL1        0.1033
      4 N          -5.7069  -15.3427   23.2222 N.ar    1  UNL1       -0.2134
      5 C          -5.8604  -16.2043   22.1848 C.ar    1  UNL1        0.2019
      6 N          -6.8339  -17.1361   22.3858 N.ar    1  UNL1       -0.2950
      7 C          -7.2042  -18.2655   21.5319 C.3     1  UNL1        0.1333
      8 C          -7.3449  -16.8112   23.5882 C.ar    1  UNL1        0.1173
      9 C          -8.3812  -17.4089   24.3108 C.ar    1  UNL1        0.1897
     10 C          -8.7190  -16.8624   25.5672 C.ar    1  UNL1        0.1782
     11 O          -9.7574  -17.4610   26.2913 O.3     1  UNL1       -0.4682
     12 C         -10.6688  -18.3701   25.6704 C.3     1  UNL1        0.2526
     13 C          -9.9201  -19.2900   24.6995 C.3     1  UNL1        0.2527
     14 O          -9.0846  -18.5191   23.8341 O.3     1  UNL1       -0.4669
     15 N          -8.1622  -13.7537   27.6426 N.am    1  UNL1       -0.2803
     16 C          -8.3349  -15.1618   27.4007 C.2     1  UNL1        0.2526
     17 O          -8.7696  -15.9168   28.3123 O.2     1  UNL1       -0.2697
     18 H          -7.8400  -13.1455   26.8572 H       1  UNL1        0.1552
     19 C         -10.1491  -12.5773   30.5845 C.ar    1  UNL1        0.0359
     20 C          -9.7863  -13.2229   29.3938 C.ar    1  UNL1        0.0150
     21 C          -8.4878  -13.1063   28.8836 C.ar    1  UNL1        0.0504
     22 C          -7.5502  -12.3094   29.5607 C.ar    1  UNL1        0.0208
     23 C          -7.8873  -11.6761   30.7710 C.ar    1  UNL1        0.0998
     24 C          -9.1913  -11.8196   31.2803 C.ar    1  UNL1        0.1424
     25 F          -9.5313  -11.2137   32.4486 F       1  UNL1       -0.2045
     26 C          -6.8846  -10.8239   31.5132 C.3     1  UNL1        0.4207
     27 F          -5.6438  -10.9496   30.9154 F       1  UNL1       -0.1658
     28 F          -7.2765   -9.4981   31.4655 F       1  UNL1       -0.1658
     29 F          -6.7744  -11.1977   32.8415 F       1  UNL1       -0.1658
     30 C         -11.5350  -12.7514   31.1420 C.3     1  UNL1        0.1710
     31 C         -12.2901  -13.3520   33.2325 C.3     1  UNL1        0.1746
     32 O         -11.5047  -13.7554   32.1335 O.3     1  UNL1       -0.3463
     33 N          -5.0485  -16.1194   21.0056 N.pl3   1  UNL1       -0.2814
     34 H          -5.4767  -15.6835   20.1585 H       1  UNL1        0.1551
     35 C          -3.7575  -16.7399   20.8741 C.ar    1  UNL1        0.0889
     36 C          -2.6197  -16.1885   21.5001 C.ar    1  UNL1        0.1543
     37 F          -2.7168  -15.0711   22.2635 F       1  UNL1       -0.2028
     38 C          -1.3738  -16.8084   21.3675 C.ar    1  UNL1        0.0310
     39 C          -1.2490  -17.9829   20.6243 C.ar    1  UNL1        0.0033
     40 C          -2.3711  -18.5469   20.0149 C.ar    1  UNL1        0.0128
     41 C          -3.6242  -17.9359   20.1401 C.ar    1  UNL1        0.0733
     42 CL         -5.0045  -18.6670   19.3315 Cl      1  UNL1       -0.0809
@<TRIPOS>BOND
     1    31    32    1
     2    32    30    1
     3    30    19    1
     4    19    20   ar
     5    20    21   ar
     6    21    15    1
     7    15    16   am
     8    16    17    2
     9    16     1    1
    10     1     2   ar
    11     2     3   ar
    12     3     4   ar
    13     4     5   ar
    14     5    33    1
    15    33    35    1
    16    35    36   ar
    17    36    37    1
    18    36    38   ar
    19    38    39   ar
    20    39    40   ar
    21    40    41   ar
    22    41    42    1
    23     5     6   ar
    24     6     7    1
    25     6     8   ar
    26     8     9   ar
    27     9    10   ar
    28    10    11    1
    29    11    12    1
    30    12    13    1
    31    13    14    1
    32    21    22   ar
    33    22    23   ar
    34    23    26    1
    35    26    27    1
    36    26    28    1
    37    26    29    1
    38    23    24   ar
    39    24    25    1
    40    24    19   ar
    41    10     1   ar
    42     8     3   ar
    43    14     9    1
    44    41    35   ar
    45    15    18    1
    46    33    34    1
@<TRIPOS>MOLECULE
*****
 42 46 0 0 0
SMALL
GASTEIGER

@<TRIPOS>ATOM
      1 C          -8.0826  -15.7627   26.1417 C.ar    1  UNL1        0.0922
      2 C          -7.0319  -15.1899   25.3898 C.ar    1  UNL1        0.0284
      3 C          -6.7440  -15.7277   24.1378 C.ar    1  UNL1        0.1033
      4 N          -5.8031  -15.3101   23.2723 N.ar    1  UNL1       -0.2134
      5 C          -5.9515  -16.1653   22.2288 C.ar    1  UNL1        0.2019
      6 N          -6.9143  -17.1090   22.4263 N.ar    1  UNL1       -0.2950
      7 C          -7.2759  -18.2356   21.5650 C.3     1  UNL1        0.1333
      8 C          -7.4240  -16.7988   23.6331 C.ar    1  UNL1        0.1173
      9 C          -8.4511  -17.4130   24.3550 C.ar    1  UNL1        0.1897
     10 C          -8.7898  -16.8798   25.6168 C.ar    1  UNL1        0.1782
     11 O          -9.8190  -17.4950   26.3402 O.3     1  UNL1       -0.4682
     12 C         -10.7231  -18.4090   25.7159 C.3     1  UNL1        0.2526
     13 C          -9.9684  -19.3133   24.7350 C.3     1  UNL1        0.2527
     14 O          -9.1445  -18.5269   23.8724 O.3     1  UNL1       -0.4669
     15 N          -8.3813  -13.7668   27.6765 N.am    1  UNL1       -0.2803
     16 C          -8.4166  -15.1894   27.4620 C.2     1  UNL1        0.2526
     17 O          -8.7296  -15.9685   28.4027 O.2     1  UNL1       -0.2697
     18 H          -8.1591  -13.1429   26.8690 H       1  UNL1        0.1552
     19 C          -8.1122  -11.5867   30.7033 C.ar    1  UNL1        0.0359
     20 C          -7.8332  -12.1989   29.4731 C.ar    1  UNL1        0.0150
     21 C          -8.7175  -13.1340   28.9223 C.ar    1  UNL1        0.0504
     22 C          -9.8816  -13.4804   29.6276 C.ar    1  UNL1        0.0208
     23 C         -10.1925  -12.8570   30.8499 C.ar    1  UNL1        0.0998
     24 C          -9.3024  -11.9045   31.3801 C.ar    1  UNL1        0.1424
     25 F          -9.5897  -11.2939   32.5600 F       1  UNL1       -0.2045
     26 C         -11.4464  -13.2145   31.6132 C.3     1  UNL1        0.4207
     27 F         -12.4863  -12.4060   31.1920 F       1  UNL1       -0.1658
     28 F         -11.7758  -14.5362   31.3720 F       1  UNL1       -0.1658
     29 F         -11.2833  -13.0486   32.9779 F       1  UNL1       -0.1658
     30 C          -7.1738  -10.5503   31.2574 C.3     1  UNL1        0.1710
     31 C          -4.9522  -11.1053   31.4980 C.3     1  UNL1        0.1746
     32 O          -6.2292  -11.1889   32.0893 O.3     1  UNL1       -0.3463
     33 N          -5.1451  -16.0627   21.0472 N.pl3   1  UNL1       -0.2814
     34 H          -5.5746  -15.6071   20.2112 H       1  UNL1        0.1551
     35 C          -3.8593  -16.6895   20.8965 C.ar    1  UNL1        0.0889
     36 C          -2.7136  -16.1560   21.5236 C.ar    1  UNL1        0.1543
     37 F          -2.7979  -15.0507   22.3058 F       1  UNL1       -0.2028
     38 C          -1.4728  -16.7819   21.3721 C.ar    1  UNL1        0.0310
     39 C          -1.3611  -17.9449   20.6089 C.ar    1  UNL1        0.0033
     40 C          -2.4911  -18.4913   19.9982 C.ar    1  UNL1        0.0128
     41 C          -3.7391  -17.8741   20.1421 C.ar    1  UNL1        0.0733
     42 CL         -5.1298  -18.5827   19.3313 Cl      1  UNL1       -0.0809
@<TRIPOS>BOND
     1    31    32    1
     2    32    30    1
     3    30    19    1
     4    19    20   ar
     5    20    21   ar
     6    21    15    1
     7    15    16   am
     8    16    17    2
     9    16     1    1
    10     1     2   ar
    11     2     3   ar
    12     3     4   ar
    13     4     5   ar
    14     5    33    1
    15    33    35    1
    16    35    36   ar
    17    36    37    1
    18    36    38   ar
    19    38    39   ar
    20    39    40   ar
    21    40    41   ar
    22    41    42    1
    23     5     6   ar
    24     6     7    1
    25     6     8   ar
    26     8     9   ar
    27     9    10   ar
    28    10    11    1
    29    11    12    1
    30    12    13    1
    31    13    14    1
    32    21    22   ar
    33    22    23   ar
    34    23    26    1
    35    26    27    1
    36    26    28    1
    37    26    29    1
    38    23    24   ar
    39    24    25    1
    40    24    19   ar
    41    10     1   ar
    42     8     3   ar
    43    14     9    1
    44    41    35   ar
    45    15    18    1
    46    33    34    1
@<TRIPOS>MOLECULE
*****
 42 46 0 0 0
SMALL
GASTEIGER

@<TRIPOS>ATOM
      1 C          -6.1600  -15.5446   25.3014 C.ar    1  UNL1        0.0922
      2 C          -4.8685  -16.0431   25.0168 C.ar    1  UNL1        0.0284
      3 C          -4.7325  -16.9911   24.0057 C.ar    1  UNL1        0.1033
      4 N          -3.5931  -17.5638   23.5783 N.ar    1  UNL1       -0.2134
      5 C          -4.0226  -18.3927   22.5931 C.ar    1  UNL1        0.2019
      6 N          -5.3738  -18.3824   22.4184 N.ar    1  UNL1       -0.2950
      7 C          -6.1831  -19.2105   21.5234 C.3     1  UNL1        0.1333
      8 C          -5.8046  -17.4671   23.3068 C.ar    1  UNL1        0.1173
      9 C          -7.1021  -17.0221   23.5747 C.ar    1  UNL1        0.1897
     10 C          -7.2772  -16.0419   24.5746 C.ar    1  UNL1        0.1782
     11 O          -8.5772  -15.5959   24.8432 O.3     1  UNL1       -0.4682
     12 C          -9.6535  -15.8546   23.9393 C.3     1  UNL1        0.2526
     13 C          -9.5421  -17.2760   23.3765 C.3     1  UNL1        0.2527
     14 O          -8.2191  -17.5129   22.8921 O.3     1  UNL1       -0.4669
     15 N          -7.4743  -14.5219   27.2132 N.am    1  UNL1       -0.2803
     16 C          -6.3189  -14.5212   26.3552 C.2     1  UNL1        0.2526
     17 O          -5.4260  -13.6409   26.4888 O.2     1  UNL1       -0.2697
     18 H          -8.1773  -15.2868   27.1074 H       1  UNL1        0.1552
     19 C          -6.7764  -11.8801   29.7668 C.ar    1  UNL1        0.0359
     20 C          -6.6149  -12.7884   28.7108 C.ar    1  UNL1        0.0150
     21 C          -7.6864  -13.5771   28.2751 C.ar    1  UNL1        0.0504
     22 C          -8.9271  -13.4740   28.9253 C.ar    1  UNL1        0.0208
     23 C          -9.1162  -12.5491   29.9684 C.ar    1  UNL1        0.0998
     24 C          -8.0339  -11.7499   30.3811 C.ar    1  UNL1        0.1424
     25 F          -8.2017  -10.8518   31.3875 F       1  UNL1       -0.2045
     26 C         -10.4487  -12.4226   30.6691 C.3     1  UNL1        0.4207
     27 F         -11.3133  -11.6847   29.8814 F       1  UNL1       -0.1658
     28 F         -10.9867  -13.6805   30.8741 F       1  UNL1       -0.1658
     29 F         -10.3270  -11.7959   31.8975 F       1  UNL1       -0.1658
     30 C          -5.6269  -11.0080   30.1907 C.3     1  UNL1        0.1710
     31 C          -5.6547   -9.0078   29.0507 C.3     1  UNL1        0.1746
     32 O          -5.1365  -10.3189   29.0608 O.3     1  UNL1       -0.3463
     33 N          -3.1117  -19.1987   21.8332 N.pl3   1  UNL1       -0.2814
     34 H          -3.2586  -20.2327   21.8481 H       1  UNL1        0.1551
     35 C          -1.9270  -18.6877   21.1971 C.ar    1  UNL1        0.0889
     36 C          -0.7110  -19.4013   21.2467 C.ar    1  UNL1        0.1543
     37 F          -0.6319  -20.6012   21.8751 F       1  UNL1       -0.2028
     38 C           0.4291  -18.8934   20.6172 C.ar    1  UNL1        0.0310
     39 C           0.3694  -17.6826   19.9260 C.ar    1  UNL1        0.0033
     40 C          -0.8327  -16.9764   19.8557 C.ar    1  UNL1        0.0128
     41 C          -1.9813  -17.4743   20.4819 C.ar    1  UNL1        0.0733
     42 CL         -3.4664  -16.5364   20.3906 Cl      1  UNL1       -0.0809
@<TRIPOS>BOND
     1    31    32    1
     2    32    30    1
     3    30    19    1
     4    19    20   ar
     5    20    21   ar
     6    21    15    1
     7    15    16   am
     8    16    17    2
     9    16     1    1
    10     1     2   ar
    11     2     3   ar
    12     3     4   ar
    13     4     5   ar
    14     5    33    1
    15    33    35    1
    16    35    36   ar
    17    36    37    1
    18    36    38   ar
    19    38    39   ar
    20    39    40   ar
    21    40    41   ar
    22    41    42    1
    23     5     6   ar
    24     6     7    1
    25     6     8   ar
    26     8     9   ar
    27     9    10   ar
    28    10    11    1
    29    11    12    1
    30    12    13    1
    31    13    14    1
    32    21    22   ar
    33    22    23   ar
    34    23    26    1
    35    26    27    1
    36    26    28    1
    37    26    29    1
    38    23    24   ar
    39    24    25    1
    40    24    19   ar
    41    10     1   ar
    42     8     3   ar
    43    14     9    1
    44    41    35   ar
    45    15    18    1
    46    33    34    1
@<TRIPOS>MOLECULE
*****
 42 46 0 0 0
SMALL
GASTEIGER

@<TRIPOS>ATOM
      1 C          -7.4611  -13.2795   28.3528 C.ar    1  UNL1        0.0922
      2 C          -8.6364  -13.6863   29.0242 C.ar    1  UNL1        0.0284
      3 C          -9.0537  -12.9527   30.1320 C.ar    1  UNL1        0.1033
      4 N         -10.1480  -13.1694   30.8832 N.ar    1  UNL1       -0.2134
      5 C         -10.0788  -12.1806   31.8104 C.ar    1  UNL1        0.2019
      6 N          -8.9771  -11.3887   31.6858 N.ar    1  UNL1       -0.2950
      7 C          -8.5347  -10.2996   32.5575 C.3     1  UNL1        0.1333
      8 C          -8.3519  -11.8785   30.5988 C.ar    1  UNL1        0.1173
      9 C          -7.1699  -11.4594   29.9820 C.ar    1  UNL1        0.1897
     10 C          -6.7288  -12.1615   28.8402 C.ar    1  UNL1        0.1782
     11 O          -5.5445  -11.7416   28.2220 O.3     1  UNL1       -0.4682
     12 C          -4.9685  -10.4654   28.5082 C.3     1  UNL1        0.2526
     13 C          -5.0812  -10.1575   30.0056 C.3     1  UNL1        0.2527
     14 O          -6.4188  -10.3796   30.4559 O.3     1  UNL1       -0.4669
     15 N          -7.9655  -14.7415   26.3437 N.am    1  UNL1       -0.2803
     16 C          -7.0170  -14.0326   27.1616 C.2     1  UNL1        0.2526
     17 O          -5.7894  -14.0487   26.8741 O.2     1  UNL1       -0.2697
     18 H          -8.9803  -14.6768   26.5815 H       1  UNL1        0.1552
     19 C          -6.1123  -15.7746   23.2639 C.ar    1  UNL1        0.0359
     20 C          -6.4675  -15.1053   24.4437 C.ar    1  UNL1        0.0150
     21 C          -7.6141  -15.4732   25.1577 C.ar    1  UNL1        0.0504
     22 C          -8.4297  -16.5059   24.6670 C.ar    1  UNL1        0.0208
     23 C          -8.0755  -17.2074   23.5001 C.ar    1  UNL1        0.0998
     24 C          -6.9089  -16.8378   22.8050 C.ar    1  UNL1        0.1424
     25 F          -6.5540  -17.5066   21.6762 F       1  UNL1       -0.2045
     26 C          -8.9399  -18.3262   22.9676 C.3     1  UNL1        0.4207
     27 F         -10.0268  -18.5042   23.8040 F       1  UNL1       -0.1658
     28 F          -9.3929  -18.0007   21.7017 F       1  UNL1       -0.1658
     29 F          -8.2446  -19.5205   22.8873 F       1  UNL1       -0.1658
     30 C          -4.8522  -15.3965   22.5352 C.3     1  UNL1        0.1710
     31 C          -5.4865  -14.7140   20.4296 C.3     1  UNL1        0.1746
     32 O          -5.1168  -14.2766   21.7178 O.3     1  UNL1       -0.3463
     33 N         -11.0846  -12.0198   32.8201 N.pl3   1  UNL1       -0.2814
     34 H         -11.1418  -11.0923   33.2969 H       1  UNL1        0.1551
     35 C         -11.8959  -13.0959   33.3229 C.ar    1  UNL1        0.0889
     36 C         -11.4688  -13.8770   34.4174 C.ar    1  UNL1        0.1543
     37 F         -10.2919  -13.6187   35.0411 F       1  UNL1       -0.2028
     38 C         -12.2730  -14.9147   34.8976 C.ar    1  UNL1        0.0310
     39 C         -13.5086  -15.1778   34.3049 C.ar    1  UNL1        0.0033
     40 C         -13.9491  -14.4004   33.2325 C.ar    1  UNL1        0.0128
     41 C         -13.1532  -13.3585   32.7423 C.ar    1  UNL1        0.0733
     42 CL        -13.7365  -12.4237   31.3714 Cl      1  UNL1       -0.0809
@<TRIPOS>BOND
     1    31    32    1
     2    32    30    1
     3    30    19    1
     4    19    20   ar
     5    20    21   ar
     6    21    15    1
     7    15    16   am
     8    16    17    2
     9    16     1    1
    10     1     2   ar
    11     2     3   ar
    12     3     4   ar
    13     4     5   ar
    14     5    33    1
    15    33    35    1
    16    35    36   ar
    17    36    37    1
    18    36    38   ar
    19    38    39   ar
    20    39    40   ar
    21    40    41   ar
    22    41    42    1
    23     5     6   ar
    24     6     7    1
    25     6     8   ar
    26     8     9   ar
    27     9    10   ar
    28    10    11    1
    29    11    12    1
    30    12    13    1
    31    13    14    1
    32    21    22   ar
    33    22    23   ar
    34    23    26    1
    35    26    27    1
    36    26    28    1
    37    26    29    1
    38    23    24   ar
    39    24    25    1
    40    24    19   ar
    41    10     1   ar
    42     8     3   ar
    43    14     9    1
    44    41    35   ar
    45    15    18    1
    46    33    34    1
@<TRIPOS>MOLECULE
*****
 42 46 0 0 0
SMALL
GASTEIGER

@<TRIPOS>ATOM
      1 C          -7.1856  -12.8122   28.6829 C.ar    1  UNL1        0.0922
      2 C          -8.4452  -13.2687   29.1329 C.ar    1  UNL1        0.0284
      3 C          -8.9889  -12.6905   30.2772 C.ar    1  UNL1        0.1033
      4 N         -10.1751  -12.9737   30.8442 N.ar    1  UNL1       -0.2134
      5 C         -10.2083  -12.1350   31.9107 C.ar    1  UNL1        0.2019
      6 N          -9.0853  -11.3753   32.0456 N.ar    1  UNL1       -0.2950
      7 C          -8.7396  -10.4432   33.1196 C.3     1  UNL1        0.1333
      8 C          -8.3337  -11.7235   30.9844 C.ar    1  UNL1        0.1173
      9 C          -7.0743  -11.2630   30.5906 C.ar    1  UNL1        0.1897
     10 C          -6.5020  -11.8061   29.4206 C.ar    1  UNL1        0.1782
     11 O          -5.2402  -11.3448   29.0259 O.3     1  UNL1       -0.4682
     12 C          -4.6826  -10.1469   29.5706 C.3     1  UNL1        0.2526
     13 C          -4.9827  -10.0580   31.0711 C.3     1  UNL1        0.2527
     14 O          -6.3711  -10.2934   31.3117 O.3     1  UNL1       -0.4669
     15 N          -7.2671  -14.4774   26.7727 N.am    1  UNL1       -0.2803
     16 C          -6.6049  -13.3985   27.4571 C.2     1  UNL1        0.2526
     17 O          -5.5139  -12.9408   27.0209 O.2     1  UNL1       -0.2697
     18 H          -8.1897  -14.8088   27.1326 H       1  UNL1        0.1552
     19 C          -7.0729  -15.5127   23.1842 C.ar    1  UNL1        0.0359
     20 C          -7.5011  -14.9108   24.3761 C.ar    1  UNL1        0.0150
     21 C          -6.7788  -15.0808   25.5632 C.ar    1  UNL1        0.0504
     22 C          -5.6292  -15.8876   25.5609 C.ar    1  UNL1        0.0208
     23 C          -5.1685  -16.4775   24.3696 C.ar    1  UNL1        0.0998
     24 C          -5.8956  -16.2803   23.1809 C.ar    1  UNL1        0.1424
     25 F          -5.4625  -16.8438   22.0222 F       1  UNL1       -0.2045
     26 C          -3.9281  -17.3397   24.3529 C.3     1  UNL1        0.4207
     27 F          -2.9258  -16.6884   23.6572 F       1  UNL1       -0.1658
     28 F          -3.5032  -17.5672   25.6496 F       1  UNL1       -0.1658
     29 F          -4.1601  -18.5640   23.7498 F       1  UNL1       -0.1658
     30 C          -7.8356  -15.2812   21.9088 C.3     1  UNL1        0.1710
     31 C          -9.9762  -16.0796   21.6230 C.3     1  UNL1        0.1746
     32 O          -8.6099  -16.4270   21.6263 O.3     1  UNL1       -0.3463
     33 N         -11.3332  -12.0864   32.7991 N.pl3   1  UNL1       -0.2814
     34 H         -11.5235  -11.1807   33.2833 H       1  UNL1        0.1551
     35 C         -12.1023  -13.2396   33.1835 C.ar    1  UNL1        0.0889
     36 C         -13.2626  -13.6089   32.4709 C.ar    1  UNL1        0.1543
     37 F         -13.6711  -12.9002   31.3885 F       1  UNL1       -0.2028
     38 C         -13.9944  -14.7367   32.8540 C.ar    1  UNL1        0.0310
     39 C         -13.5760  -15.5112   33.9367 C.ar    1  UNL1        0.0033
     40 C         -12.4199  -15.1652   34.6383 C.ar    1  UNL1        0.0128
     41 C         -11.6784  -14.0383   34.2648 C.ar    1  UNL1        0.0733
     42 CL        -10.2444  -13.6248   35.1955 Cl      1  UNL1       -0.0809
@<TRIPOS>BOND
     1    31    32    1
     2    32    30    1
     3    30    19    1
     4    19    20   ar
     5    20    21   ar
     6    21    15    1
     7    15    16   am
     8    16    17    2
     9    16     1    1
    10     1     2   ar
    11     2     3   ar
    12     3     4   ar
    13     4     5   ar
    14     5    33    1
    15    33    35    1
    16    35    36   ar
    17    36    37    1
    18    36    38   ar
    19    38    39   ar
    20    39    40   ar
    21    40    41   ar
    22    41    42    1
    23     5     6   ar
    24     6     7    1
    25     6     8   ar
    26     8     9   ar
    27     9    10   ar
    28    10    11    1
    29    11    12    1
    30    12    13    1
    31    13    14    1
    32    21    22   ar
    33    22    23   ar
    34    23    26    1
    35    26    27    1
    36    26    28    1
    37    26    29    1
    38    23    24   ar
    39    24    25    1
    40    24    19   ar
    41    10     1   ar
    42     8     3   ar
    43    14     9    1
    44    41    35   ar
    45    15    18    1
    46    33    34    1
@<TRIPOS>MOLECULE
*****
 42 46 0 0 0
SMALL
GASTEIGER

@<TRIPOS>ATOM
      1 C          -7.1890  -12.7459   28.7756 C.ar    1  UNL1        0.0922
      2 C          -8.4479  -13.2232   29.2056 C.ar    1  UNL1        0.0284
      3 C          -9.0241  -12.6468   30.3349 C.ar    1  UNL1        0.1033
      4 N         -10.2152  -12.9487   30.8818 N.ar    1  UNL1       -0.2134
      5 C         -10.2846  -12.1026   31.9408 C.ar    1  UNL1        0.2019
      6 N          -9.1791  -11.3203   32.0906 N.ar    1  UNL1       -0.2950
      7 C          -8.8717  -10.3736   33.1634 C.3     1  UNL1        0.1333
      8 C          -8.4011  -11.6620   31.0464 C.ar    1  UNL1        0.1173
      9 C          -7.1435  -11.1803   30.6727 C.ar    1  UNL1        0.1897
     10 C          -6.5389  -11.7212   29.5180 C.ar    1  UNL1        0.1782
     11 O          -5.2789  -11.2386   29.1433 O.3     1  UNL1       -0.4682
     12 C          -4.7548  -10.0260   29.6888 C.3     1  UNL1        0.2526
     13 C          -5.0848   -9.9315   31.1827 C.3     1  UNL1        0.2527
     14 O          -6.4728  -10.1918   31.3991 O.3     1  UNL1       -0.4669
     15 N          -7.1704  -14.4655   26.9126 N.am    1  UNL1       -0.2803
     16 C          -6.5742  -13.3302   27.5657 C.2     1  UNL1        0.2526
     17 O          -5.5126  -12.8202   27.1152 O.2     1  UNL1       -0.2697
     18 H          -8.0715  -14.8415   27.2831 H       1  UNL1        0.1552
     19 C          -4.8942  -16.3758   24.6418 C.ar    1  UNL1        0.0359
     20 C          -5.4524  -15.7988   25.7915 C.ar    1  UNL1        0.0150
     21 C          -6.6467  -15.0720   25.7196 C.ar    1  UNL1        0.0504
     22 C          -7.2736  -14.8978   24.4749 C.ar    1  UNL1        0.0208
     23 C          -6.7438  -15.4920   23.3149 C.ar    1  UNL1        0.0998
     24 C          -5.5528  -16.2359   23.4080 C.ar    1  UNL1        0.1424
     25 F          -5.0292  -16.8159   22.2958 F       1  UNL1       -0.2045
     26 C          -7.4142  -15.3194   21.9720 C.3     1  UNL1        0.4207
     27 F          -8.4941  -14.4656   22.1045 F       1  UNL1       -0.1658
     28 F          -6.5163  -14.7752   21.0713 F       1  UNL1       -0.1658
     29 F          -7.8648  -16.5252   21.4628 F       1  UNL1       -0.1658
     30 C          -3.6354  -17.1921   24.7457 C.3     1  UNL1        0.1710
     31 C          -2.3941  -18.0255   22.9946 C.3     1  UNL1        0.1746
     32 O          -3.6138  -18.1326   23.6935 O.3     1  UNL1       -0.3463
     33 N         -11.4268  -12.0690   32.8075 N.pl3   1  UNL1       -0.2814
     34 H         -11.6465  -11.1621   33.2769 H       1  UNL1        0.1551
     35 C         -12.1769  -13.2346   33.1917 C.ar    1  UNL1        0.0889
     36 C         -13.3408  -13.6130   32.4899 C.ar    1  UNL1        0.1543
     37 F         -13.7707  -12.9013   31.4178 F       1  UNL1       -0.2028
     38 C         -14.0539  -14.7528   32.8726 C.ar    1  UNL1        0.0310
     39 C         -13.6132  -15.5304   33.9443 C.ar    1  UNL1        0.0033
     40 C         -12.4533  -15.1752   34.6351 C.ar    1  UNL1        0.0128
     41 C         -11.7304  -14.0362   34.2618 C.ar    1  UNL1        0.0733
     42 CL        -10.2908  -13.6119   35.1789 Cl      1  UNL1       -0.0809
@<TRIPOS>BOND
     1    31    32    1
     2    32    30    1
     3    30    19    1
     4    19    20   ar
     5    20    21   ar
     6    21    15    1
     7    15    16   am
     8    16    17    2
     9    16     1    1
    10     1     2   ar
    11     2     3   ar
    12     3     4   ar
    13     4     5   ar
    14     5    33    1
    15    33    35    1
    16    35    36   ar
    17    36    37    1
    18    36    38   ar
    19    38    39   ar
    20    39    40   ar
    21    40    41   ar
    22    41    42    1
    23     5     6   ar
    24     6     7    1
    25     6     8   ar
    26     8     9   ar
    27     9    10   ar
    28    10    11    1
    29    11    12    1
    30    12    13    1
    31    13    14    1
    32    21    22   ar
    33    22    23   ar
    34    23    26    1
    35    26    27    1
    36    26    28    1
    37    26    29    1
    38    23    24   ar
    39    24    25    1
    40    24    19   ar
    41    10     1   ar
    42     8     3   ar
    43    14     9    1
    44    41    35   ar
    45    15    18    1
    46    33    34    1
