@<TRIPOS>MOLECULE
*****
 36 38 0 0 0
SMALL
GASTEIGER

@<TRIPOS>ATOM
      1 C         -22.7465   -8.0352  -16.3619 C.ar    1  UNL1        0.0209
      2 C         -21.3796   -7.7179  -16.3506 C.ar    1  UNL1       -0.0007
      3 C         -20.4209   -8.7283  -16.4536 C.ar    1  UNL1       -0.0005
      4 C         -20.8177  -10.0634  -16.5554 C.ar    1  UNL1       -0.0029
      5 C         -22.1809  -10.3970  -16.5639 C.ar    1  UNL1       -0.0063
      6 C         -23.1423   -9.3775  -16.4778 C.ar    1  UNL1       -0.0036
      7 C         -23.7673   -6.9438  -16.1840 C.3     1  UNL1        0.2320
      8 O         -23.9083   -6.2020  -17.3961 O.3     1  UNL1       -0.4706
      9 C         -27.2625   -3.9210  -18.5789 C.ar    1  UNL1       -0.0097
     10 C         -26.5376   -4.6915  -19.5065 C.ar    1  UNL1       -0.0002
     11 C         -25.4400   -5.4502  -19.0923 C.ar    1  UNL1        0.0366
     12 C         -25.0362   -5.4458  -17.7532 C.ar    1  UNL1        0.1390
     13 C         -25.7704   -4.6920  -16.8192 C.ar    1  UNL1        0.0366
     14 C         -26.8731   -3.9389  -17.2297 C.ar    1  UNL1       -0.0002
     15 C         -28.4533   -3.0892  -19.0141 C.3     1  UNL1        0.0973
     16 C         -31.2007   -2.8972  -15.9243 C.3     1  UNL1        0.0900
     17 C         -30.2350   -2.9620  -17.0207 C.1     1  UNL1       -0.0897
     18 C         -29.4358   -3.0170  -17.9215 C.1     1  UNL1       -0.0870
     19 C         -28.0406   -1.6727  -19.4529 C.3     1  UNL1        0.1267
     20 C         -27.6902   -1.6329  -20.9121 C.2     1  UNL1        0.3152
     21 O         -28.4807   -2.1206  -21.7621 O.2     1  UNL1       -0.2502
     22 O         -26.5134   -1.0259  -21.3407 O.3     1  UNL1       -0.4801
     23 H         -25.8679   -0.6109  -20.6794 H       1  UNL1        0.2951
     24 C         -22.5984  -11.8423  -16.6191 C.3     1  UNL1        0.0996
     25 N         -22.9772  -12.3285  -15.2726 N.3     1  UNL1       -0.2579
     26 C         -21.8438  -13.0599  -14.6621 C.3     1  UNL1        0.1001
     27 C         -21.4161  -12.4044  -13.3804 C.ar    1  UNL1        0.0009
     28 C         -20.5499  -13.0057  -12.4537 C.ar    1  UNL1        0.0046
     29 C         -20.3180  -12.2288  -11.3277 C.ar    1  UNL1        0.0352
     30 S         -21.1922  -10.8025  -11.4886 S.2     1  UNL1       -0.0862
     31 C         -21.8721  -11.1513  -12.9848 C.ar    1  UNL1        0.0325
     32 C         -24.2106  -13.1627  -15.3129 C.3     1  UNL1        0.1772
     33 C         -25.3735  -12.4383  -14.6308 C.3     1  UNL1        0.4121
     34 F         -24.9440  -11.8284  -13.4673 F       1  UNL1       -0.1685
     35 F         -25.8729  -11.4709  -15.4820 F       1  UNL1       -0.1685
     36 F         -26.3880  -13.3267  -14.3282 F       1  UNL1       -0.1685
@<TRIPOS>BOND
     1    16    17    1
     2    17    18    3
     3    18    15    1
     4    15    19    1
     5    19    20    1
     6    20    21    2
     7    20    22    1
     8    15     9    1
     9     9    10   ar
    10    10    11   ar
    11    11    12   ar
    12    12     8    1
    13     8     7    1
    14     7     1    1
    15     1     2   ar
    16     2     3   ar
    17     3     4   ar
    18     4     5   ar
    19     5    24    1
    20    24    25    1
    21    25    26    1
    22    26    27    1
    23    27    28   ar
    24    28    29   ar
    25    29    30   ar
    26    30    31   ar
    27    25    32    1
    28    32    33    1
    29    33    34    1
    30    33    35    1
    31    33    36    1
    32     5     6   ar
    33    12    13   ar
    34    13    14   ar
    35    14     9   ar
    36     6     1   ar
    37    31    27   ar
    38    22    23    1
@<TRIPOS>MOLECULE
*****
 36 38 0 0 0
SMALL
GASTEIGER

@<TRIPOS>ATOM
      1 C         -22.8280   -7.7022  -16.4375 C.ar    1  UNL1        0.0209
      2 C         -21.4530   -7.8844  -16.6508 C.ar    1  UNL1       -0.0007
      3 C         -20.6144   -8.2272  -15.5879 C.ar    1  UNL1       -0.0005
      4 C         -21.1383   -8.3780  -14.3021 C.ar    1  UNL1       -0.0029
      5 C         -22.5106   -8.1951  -14.0720 C.ar    1  UNL1       -0.0063
      6 C         -23.3537   -7.8677  -15.1459 C.ar    1  UNL1       -0.0036
      7 C         -23.7090   -7.2689  -17.5780 C.3     1  UNL1        0.2320
      8 O         -23.8778   -5.8511  -17.5557 O.3     1  UNL1       -0.4706
      9 C         -27.4313   -3.8118  -18.5886 C.ar    1  UNL1       -0.0097
     10 C         -26.7138   -4.5595  -19.5402 C.ar    1  UNL1       -0.0002
     11 C         -25.5487   -5.2385  -19.1749 C.ar    1  UNL1        0.0366
     12 C         -25.0698   -5.1750  -17.8623 C.ar    1  UNL1        0.1390
     13 C         -25.7952   -4.4444  -16.9034 C.ar    1  UNL1        0.0366
     14 C         -26.9648   -3.7714  -17.2646 C.ar    1  UNL1       -0.0002
     15 C         -28.6952   -3.0663  -18.9710 C.3     1  UNL1        0.0973
     16 C         -31.2316   -2.8919  -15.7048 C.3     1  UNL1        0.0900
     17 C         -30.3401   -2.9491  -16.8627 C.1     1  UNL1       -0.0897
     18 C         -29.6022   -2.9988  -17.8147 C.1     1  UNL1       -0.0870
     19 C         -28.3958   -1.6506  -19.4957 C.3     1  UNL1        0.1267
     20 C         -27.7949   -1.6930  -20.8708 C.2     1  UNL1        0.3152
     21 O         -28.4782   -2.1093  -21.8430 O.2     1  UNL1       -0.2502
     22 O         -26.4976   -1.2392  -21.0902 O.3     1  UNL1       -0.4801
     23 H         -25.9320   -0.8836  -20.3288 H       1  UNL1        0.2951
     24 C         -23.0574   -8.3061  -12.6739 C.3     1  UNL1        0.0996
     25 N         -24.4222   -8.8806  -12.6907 N.3     1  UNL1       -0.2579
     26 C         -25.3236   -8.0667  -11.8437 C.3     1  UNL1        0.1001
     27 C         -26.2067   -7.1957  -12.6903 C.ar    1  UNL1        0.0009
     28 C         -26.0353   -5.8081  -12.8164 C.ar    1  UNL1        0.0046
     29 C         -26.9864   -5.2042  -13.6261 C.ar    1  UNL1        0.0352
     30 S         -28.0355   -6.3959  -14.1773 S.2     1  UNL1       -0.0862
     31 C         -27.2971   -7.6889  -13.3991 C.ar    1  UNL1        0.0325
     32 C         -24.4247  -10.3117  -12.2774 C.3     1  UNL1        0.1772
     33 C         -24.7367  -11.2168  -13.4716 C.3     1  UNL1        0.4121
     34 F         -25.7846  -10.6971  -14.2079 F       1  UNL1       -0.1685
     35 F         -23.6222  -11.3037  -14.2840 F       1  UNL1       -0.1685
     36 F         -25.0712  -12.4874  -13.0429 F       1  UNL1       -0.1685
@<TRIPOS>BOND
     1    16    17    1
     2    17    18    3
     3    18    15    1
     4    15    19    1
     5    19    20    1
     6    20    21    2
     7    20    22    1
     8    15     9    1
     9     9    10   ar
    10    10    11   ar
    11    11    12   ar
    12    12     8    1
    13     8     7    1
    14     7     1    1
    15     1     2   ar
    16     2     3   ar
    17     3     4   ar
    18     4     5   ar
    19     5    24    1
    20    24    25    1
    21    25    26    1
    22    26    27    1
    23    27    28   ar
    24    28    29   ar
    25    29    30   ar
    26    30    31   ar
    27    25    32    1
    28    32    33    1
    29    33    34    1
    30    33    35    1
    31    33    36    1
    32     5     6   ar
    33    12    13   ar
    34    13    14   ar
    35    14     9   ar
    36     6     1   ar
    37    31    27   ar
    38    22    23    1
@<TRIPOS>MOLECULE
*****
 36 38 0 0 0
SMALL
GASTEIGER

@<TRIPOS>ATOM
      1 C         -22.8633   -7.8037  -16.4929 C.ar    1  UNL1        0.0209
      2 C         -21.4657   -7.8575  -16.6076 C.ar    1  UNL1       -0.0007
      3 C         -20.6888   -8.3222  -15.5440 C.ar    1  UNL1       -0.0005
      4 C         -21.2986   -8.7242  -14.3537 C.ar    1  UNL1       -0.0029
      5 C         -22.6949   -8.6723  -14.2221 C.ar    1  UNL1       -0.0063
      6 C         -23.4742   -8.2212  -15.2994 C.ar    1  UNL1       -0.0036
      7 C         -23.6834   -7.2394  -17.6215 C.3     1  UNL1        0.2320
      8 O         -23.9335   -5.8512  -17.3995 O.3     1  UNL1       -0.4706
      9 C         -27.4212   -3.7734  -18.5707 C.ar    1  UNL1       -0.0097
     10 C         -26.9705   -3.7536  -17.2381 C.ar    1  UNL1       -0.0002
     11 C         -25.8066   -4.4355  -16.8742 C.ar    1  UNL1        0.0366
     12 C         -25.0790   -5.1591  -17.8245 C.ar    1  UNL1        0.1390
     13 C         -25.5157   -5.1651  -19.1620 C.ar    1  UNL1        0.0366
     14 C         -26.6747   -4.4773  -19.5297 C.ar    1  UNL1       -0.0002
     15 C         -28.6846   -3.0417  -18.9800 C.3     1  UNL1        0.0973
     16 C         -31.3083   -2.8355  -15.7854 C.3     1  UNL1        0.0900
     17 C         -30.3772   -2.9135  -16.9104 C.1     1  UNL1       -0.0897
     18 C         -29.6123   -2.9748  -17.8402 C.1     1  UNL1       -0.0870
     19 C         -28.3885   -1.6266  -19.5086 C.3     1  UNL1        0.1267
     20 C         -27.8094   -1.6704  -20.8929 C.2     1  UNL1        0.3152
     21 O         -28.4888   -2.1383  -21.8441 O.2     1  UNL1       -0.2502
     22 O         -26.5386   -1.1619  -21.1445 O.3     1  UNL1       -0.4801
     23 H         -25.9774   -0.7644  -20.4006 H       1  UNL1        0.2951
     24 C         -23.3395   -9.0559  -12.9170 C.3     1  UNL1        0.0996
     25 N         -23.1563  -10.5006  -12.6484 N.3     1  UNL1       -0.2579
     26 C         -24.4720  -11.1787  -12.6119 C.3     1  UNL1        0.1001
     27 C         -24.5486  -12.2486  -13.6630 C.ar    1  UNL1        0.0009
     28 C         -25.3989  -13.3621  -13.5751 C.ar    1  UNL1        0.0046
     29 C         -25.2795  -14.2357  -14.6464 C.ar    1  UNL1        0.0352
     30 S         -24.1170  -13.6219  -15.6935 S.2     1  UNL1       -0.0862
     31 C         -23.7534  -12.2437  -14.8042 C.ar    1  UNL1        0.0325
     32 C         -22.3825  -10.7366  -11.3977 C.3     1  UNL1        0.1772
     33 C         -21.0345  -11.3893  -11.7131 C.3     1  UNL1        0.4121
     34 F         -20.9646  -11.7252  -13.0520 F       1  UNL1       -0.1685
     35 F         -20.0165  -10.5008  -11.4236 F       1  UNL1       -0.1685
     36 F         -20.8568  -12.5284  -10.9509 F       1  UNL1       -0.1685
@<TRIPOS>BOND
     1    16    17    1
     2    17    18    3
     3    18    15    1
     4    15    19    1
     5    19    20    1
     6    20    21    2
     7    20    22    1
     8    15     9    1
     9     9    10   ar
    10    10    11   ar
    11    11    12   ar
    12    12     8    1
    13     8     7    1
    14     7     1    1
    15     1     2   ar
    16     2     3   ar
    17     3     4   ar
    18     4     5   ar
    19     5    24    1
    20    24    25    1
    21    25    26    1
    22    26    27    1
    23    27    28   ar
    24    28    29   ar
    25    29    30   ar
    26    30    31   ar
    27    25    32    1
    28    32    33    1
    29    33    34    1
    30    33    35    1
    31    33    36    1
    32     5     6   ar
    33    12    13   ar
    34    13    14   ar
    35    14     9   ar
    36     6     1   ar
    37    31    27   ar
    38    22    23    1
@<TRIPOS>MOLECULE
*****
 36 38 0 0 0
SMALL
GASTEIGER

@<TRIPOS>ATOM
      1 C         -24.6922   -9.1983  -12.6413 C.ar    1  UNL1        0.0209
      2 C         -24.3482  -10.0353  -11.5687 C.ar    1  UNL1       -0.0007
      3 C         -24.2242  -11.4130  -11.7617 C.ar    1  UNL1       -0.0005
      4 C         -24.4550  -11.9678  -13.0224 C.ar    1  UNL1       -0.0029
      5 C         -24.8038  -11.1444  -14.1040 C.ar    1  UNL1       -0.0063
      6 C         -24.9105   -9.7579  -13.9106 C.ar    1  UNL1       -0.0036
      7 C         -24.8868   -7.7248  -12.4053 C.3     1  UNL1        0.2320
      8 O         -25.0414   -7.0449  -13.6515 O.3     1  UNL1       -0.4706
      9 C         -28.5075   -5.0008  -14.9402 C.ar    1  UNL1       -0.0097
     10 C         -27.2203   -4.5022  -15.2122 C.ar    1  UNL1       -0.0002
     11 C         -26.0865   -5.2008  -14.7897 C.ar    1  UNL1        0.0366
     12 C         -26.2125   -6.3987  -14.0788 C.ar    1  UNL1        0.1390
     13 C         -27.4976   -6.9106  -13.8220 C.ar    1  UNL1        0.0366
     14 C         -28.6325   -6.2178  -14.2505 C.ar    1  UNL1       -0.0002
     15 C         -29.7473   -4.2518  -15.3886 C.3     1  UNL1        0.0973
     16 C         -28.9665   -2.2883  -18.9477 C.3     1  UNL1        0.0900
     17 C         -29.2488   -2.9847  -17.6930 C.1     1  UNL1       -0.0897
     18 C         -29.4774   -3.5573  -16.6572 C.1     1  UNL1       -0.0870
     19 C         -30.9632   -5.1834  -15.5404 C.3     1  UNL1        0.1267
     20 C         -32.0646   -4.8031  -14.5938 C.2     1  UNL1        0.3152
     21 O         -32.3409   -3.5892  -14.4058 O.2     1  UNL1       -0.2502
     22 O         -32.8122   -5.7834  -13.9480 O.3     1  UNL1       -0.4801
     23 H         -32.6220   -6.7676  -14.0943 H       1  UNL1        0.2951
     24 C         -25.1038  -11.7569  -15.4460 C.3     1  UNL1        0.0996
     25 N         -23.9158  -12.4659  -15.9741 N.3     1  UNL1       -0.2579
     26 C         -23.4048  -11.7695  -17.1766 C.3     1  UNL1        0.1001
     27 C         -22.7751  -10.4579  -16.8045 C.ar    1  UNL1        0.0009
     28 C         -23.2708   -9.2134  -17.2242 C.ar    1  UNL1        0.0046
     29 C         -22.5113   -8.1384  -16.7853 C.ar    1  UNL1        0.0352
     30 S         -21.2280   -8.7401  -15.8820 S.2     1  UNL1       -0.0862
     31 C         -21.6200  -10.3666  -16.0350 C.ar    1  UNL1        0.0325
     32 C         -24.2066  -13.9001  -16.2526 C.3     1  UNL1        0.1772
     33 C         -23.4489  -14.8029  -15.2763 C.3     1  UNL1        0.4121
     34 F         -22.3662  -14.1308  -14.7413 F       1  UNL1       -0.1685
     35 F         -24.2933  -15.1762  -14.2480 F       1  UNL1       -0.1685
     36 F         -23.0020  -15.9431  -15.9169 F       1  UNL1       -0.1685
@<TRIPOS>BOND
     1    16    17    1
     2    17    18    3
     3    18    15    1
     4    15    19    1
     5    19    20    1
     6    20    21    2
     7    20    22    1
     8    15     9    1
     9     9    10   ar
    10    10    11   ar
    11    11    12   ar
    12    12     8    1
    13     8     7    1
    14     7     1    1
    15     1     2   ar
    16     2     3   ar
    17     3     4   ar
    18     4     5   ar
    19     5    24    1
    20    24    25    1
    21    25    26    1
    22    26    27    1
    23    27    28   ar
    24    28    29   ar
    25    29    30   ar
    26    30    31   ar
    27    25    32    1
    28    32    33    1
    29    33    34    1
    30    33    35    1
    31    33    36    1
    32     5     6   ar
    33    12    13   ar
    34    13    14   ar
    35    14     9   ar
    36     6     1   ar
    37    31    27   ar
    38    22    23    1
@<TRIPOS>MOLECULE
*****
 36 38 0 0 0
SMALL
GASTEIGER

@<TRIPOS>ATOM
      1 C         -23.4036   -8.3695  -14.5927 C.ar    1  UNL1        0.0209
      2 C         -22.2974   -7.8652  -15.2937 C.ar    1  UNL1       -0.0007
      3 C         -21.6876   -8.6290  -16.2914 C.ar    1  UNL1       -0.0005
      4 C         -22.1679   -9.9062  -16.5885 C.ar    1  UNL1       -0.0029
      5 C         -23.2707  -10.4261  -15.8935 C.ar    1  UNL1       -0.0063
      6 C         -23.8924   -9.6488  -14.9032 C.ar    1  UNL1       -0.0036
      7 C         -24.0098   -7.5635  -13.4757 C.3     1  UNL1        0.2320
      8 O         -25.3966   -7.8768  -13.3418 O.3     1  UNL1       -0.4706
      9 C         -28.5097   -5.3873  -14.7431 C.ar    1  UNL1       -0.0097
     10 C         -27.1617   -4.9948  -14.8342 C.ar    1  UNL1       -0.0002
     11 C         -26.1461   -5.8390  -14.3780 C.ar    1  UNL1        0.0366
     12 C         -26.4532   -7.0805  -13.8119 C.ar    1  UNL1        0.1390
     13 C         -27.7987   -7.4848  -13.7370 C.ar    1  UNL1        0.0366
     14 C         -28.8153   -6.6458  -14.1999 C.ar    1  UNL1       -0.0002
     15 C         -29.6230   -4.4803  -15.2301 C.3     1  UNL1        0.0973
     16 C         -28.4606   -2.6260  -18.7433 C.3     1  UNL1        0.0900
     17 C         -28.8733   -3.2745  -17.4991 C.1     1  UNL1       -0.0897
     18 C         -29.2125   -3.8132  -16.4754 C.1     1  UNL1       -0.0870
     19 C         -30.9407   -5.2460  -15.4461 C.3     1  UNL1        0.1267
     20 C         -31.9995   -4.7945  -14.4824 C.2     1  UNL1        0.3152
     21 O         -32.1855   -3.5652  -14.2832 O.2     1  UNL1       -0.2502
     22 O         -32.8072   -5.7232  -13.8328 O.3     1  UNL1       -0.4801
     23 H         -32.6902   -6.7174  -13.9877 H       1  UNL1        0.2951
     24 C         -23.7475  -11.8244  -16.1825 C.3     1  UNL1        0.0996
     25 N         -23.5909  -12.6871  -14.9891 N.3     1  UNL1       -0.2579
     26 C         -22.2134  -13.2274  -14.9334 C.3     1  UNL1        0.1001
     27 C         -21.5448  -12.8476  -13.6434 C.ar    1  UNL1        0.0009
     28 C         -20.4789  -13.5680  -13.0815 C.ar    1  UNL1        0.0046
     29 C         -20.0392  -13.0518  -11.8710 C.ar    1  UNL1        0.0352
     30 S         -20.9784  -11.7070  -11.5048 S.2     1  UNL1       -0.0862
     31 C         -21.9502  -11.7620  -12.8741 C.ar    1  UNL1        0.0325
     32 C         -24.6085  -13.7743  -14.9556 C.3     1  UNL1        0.1772
     33 C         -25.5401  -13.6034  -13.7533 C.3     1  UNL1        0.4121
     34 F         -25.2550  -12.4262  -13.0877 F       1  UNL1       -0.1685
     35 F         -26.8501  -13.5608  -14.1913 F       1  UNL1       -0.1685
     36 F         -25.4014  -14.6635  -12.8775 F       1  UNL1       -0.1685
@<TRIPOS>BOND
     1    16    17    1
     2    17    18    3
     3    18    15    1
     4    15    19    1
     5    19    20    1
     6    20    21    2
     7    20    22    1
     8    15     9    1
     9     9    10   ar
    10    10    11   ar
    11    11    12   ar
    12    12     8    1
    13     8     7    1
    14     7     1    1
    15     1     2   ar
    16     2     3   ar
    17     3     4   ar
    18     4     5   ar
    19     5    24    1
    20    24    25    1
    21    25    26    1
    22    26    27    1
    23    27    28   ar
    24    28    29   ar
    25    29    30   ar
    26    30    31   ar
    27    25    32    1
    28    32    33    1
    29    33    34    1
    30    33    35    1
    31    33    36    1
    32     5     6   ar
    33    12    13   ar
    34    13    14   ar
    35    14     9   ar
    36     6     1   ar
    37    31    27   ar
    38    22    23    1
@<TRIPOS>MOLECULE
*****
 36 38 0 0 0
SMALL
GASTEIGER

@<TRIPOS>ATOM
      1 C         -21.6960   -9.2673  -16.4361 C.ar    1  UNL1        0.0209
      2 C         -22.7972   -8.8948  -17.2220 C.ar    1  UNL1       -0.0007
      3 C         -23.5983   -9.8702  -17.8200 C.ar    1  UNL1       -0.0005
      4 C         -23.2995  -11.2237  -17.6496 C.ar    1  UNL1       -0.0029
      5 C         -22.1991  -11.6120  -16.8699 C.ar    1  UNL1       -0.0063
      6 C         -21.4062  -10.6294  -16.2558 C.ar    1  UNL1       -0.0036
      7 C         -20.8030   -8.2060  -15.8521 C.3     1  UNL1        0.2320
      8 O         -21.5488   -7.3709  -14.9659 O.3     1  UNL1       -0.4706
      9 C         -21.8253   -8.0325  -10.8019 C.ar    1  UNL1       -0.0097
     10 C         -20.5877   -8.0781  -11.4695 C.ar    1  UNL1       -0.0002
     11 C         -20.5159   -7.8421  -12.8446 C.ar    1  UNL1        0.0366
     12 C         -21.6732   -7.5705  -13.5815 C.ar    1  UNL1        0.1390
     13 C         -22.9101   -7.5048  -12.9142 C.ar    1  UNL1        0.0366
     14 C         -22.9832   -7.7324  -11.5378 C.ar    1  UNL1       -0.0002
     15 C         -21.9195   -8.2905   -9.3106 C.3     1  UNL1        0.0973
     16 C         -25.1881  -10.7090   -8.5363 C.3     1  UNL1        0.0900
     17 C         -24.0312   -9.8548   -8.8027 C.1     1  UNL1       -0.0897
     18 C         -23.0787   -9.1507   -9.0267 C.1     1  UNL1       -0.0870
     19 C         -20.6348   -8.9273   -8.7510 C.3     1  UNL1        0.1267
     20 C         -20.0305   -8.0791   -7.6698 C.2     1  UNL1        0.3152
     21 O         -20.3837   -8.2413   -6.4722 O.2     1  UNL1       -0.2502
     22 O         -19.0517   -7.1374   -7.9733 O.3     1  UNL1       -0.4801
     23 H         -18.7371   -6.9983   -8.9261 H       1  UNL1        0.2951
     24 C         -21.8527  -13.0709  -16.7364 C.3     1  UNL1        0.0996
     25 N         -22.3603  -13.6134  -15.4554 N.3     1  UNL1       -0.2579
     26 C         -21.2304  -13.8814  -14.5368 C.3     1  UNL1        0.1001
     27 C         -21.2878  -12.9717  -13.3433 C.ar    1  UNL1        0.0009
     28 C         -22.3062  -12.0280  -13.1363 C.ar    1  UNL1        0.0046
     29 C         -22.1384  -11.2767  -11.9819 C.ar    1  UNL1        0.0352
     30 S         -20.7255  -11.7866  -11.2280 S.2     1  UNL1       -0.0862
     31 C         -20.3117  -12.9642  -12.3525 C.ar    1  UNL1        0.0325
     32 C         -23.1987  -14.8271  -15.6627 C.3     1  UNL1        0.1772
     33 C         -24.6642  -14.5321  -15.3347 C.3     1  UNL1        0.4121
     34 F         -24.9466  -13.1970  -15.5540 F       1  UNL1       -0.1685
     35 F         -25.4786  -15.2983  -16.1468 F       1  UNL1       -0.1685
     36 F         -24.9382  -14.8418  -14.0160 F       1  UNL1       -0.1685
@<TRIPOS>BOND
     1    16    17    1
     2    17    18    3
     3    18    15    1
     4    15    19    1
     5    19    20    1
     6    20    21    2
     7    20    22    1
     8    15     9    1
     9     9    10   ar
    10    10    11   ar
    11    11    12   ar
    12    12     8    1
    13     8     7    1
    14     7     1    1
    15     1     2   ar
    16     2     3   ar
    17     3     4   ar
    18     4     5   ar
    19     5    24    1
    20    24    25    1
    21    25    26    1
    22    26    27    1
    23    27    28   ar
    24    28    29   ar
    25    29    30   ar
    26    30    31   ar
    27    25    32    1
    28    32    33    1
    29    33    34    1
    30    33    35    1
    31    33    36    1
    32     5     6   ar
    33    12    13   ar
    34    13    14   ar
    35    14     9   ar
    36     6     1   ar
    37    31    27   ar
    38    22    23    1
@<TRIPOS>MOLECULE
*****
 36 38 0 0 0
SMALL
GASTEIGER

@<TRIPOS>ATOM
      1 C         -21.1978  -11.1842  -12.1866 C.ar    1  UNL1        0.0209
      2 C         -20.7109  -12.4473  -11.8170 C.ar    1  UNL1       -0.0007
      3 C         -20.6052  -13.4670  -12.7655 C.ar    1  UNL1       -0.0005
      4 C         -20.9966  -13.2389  -14.0865 C.ar    1  UNL1       -0.0029
      5 C         -21.4894  -11.9822  -14.4708 C.ar    1  UNL1       -0.0063
      6 C         -21.5779  -10.9541  -13.5188 C.ar    1  UNL1       -0.0036
      7 C         -21.3683  -10.1150  -11.1414 C.3     1  UNL1        0.2320
      8 O         -20.0954   -9.5852  -10.7698 O.3     1  UNL1       -0.4706
      9 C         -18.8509   -8.7811   -6.8129 C.ar    1  UNL1       -0.0097
     10 C         -19.8424   -8.0047   -7.4401 C.ar    1  UNL1       -0.0002
     11 C         -20.2502   -8.2961   -8.7442 C.ar    1  UNL1        0.0366
     12 C         -19.6706   -9.3544   -9.4514 C.ar    1  UNL1        0.1390
     13 C         -18.6928  -10.1453   -8.8206 C.ar    1  UNL1        0.0366
     14 C         -18.2893   -9.8608   -7.5138 C.ar    1  UNL1       -0.0002
     15 C         -18.3951   -8.4745   -5.3995 C.3     1  UNL1        0.0973
     16 C         -21.4274   -9.4028   -2.7395 C.3     1  UNL1        0.0900
     17 C         -20.3541   -9.0689   -3.6751 C.1     1  UNL1       -0.0897
     18 C         -19.4704   -8.7974   -4.4488 C.1     1  UNL1       -0.0870
     19 C         -17.1101   -9.2359   -5.0277 C.3     1  UNL1        0.1267
     20 C         -16.1533   -8.3581   -4.2742 C.2     1  UNL1        0.3152
     21 O         -15.1472   -7.8773   -4.8591 O.2     1  UNL1       -0.2502
     22 O         -16.3879   -8.0373   -2.9404 O.3     1  UNL1       -0.4801
     23 H         -17.1986   -8.3968   -2.4507 H       1  UNL1        0.2951
     24 C         -21.9597  -11.7617  -15.8837 C.3     1  UNL1        0.0996
     25 N         -23.0138  -10.7225  -15.9273 N.3     1  UNL1       -0.2579
     26 C         -24.3019  -11.3262  -16.3378 C.3     1  UNL1        0.1001
     27 C         -24.6906  -12.4365  -15.4043 C.ar    1  UNL1        0.0009
     28 C         -24.6059  -13.7969  -15.7401 C.ar    1  UNL1        0.0046
     29 C         -25.0472  -14.6441  -14.7338 C.ar    1  UNL1        0.0352
     30 S         -25.5426  -13.6988  -13.4355 S.2     1  UNL1       -0.0862
     31 C         -25.2027  -12.2079  -14.1314 C.ar    1  UNL1        0.0325
     32 C         -22.6336   -9.5863  -16.8124 C.3     1  UNL1        0.1772
     33 C         -22.2314   -8.3663  -15.9803 C.3     1  UNL1        0.4121
     34 F         -20.9015   -8.4517  -15.6135 F       1  UNL1       -0.1685
     35 F         -22.4133   -7.2201  -16.7304 F       1  UNL1       -0.1685
     36 F         -23.0099   -8.2775  -14.8419 F       1  UNL1       -0.1685
@<TRIPOS>BOND
     1    16    17    1
     2    17    18    3
     3    18    15    1
     4    15    19    1
     5    19    20    1
     6    20    21    2
     7    20    22    1
     8    15     9    1
     9     9    10   ar
    10    10    11   ar
    11    11    12   ar
    12    12     8    1
    13     8     7    1
    14     7     1    1
    15     1     2   ar
    16     2     3   ar
    17     3     4   ar
    18     4     5   ar
    19     5    24    1
    20    24    25    1
    21    25    26    1
    22    26    27    1
    23    27    28   ar
    24    28    29   ar
    25    29    30   ar
    26    30    31   ar
    27    25    32    1
    28    32    33    1
    29    33    34    1
    30    33    35    1
    31    33    36    1
    32     5     6   ar
    33    12    13   ar
    34    13    14   ar
    35    14     9   ar
    36     6     1   ar
    37    31    27   ar
    38    22    23    1
@<TRIPOS>MOLECULE
*****
 36 38 0 0 0
SMALL
GASTEIGER

@<TRIPOS>ATOM
      1 C         -24.4271   -9.1653  -12.5603 C.ar    1  UNL1        0.0209
      2 C         -23.5675   -9.8593  -11.6951 C.ar    1  UNL1       -0.0007
      3 C         -23.1436  -11.1522  -12.0105 C.ar    1  UNL1       -0.0005
      4 C         -23.5840  -11.7675  -13.1843 C.ar    1  UNL1       -0.0029
      5 C         -24.4472  -11.0880  -14.0577 C.ar    1  UNL1       -0.0063
      6 C         -24.8575   -9.7819  -13.7463 C.ar    1  UNL1       -0.0036
      7 C         -24.9285   -7.7992  -12.1766 C.3     1  UNL1        0.2320
      8 O         -26.3519   -7.7525  -12.2800 O.3     1  UNL1       -0.4706
      9 C         -28.4505   -5.3008  -15.0073 C.ar    1  UNL1       -0.0097
     10 C         -27.1639   -4.9563  -14.5539 C.ar    1  UNL1       -0.0002
     11 C         -26.4809   -5.7881  -13.6631 C.ar    1  UNL1        0.0366
     12 C         -27.0695   -6.9683  -13.1976 C.ar    1  UNL1        0.1390
     13 C         -28.3478   -7.3261  -13.6638 C.ar    1  UNL1        0.0366
     14 C         -29.0293   -6.4999  -14.5608 C.ar    1  UNL1       -0.0002
     15 C         -29.2058   -4.4062  -15.9708 C.3     1  UNL1        0.0973
     16 C         -32.5415   -2.8307  -14.0939 C.3     1  UNL1        0.0900
     17 C         -31.3670   -3.3931  -14.7596 C.1     1  UNL1       -0.0897
     18 C         -30.3964   -3.8530  -15.3070 C.1     1  UNL1       -0.0870
     19 C         -28.3242   -3.2685  -16.5165 C.3     1  UNL1        0.1267
     20 C         -28.5313   -3.0756  -17.9908 C.2     1  UNL1        0.3152
     21 O         -27.5426   -2.8720  -18.7433 O.2     1  UNL1       -0.2502
     22 O         -29.8062   -3.1579  -18.5428 O.3     1  UNL1       -0.4801
     23 H         -30.6170   -3.3375  -17.9626 H       1  UNL1        0.2951
     24 C         -24.9599  -11.7790  -15.2929 C.3     1  UNL1        0.0996
     25 N         -23.8589  -12.4748  -15.9976 N.3     1  UNL1       -0.2579
     26 C         -23.4827  -11.7216  -17.2155 C.3     1  UNL1        0.1001
     27 C         -22.7636  -10.4532  -16.8558 C.ar    1  UNL1        0.0009
     28 C         -23.2625   -9.1721  -17.1399 C.ar    1  UNL1        0.0046
     29 C         -22.4149   -8.1476  -16.7436 C.ar    1  UNL1        0.0352
     30 S         -21.0508   -8.8387  -16.0464 S.2     1  UNL1       -0.0862
     31 C         -21.5182  -10.4412  -16.2367 C.ar    1  UNL1        0.0325
     32 C         -24.2100  -13.8877  -16.3127 C.3     1  UNL1        0.1772
     33 C         -23.4355  -14.8498  -15.4089 C.3     1  UNL1        0.4121
     34 F         -24.2106  -15.2221  -14.3269 F       1  UNL1       -0.1685
     35 F         -23.0998  -15.9822  -16.1264 F       1  UNL1       -0.1685
     36 F         -22.2743  -14.2566  -14.9510 F       1  UNL1       -0.1685
@<TRIPOS>BOND
     1    16    17    1
     2    17    18    3
     3    18    15    1
     4    15    19    1
     5    19    20    1
     6    20    21    2
     7    20    22    1
     8    15     9    1
     9     9    10   ar
    10    10    11   ar
    11    11    12   ar
    12    12     8    1
    13     8     7    1
    14     7     1    1
    15     1     2   ar
    16     2     3   ar
    17     3     4   ar
    18     4     5   ar
    19     5    24    1
    20    24    25    1
    21    25    26    1
    22    26    27    1
    23    27    28   ar
    24    28    29   ar
    25    29    30   ar
    26    30    31   ar
    27    25    32    1
    28    32    33    1
    29    33    34    1
    30    33    35    1
    31    33    36    1
    32     5     6   ar
    33    12    13   ar
    34    13    14   ar
    35    14     9   ar
    36     6     1   ar
    37    31    27   ar
    38    22    23    1
@<TRIPOS>MOLECULE
*****
 36 38 0 0 0
SMALL
GASTEIGER

@<TRIPOS>ATOM
      1 C         -21.9627  -10.8155  -11.6702 C.ar    1  UNL1        0.0209
      2 C         -22.5487   -9.5782  -11.3622 C.ar    1  UNL1       -0.0007
      3 C         -23.7860   -9.2292  -11.9080 C.ar    1  UNL1       -0.0005
      4 C         -24.4419  -10.1056  -12.7753 C.ar    1  UNL1       -0.0029
      5 C         -23.8668  -11.3448  -13.0963 C.ar    1  UNL1       -0.0063
      6 C         -22.6311  -11.7000  -12.5321 C.ar    1  UNL1       -0.0036
      7 C         -20.5996  -11.1512  -11.1280 C.3     1  UNL1        0.2320
      8 O         -19.8885   -9.9535  -10.8134 O.3     1  UNL1       -0.4706
      9 C         -18.7412   -8.8516   -6.8990 C.ar    1  UNL1       -0.0097
     10 C         -18.2018   -9.9895   -7.5266 C.ar    1  UNL1       -0.0002
     11 C         -18.5836  -10.3285   -8.8271 C.ar    1  UNL1        0.0366
     12 C         -19.5170   -9.5511   -9.5204 C.ar    1  UNL1        0.1390
     13 C         -20.0438   -8.4016   -8.9034 C.ar    1  UNL1        0.0366
     14 C         -19.6574   -8.0562   -7.6062 C.ar    1  UNL1       -0.0002
     15 C         -18.3396   -8.4733   -5.4866 C.3     1  UNL1        0.0973
     16 C         -21.4190   -9.3838   -2.8751 C.3     1  UNL1        0.0900
     17 C         -20.3265   -9.0671   -3.7943 C.1     1  UNL1       -0.0897
     18 C         -19.4288   -8.8031   -4.5543 C.1     1  UNL1       -0.0870
     19 C         -17.0370   -9.1673   -5.0497 C.3     1  UNL1        0.1267
     20 C         -16.0828   -8.1931   -4.4216 C.2     1  UNL1        0.3152
     21 O         -15.2661   -7.5603   -5.1412 O.2     1  UNL1       -0.2502
     22 O         -16.1173   -7.9526   -3.0513 O.3     1  UNL1       -0.4801
     23 H         -16.7757   -8.4355   -2.4517 H       1  UNL1        0.2951
     24 C         -24.5546  -12.2595  -14.0743 C.3     1  UNL1        0.0996
     25 N         -23.7501  -12.4042  -15.3091 N.3     1  UNL1       -0.2579
     26 C         -24.0329  -11.2808  -16.2311 C.3     1  UNL1        0.1001
     27 C         -22.8889  -10.3080  -16.2510 C.ar    1  UNL1        0.0009
     28 C         -21.5402  -10.6973  -16.2465 C.ar    1  UNL1        0.0046
     29 C         -20.6555   -9.6285  -16.2366 C.ar    1  UNL1        0.0352
     30 S         -21.5533   -8.2078  -16.2302 S.2     1  UNL1       -0.0862
     31 C         -23.0706   -8.9290  -16.2416 C.ar    1  UNL1        0.0325
     32 C         -23.9762  -13.7225  -15.9648 C.3     1  UNL1        0.1772
     33 C         -23.1794  -14.8204  -15.2563 C.3     1  UNL1        0.4121
     34 F         -22.8559  -15.8290  -16.1443 F       1  UNL1       -0.1685
     35 F         -22.0117  -14.2837  -14.7481 F       1  UNL1       -0.1685
     36 F         -23.9112  -15.3542  -14.2124 F       1  UNL1       -0.1685
@<TRIPOS>BOND
     1    16    17    1
     2    17    18    3
     3    18    15    1
     4    15    19    1
     5    19    20    1
     6    20    21    2
     7    20    22    1
     8    15     9    1
     9     9    10   ar
    10    10    11   ar
    11    11    12   ar
    12    12     8    1
    13     8     7    1
    14     7     1    1
    15     1     2   ar
    16     2     3   ar
    17     3     4   ar
    18     4     5   ar
    19     5    24    1
    20    24    25    1
    21    25    26    1
    22    26    27    1
    23    27    28   ar
    24    28    29   ar
    25    29    30   ar
    26    30    31   ar
    27    25    32    1
    28    32    33    1
    29    33    34    1
    30    33    35    1
    31    33    36    1
    32     5     6   ar
    33    12    13   ar
    34    13    14   ar
    35    14     9   ar
    36     6     1   ar
    37    31    27   ar
    38    22    23    1
