@<TRIPOS>MOLECULE
*****
 47 52 0 0 0
SMALL
GASTEIGER

@<TRIPOS>ATOM
      1 C         -64.3042  -52.2753  -24.5702 C.ar    1  UNL1        0.0702
      2 C         -63.7838  -52.7033  -23.3401 C.ar    1  UNL1        0.0191
      3 C         -64.4541  -53.6747  -22.5946 C.ar    1  UNL1        0.0356
      4 C         -65.6631  -54.2120  -23.0741 C.ar    1  UNL1        0.1318
      5 N         -66.1568  -53.7570  -24.2604 N.ar    1  UNL1       -0.2279
      6 C         -65.5220  -52.8119  -25.0020 C.ar    1  UNL1        0.1149
      7 N         -66.3823  -55.2293  -22.3365 N.pl3   1  UNL1       -0.2919
      8 C         -67.6383  -55.7924  -22.8616 C.3     1  UNL1        0.0924
      9 C         -68.3796  -56.6212  -21.8027 C.3     1  UNL1        0.0266
     10 C         -68.4343  -55.8632  -20.4600 C.3     1  UNL1        0.0613
     11 C         -67.0142  -55.4297  -19.9544 C.3     1  UNL1        0.0745
     12 N         -67.0277  -54.0127  -19.5778 N.3     1  UNL1       -0.3207
     13 C         -65.9174  -55.6693  -21.0122 C.3     1  UNL1        0.1077
     14 H         -66.0993  -53.7684  -19.1622 H       1  UNL1        0.1189
     15 H         -67.7229  -53.8805  -18.8084 H       1  UNL1        0.1189
     16 C         -69.1727  -56.7191  -19.4098 C.3     1  UNL1        0.2067
     17 O         -69.6253  -55.9206  -18.3154 O.3     1  UNL1       -0.4754
     18 C         -69.1225  -55.9696  -17.0046 C.ar    1  UNL1        0.1388
     19 C         -69.8829  -56.4304  -15.9131 C.ar    1  UNL1        0.0369
     20 C         -69.3302  -56.4512  -14.6311 C.ar    1  UNL1        0.0033
     21 C         -68.0192  -56.0184  -14.4224 C.ar    1  UNL1        0.0066
     22 C         -67.2426  -55.5595  -15.5004 C.ar    1  UNL1        0.0785
     23 C         -67.8063  -55.5421  -16.7885 C.ar    1  UNL1        0.0433
     24 C         -65.8524  -55.0998  -15.2870 C.2     1  UNL1        0.3381
     25 O         -65.6232  -54.0183  -14.6806 O.2     1  UNL1       -0.2451
     26 O         -64.7824  -55.8584  -15.7549 O.3     1  UNL1       -0.4771
     27 H         -63.8269  -55.5528  -15.6141 H       1  UNL1        0.2954
     28 C         -63.9340  -49.8514  -25.2336 C.2     1  UNL1        0.2839
     29 O         -64.8369  -49.4413  -24.4565 O.2     1  UNL1       -0.2665
     30 N         -63.6596  -51.2584  -25.3548 N.am    1  UNL1       -0.2766
     31 H         -62.9099  -51.5694  -26.0101 H       1  UNL1        0.1553
     32 C         -64.0724  -49.3681  -28.4325 C.3     1  UNL1        0.0345
     33 C         -63.2624  -48.6342  -27.4071 C.ar    1  UNL1        0.0202
     34 C         -63.1893  -48.8579  -26.0265 C.ar    1  UNL1        0.1946
     35 O         -62.3072  -48.0382  -25.4822 O.2     1  UNL1       -0.4492
     36 C         -61.8229  -47.2782  -26.4339 C.ar    1  UNL1        0.1452
     37 C         -60.8735  -46.2697  -26.3104 C.ar    1  UNL1        0.0375
     38 C         -60.4947  -45.5743  -27.4723 C.ar    1  UNL1        0.0031
     39 C         -61.0664  -45.8961  -28.7334 C.ar    1  UNL1        0.0002
     40 C         -62.0283  -46.9315  -28.8146 C.ar    1  UNL1        0.0028
     41 C         -62.3811  -47.5981  -27.6413 C.ar    1  UNL1        0.0337
     42 C         -60.6587  -45.1549  -29.9539 C.ar    1  UNL1        0.0000
     43 C         -61.5876  -44.3608  -30.6530 C.ar    1  UNL1        0.0000
     44 C         -61.2010  -43.6650  -31.8026 C.ar    1  UNL1        0.0000
     45 C         -59.8867  -43.7525  -32.2664 C.ar    1  UNL1        0.0000
     46 C         -58.9558  -44.5366  -31.5817 C.ar    1  UNL1        0.0000
     47 C         -59.3369  -45.2354  -30.4321 C.ar    1  UNL1        0.0000
@<TRIPOS>BOND
     1    32    33    1
     2    33    34   ar
     3    34    28    1
     4    28    29    2
     5    28    30   am
     6    30     1    1
     7     1     2   ar
     8     2     3   ar
     9     3     4   ar
    10     4     7    1
    11     7     8    1
    12     8     9    1
    13     9    10    1
    14    10    16    1
    15    16    17    1
    16    17    18    1
    17    18    19   ar
    18    19    20   ar
    19    20    21   ar
    20    21    22   ar
    21    22    24    1
    22    24    25    2
    23    24    26    1
    24    22    23   ar
    25    10    11    1
    26    11    12    1
    27    11    13    1
    28     4     5   ar
    29     5     6   ar
    30    34    35   ar
    31    35    36   ar
    32    36    37   ar
    33    37    38   ar
    34    38    39   ar
    35    39    42    1
    36    42    43   ar
    37    43    44   ar
    38    44    45   ar
    39    45    46   ar
    40    46    47   ar
    41    39    40   ar
    42    40    41   ar
    43    41    33   ar
    44     6     1   ar
    45    41    36   ar
    46    13     7    1
    47    47    42   ar
    48    23    18   ar
    49    30    31    1
    50    26    27    1
    51    12    14    1
    52    12    15    1
@<TRIPOS>MOLECULE
*****
 47 52 0 0 0
SMALL
GASTEIGER

@<TRIPOS>ATOM
      1 C         -64.1211  -52.1604  -24.4462 C.ar    1  UNL1        0.0702
      2 C         -63.5088  -52.6353  -23.2772 C.ar    1  UNL1        0.0191
      3 C         -64.1375  -53.6120  -22.5030 C.ar    1  UNL1        0.0356
      4 C         -65.3961  -54.1075  -22.8910 C.ar    1  UNL1        0.1318
      5 N         -65.9775  -53.6075  -24.0180 N.ar    1  UNL1       -0.2279
      6 C         -65.3844  -52.6564  -24.7860 C.ar    1  UNL1        0.1149
      7 N         -66.0755  -55.1287  -22.1216 N.pl3   1  UNL1       -0.2919
      8 C         -66.4165  -56.4264  -22.7300 C.3     1  UNL1        0.0924
      9 C         -67.3812  -57.2341  -21.8497 C.3     1  UNL1        0.0266
     10 C         -68.5388  -56.3432  -21.3532 C.3     1  UNL1        0.0613
     11 C         -68.0338  -55.0554  -20.6140 C.3     1  UNL1        0.0745
     12 N         -68.7168  -53.8721  -21.1462 N.3     1  UNL1       -0.3207
     13 C         -66.5080  -54.8677  -20.7403 C.3     1  UNL1        0.1077
     14 H         -68.4315  -53.0391  -20.5812 H       1  UNL1        0.1189
     15 H         -69.7439  -53.9815  -20.9856 H       1  UNL1        0.1189
     16 C         -69.4875  -57.1724  -20.4627 C.3     1  UNL1        0.2067
     17 O         -70.7135  -56.4791  -20.2247 O.3     1  UNL1       -0.4754
     18 C         -71.0640  -55.8239  -19.0325 C.ar    1  UNL1        0.1388
     19 C         -70.7462  -56.3349  -17.7599 C.ar    1  UNL1        0.0369
     20 C         -71.1258  -55.6406  -16.6095 C.ar    1  UNL1        0.0033
     21 C         -71.8203  -54.4337  -16.7125 C.ar    1  UNL1        0.0066
     22 C         -72.1424  -53.9050  -17.9744 C.ar    1  UNL1        0.0785
     23 C         -71.7562  -54.6100  -19.1281 C.ar    1  UNL1        0.0433
     24 C         -72.8778  -52.6263  -18.0913 C.2     1  UNL1        0.3381
     25 O         -73.8441  -52.3725  -17.3221 O.2     1  UNL1       -0.2451
     26 O         -72.5090  -51.6898  -19.0538 O.3     1  UNL1       -0.4771
     27 H         -73.0058  -50.8113  -19.1423 H       1  UNL1        0.2954
     28 C         -63.8936  -49.7481  -25.2085 C.2     1  UNL1        0.2839
     29 O         -64.8487  -49.3680  -24.4801 O.2     1  UNL1       -0.2665
     30 N         -63.5202  -51.1365  -25.2560 N.am    1  UNL1       -0.2766
     31 H         -62.7287  -51.4231  -25.8722 H       1  UNL1        0.1553
     32 C         -64.0384  -49.3478  -28.4185 C.3     1  UNL1        0.0345
     33 C         -63.2675  -48.5537  -27.4081 C.ar    1  UNL1        0.0202
     34 C         -63.1909  -48.7409  -26.0222 C.ar    1  UNL1        0.1946
     35 O         -62.3495  -47.8691  -25.4945 O.2     1  UNL1       -0.4492
     36 C         -61.8957  -47.1108  -26.4624 C.ar    1  UNL1        0.1452
     37 C         -60.9936  -46.0575  -26.3597 C.ar    1  UNL1        0.0375
     38 C         -60.6412  -45.3735  -27.5366 C.ar    1  UNL1        0.0031
     39 C         -61.1916  -45.7509  -28.7916 C.ar    1  UNL1        0.0002
     40 C         -62.1052  -46.8306  -28.8515 C.ar    1  UNL1        0.0028
     41 C         -62.4330  -47.4844  -27.6638 C.ar    1  UNL1        0.0337
     42 C         -60.8122  -45.0213  -30.0281 C.ar    1  UNL1        0.0000
     43 C         -59.5187  -45.1524  -30.5683 C.ar    1  UNL1        0.0000
     44 C         -59.1641  -44.4632  -31.7322 C.ar    1  UNL1        0.0000
     45 C         -60.0934  -43.6381  -32.3691 C.ar    1  UNL1        0.0000
     46 C         -61.3797  -43.4997  -31.8433 C.ar    1  UNL1        0.0000
     47 C         -61.7397  -44.1858  -30.6793 C.ar    1  UNL1        0.0000
@<TRIPOS>BOND
     1    32    33    1
     2    33    34   ar
     3    34    28    1
     4    28    29    2
     5    28    30   am
     6    30     1    1
     7     1     2   ar
     8     2     3   ar
     9     3     4   ar
    10     4     7    1
    11     7     8    1
    12     8     9    1
    13     9    10    1
    14    10    16    1
    15    16    17    1
    16    17    18    1
    17    18    19   ar
    18    19    20   ar
    19    20    21   ar
    20    21    22   ar
    21    22    24    1
    22    24    25    2
    23    24    26    1
    24    22    23   ar
    25    10    11    1
    26    11    12    1
    27    11    13    1
    28     4     5   ar
    29     5     6   ar
    30    34    35   ar
    31    35    36   ar
    32    36    37   ar
    33    37    38   ar
    34    38    39   ar
    35    39    42    1
    36    42    43   ar
    37    43    44   ar
    38    44    45   ar
    39    45    46   ar
    40    46    47   ar
    41    39    40   ar
    42    40    41   ar
    43    41    33   ar
    44     6     1   ar
    45    41    36   ar
    46    13     7    1
    47    47    42   ar
    48    23    18   ar
    49    30    31    1
    50    26    27    1
    51    12    14    1
    52    12    15    1
@<TRIPOS>MOLECULE
*****
 47 52 0 0 0
SMALL
GASTEIGER

@<TRIPOS>ATOM
      1 C         -64.8997  -53.0697  -24.7889 C.ar    1  UNL1        0.0702
      2 C         -64.9332  -53.4691  -26.1329 C.ar    1  UNL1        0.0191
      3 C         -65.8975  -54.3786  -26.5707 C.ar    1  UNL1        0.0356
      4 C         -66.8266  -54.9063  -25.6549 C.ar    1  UNL1        0.1318
      5 N         -66.7521  -54.5188  -24.3502 N.ar    1  UNL1       -0.2279
      6 C         -65.8217  -53.6358  -23.9019 C.ar    1  UNL1        0.1149
      7 N         -67.8491  -55.8428  -26.0716 N.pl3   1  UNL1       -0.2919
      8 C         -68.0960  -56.0998  -27.5011 C.3     1  UNL1        0.0924
      9 C         -69.3981  -56.8824  -27.7242 C.3     1  UNL1        0.0266
     10 C         -70.5463  -56.2757  -26.8912 C.3     1  UNL1        0.0613
     11 C         -70.1955  -56.1740  -25.3658 C.3     1  UNL1        0.0745
     12 N         -70.5014  -54.8284  -24.8702 N.3     1  UNL1       -0.3207
     13 C         -68.7151  -56.5014  -25.0820 C.3     1  UNL1        0.1077
     14 H         -70.3440  -54.8092  -23.8361 H       1  UNL1        0.1189
     15 H         -71.5231  -54.6507  -25.0017 H       1  UNL1        0.1189
     16 C         -71.8397  -57.0844  -27.1225 C.3     1  UNL1        0.2067
     17 O         -72.9994  -56.3001  -26.8389 O.3     1  UNL1       -0.4754
     18 C         -73.4843  -55.2432  -27.6270 C.ar    1  UNL1        0.1388
     19 C         -73.5355  -55.3016  -29.0327 C.ar    1  UNL1        0.0369
     20 C         -74.0236  -54.2165  -29.7632 C.ar    1  UNL1        0.0033
     21 C         -74.4670  -53.0673  -29.1058 C.ar    1  UNL1        0.0066
     22 C         -74.4282  -52.9920  -27.7028 C.ar    1  UNL1        0.0785
     23 C         -73.9358  -54.0892  -26.9741 C.ar    1  UNL1        0.0433
     24 C         -74.8970  -51.7776  -26.9991 C.2     1  UNL1        0.3381
     25 O         -75.1412  -50.7210  -27.6423 O.2     1  UNL1       -0.2451
     26 O         -75.0728  -51.7904  -25.6177 O.3     1  UNL1       -0.4771
     27 H         -75.3932  -50.9645  -25.1263 H       1  UNL1        0.2954
     28 C         -63.7710  -50.7947  -24.7343 C.2     1  UNL1        0.2839
     29 O         -64.4974  -50.3487  -25.6622 O.2     1  UNL1       -0.2665
     30 N         -63.9068  -52.1571  -24.2925 N.am    1  UNL1       -0.2766
     31 H         -63.2882  -52.5006  -23.5259 H       1  UNL1        0.1553
     32 C         -62.4533  -48.1466  -26.0522 C.3     1  UNL1        0.0345
     33 C         -62.2134  -48.7383  -24.6963 C.ar    1  UNL1        0.0202
     34 C         -62.7698  -49.8949  -24.1358 C.ar    1  UNL1        0.1946
     35 O         -62.2492  -50.1133  -22.9410 O.2     1  UNL1       -0.4492
     36 C         -61.4028  -49.1452  -22.6875 C.ar    1  UNL1        0.1452
     37 C         -60.6354  -48.9711  -21.5409 C.ar    1  UNL1        0.0375
     38 C         -59.7861  -47.8522  -21.4790 C.ar    1  UNL1        0.0031
     39 C         -59.7160  -46.9298  -22.5582 C.ar    1  UNL1        0.0002
     40 C         -60.5131  -47.1459  -23.7080 C.ar    1  UNL1        0.0028
     41 C         -61.3450  -48.2652  -23.7334 C.ar    1  UNL1        0.0337
     42 C         -58.8154  -45.7515  -22.4818 C.ar    1  UNL1        0.0000
     43 C         -59.3451  -44.4493  -22.4047 C.ar    1  UNL1        0.0000
     44 C         -58.4946  -43.3418  -22.3340 C.ar    1  UNL1        0.0000
     45 C         -57.1095  -43.5200  -22.3386 C.ar    1  UNL1        0.0000
     46 C         -56.5716  -44.8065  -22.4146 C.ar    1  UNL1        0.0000
     47 C         -57.4173  -45.9178  -22.4864 C.ar    1  UNL1        0.0000
@<TRIPOS>BOND
     1    32    33    1
     2    33    34   ar
     3    34    28    1
     4    28    29    2
     5    28    30   am
     6    30     1    1
     7     1     2   ar
     8     2     3   ar
     9     3     4   ar
    10     4     7    1
    11     7     8    1
    12     8     9    1
    13     9    10    1
    14    10    16    1
    15    16    17    1
    16    17    18    1
    17    18    19   ar
    18    19    20   ar
    19    20    21   ar
    20    21    22   ar
    21    22    24    1
    22    24    25    2
    23    24    26    1
    24    22    23   ar
    25    10    11    1
    26    11    12    1
    27    11    13    1
    28     4     5   ar
    29     5     6   ar
    30    34    35   ar
    31    35    36   ar
    32    36    37   ar
    33    37    38   ar
    34    38    39   ar
    35    39    42    1
    36    42    43   ar
    37    43    44   ar
    38    44    45   ar
    39    45    46   ar
    40    46    47   ar
    41    39    40   ar
    42    40    41   ar
    43    41    33   ar
    44     6     1   ar
    45    41    36   ar
    46    13     7    1
    47    47    42   ar
    48    23    18   ar
    49    30    31    1
    50    26    27    1
    51    12    14    1
    52    12    15    1
