@<TRIPOS>MOLECULE
*****
 37 40 0 0 0
SMALL
GASTEIGER

@<TRIPOS>ATOM
      1 N         -28.1393   49.4976   -4.3759 N.am    1  UNL1       -0.2685
      2 C         -29.1050   50.2505   -5.1294 C.2     1  UNL1        0.2672
      3 O         -29.5061   51.3598   -4.6848 O.2     1  UNL1       -0.2682
      4 C         -29.6356   49.7178   -6.4023 C.ar    1  UNL1        0.1347
      5 C         -29.6036   50.4796   -7.5807 C.ar    1  UNL1        0.0238
      6 C         -30.0960   49.9288   -8.7716 C.ar    1  UNL1        0.0031
      7 C         -30.0718   50.6623   -9.9680 C.ar    1  UNL1        0.0001
      8 C         -30.5652   50.0960  -11.1475 C.ar    1  UNL1        0.0000
      9 C         -31.0844   48.7979  -11.1417 C.ar    1  UNL1        0.0000
     10 C         -31.1140   48.0575   -9.9563 C.ar    1  UNL1        0.0015
     11 C         -30.6215   48.6167   -8.7680 C.ar    1  UNL1        0.0192
     12 C         -30.6386   47.8961   -7.5692 C.ar    1  UNL1        0.0989
     13 N         -30.1495   48.4572   -6.4339 N.ar    1  UNL1       -0.2393
     14 C         -26.6930   49.6618   -4.6275 C.3     1  UNL1        0.1007
     15 C         -26.1655   50.9230   -3.9295 C.3     1  UNL1        0.0265
     16 C         -26.3533   48.3926   -8.2336 C.ar    1  UNL1        0.0619
     17 C         -26.1479   49.5956   -8.9303 C.ar    1  UNL1        0.1406
     18 F         -26.0681   49.6097  -10.2853 F       1  UNL1       -0.2044
     19 C         -26.0391   50.7986   -8.2332 C.ar    1  UNL1        0.0293
     20 C         -26.1627   50.8226   -6.8439 C.ar    1  UNL1        0.0018
     21 C         -26.3917   49.6340   -6.1222 C.ar    1  UNL1        0.0231
     22 C         -26.4758   48.4180   -6.8322 C.ar    1  UNL1        0.1382
     23 F         -26.7009   47.2562   -6.1669 F       1  UNL1       -0.2046
     24 C         -26.5489   47.0985   -8.9769 C.3     1  UNL1        0.1731
     25 C         -28.1131   45.8780  -10.1482 C.3     1  UNL1        0.1746
     26 O         -27.7711   47.1628   -9.6804 O.3     1  UNL1       -0.3462
     27 C         -28.6233   48.6564   -3.2727 C.3     1  UNL1        0.1207
     28 C         -28.1261   47.2460   -3.4435 C.ar    1  UNL1       -0.0021
     29 C         -28.7911   46.3598   -4.3044 C.ar    1  UNL1       -0.0026
     30 C         -28.2589   45.0944   -4.5579 C.ar    1  UNL1       -0.0001
     31 C         -27.0542   44.7070   -3.9660 C.ar    1  UNL1        0.0064
     32 C         -26.3728   45.5821   -3.1016 C.ar    1  UNL1        0.0752
     33 C         -26.9254   46.8471   -2.8368 C.ar    1  UNL1        0.0038
     34 C         -25.0820   45.1905   -2.4938 C.2     1  UNL1        0.3380
     35 O         -25.0109   44.1837   -1.7382 O.2     1  UNL1       -0.2451
     36 O         -23.9301   45.9280   -2.7562 O.3     1  UNL1       -0.4771
     37 H         -23.0405   45.6665   -2.3486 H       1  UNL1        0.2954
@<TRIPOS>BOND
     1    25    26    1
     2    26    24    1
     3    24    16    1
     4    16    17   ar
     5    17    18    1
     6    17    19   ar
     7    19    20   ar
     8    20    21   ar
     9    21    14    1
    10    14    15    1
    11    14     1    1
    12     1    27    1
    13    27    28    1
    14    28    29   ar
    15    29    30   ar
    16    30    31   ar
    17    31    32   ar
    18    32    34    1
    19    34    35    2
    20    34    36    1
    21    32    33   ar
    22     1     2   am
    23     2     3    2
    24     2     4    1
    25     4     5   ar
    26     5     6   ar
    27     6     7   ar
    28     7     8   ar
    29     8     9   ar
    30     9    10   ar
    31    10    11   ar
    32    11    12   ar
    33    12    13   ar
    34    21    22   ar
    35    22    23    1
    36    22    16   ar
    37    33    28   ar
    38    13     4   ar
    39    11     6   ar
    40    36    37    1
@<TRIPOS>MOLECULE
*****
 37 40 0 0 0
SMALL
GASTEIGER

@<TRIPOS>ATOM
      1 N         -30.5869   49.2713   -7.3950 N.am    1  UNL1       -0.2685
      2 C         -30.3028   50.3333   -8.3217 C.2     1  UNL1        0.2672
      3 O         -31.2524   50.8777   -8.9468 O.2     1  UNL1       -0.2682
      4 C         -28.9084   50.7670   -8.5522 C.ar    1  UNL1        0.1347
      5 C         -28.2044   50.3764   -9.7019 C.ar    1  UNL1        0.0238
      6 C         -26.8918   50.8282   -9.8936 C.ar    1  UNL1        0.0031
      7 C         -26.1637   50.4610  -11.0361 C.ar    1  UNL1        0.0001
      8 C         -24.8557   50.9231  -11.2122 C.ar    1  UNL1        0.0000
      9 C         -24.2668   51.7523  -10.2528 C.ar    1  UNL1        0.0000
     10 C         -24.9819   52.1248   -9.1108 C.ar    1  UNL1        0.0015
     11 C         -26.2944   51.6665   -8.9250 C.ar    1  UNL1        0.0192
     12 C         -27.0314   52.0258   -7.7917 C.ar    1  UNL1        0.0989
     13 N         -28.3026   51.5748   -7.6386 N.ar    1  UNL1       -0.2393
     14 C         -30.8243   49.5613   -5.9663 C.3     1  UNL1        0.1007
     15 C         -31.3312   50.9989   -5.7863 C.3     1  UNL1        0.0265
     16 C         -28.1821   47.6081   -3.9829 C.ar    1  UNL1        0.0619
     17 C         -27.1654   48.5700   -3.8579 C.ar    1  UNL1        0.1406
     18 F         -25.9760   48.2546   -3.2849 F       1  UNL1       -0.2044
     19 C         -27.3629   49.8641   -4.3392 C.ar    1  UNL1        0.0293
     20 C         -28.5570   50.2061   -4.9739 C.ar    1  UNL1        0.0018
     21 C         -29.5844   49.2546   -5.1331 C.ar    1  UNL1        0.0231
     22 C         -29.3868   47.9549   -4.6217 C.ar    1  UNL1        0.1382
     23 F         -30.3549   47.0139   -4.7633 F       1  UNL1       -0.2046
     24 C         -27.9549   46.1884   -3.5376 C.3     1  UNL1        0.1731
     25 C         -26.3490   44.5487   -3.7386 C.3     1  UNL1        0.1746
     26 O         -27.0267   45.5842   -4.4129 O.3     1  UNL1       -0.3462
     27 C         -30.7538   47.9121   -7.9277 C.3     1  UNL1        0.1207
     28 C         -29.4312   47.3831   -8.4140 C.ar    1  UNL1       -0.0021
     29 C         -29.3218   46.8167   -9.6931 C.ar    1  UNL1       -0.0026
     30 C         -28.0727   46.4412  -10.1906 C.ar    1  UNL1       -0.0001
     31 C         -26.9220   46.6386   -9.4232 C.ar    1  UNL1        0.0064
     32 C         -27.0119   47.2061   -8.1398 C.ar    1  UNL1        0.0752
     33 C         -28.2756   47.5637   -7.6389 C.ar    1  UNL1        0.0038
     34 C         -25.7952   47.4452   -7.3326 C.2     1  UNL1        0.3380
     35 O         -25.1644   48.5321   -7.4345 O.2     1  UNL1       -0.2451
     36 O         -25.3383   46.4728   -6.4466 O.3     1  UNL1       -0.4771
     37 H         -24.5088   46.6277   -5.8863 H       1  UNL1        0.2954
@<TRIPOS>BOND
     1    25    26    1
     2    26    24    1
     3    24    16    1
     4    16    17   ar
     5    17    18    1
     6    17    19   ar
     7    19    20   ar
     8    20    21   ar
     9    21    14    1
    10    14    15    1
    11    14     1    1
    12     1    27    1
    13    27    28    1
    14    28    29   ar
    15    29    30   ar
    16    30    31   ar
    17    31    32   ar
    18    32    34    1
    19    34    35    2
    20    34    36    1
    21    32    33   ar
    22     1     2   am
    23     2     3    2
    24     2     4    1
    25     4     5   ar
    26     5     6   ar
    27     6     7   ar
    28     7     8   ar
    29     8     9   ar
    30     9    10   ar
    31    10    11   ar
    32    11    12   ar
    33    12    13   ar
    34    21    22   ar
    35    22    23    1
    36    22    16   ar
    37    33    28   ar
    38    13     4   ar
    39    11     6   ar
    40    36    37    1
@<TRIPOS>MOLECULE
*****
 37 40 0 0 0
SMALL
GASTEIGER

@<TRIPOS>ATOM
      1 N         -29.7315   48.0274   -8.8648 N.am    1  UNL1       -0.2685
      2 C         -30.1863   47.0515   -7.9119 C.2     1  UNL1        0.2672
      3 O         -31.0691   46.2194   -8.2541 O.2     1  UNL1       -0.2682
      4 C         -29.6370   47.0388   -6.5394 C.ar    1  UNL1        0.1347
      5 C         -30.2501   47.7593   -5.5027 C.ar    1  UNL1        0.0238
      6 C         -29.7107   47.7023   -4.2104 C.ar    1  UNL1        0.0031
      7 C         -30.3044   48.4058   -3.1508 C.ar    1  UNL1        0.0001
      8 C         -29.7540   48.3355   -1.8673 C.ar    1  UNL1        0.0000
      9 C         -28.6111   47.5652   -1.6326 C.ar    1  UNL1        0.0000
     10 C         -28.0108   46.8602   -2.6799 C.ar    1  UNL1        0.0015
     11 C         -28.5553   46.9243   -3.9708 C.ar    1  UNL1        0.0192
     12 C         -27.9741   46.2272   -5.0353 C.ar    1  UNL1        0.0989
     13 N         -28.5245   46.2998   -6.2742 N.ar    1  UNL1       -0.2393
     14 C         -28.5622   47.7532   -9.7247 C.3     1  UNL1        0.1007
     15 C         -28.3895   46.2421   -9.9316 C.3     1  UNL1        0.0265
     16 C         -25.8905   50.4209   -9.0355 C.ar    1  UNL1        0.0619
     17 C         -25.1882   49.8373   -7.9674 C.ar    1  UNL1        0.1406
     18 F         -24.1895   50.5103   -7.3412 F       1  UNL1       -0.2044
     19 C         -25.5228   48.5574   -7.5257 C.ar    1  UNL1        0.0293
     20 C         -26.5743   47.8588   -8.1189 C.ar    1  UNL1        0.0018
     21 C         -27.3101   48.4297   -9.1767 C.ar    1  UNL1        0.0231
     22 C         -26.9497   49.7144   -9.6343 C.ar    1  UNL1        0.1382
     23 F         -27.6418   50.2943  -10.6480 F       1  UNL1       -0.2046
     24 C         -25.5915   51.8299   -9.4725 C.3     1  UNL1        0.1731
     25 C         -23.4615   52.3191  -10.2018 C.3     1  UNL1        0.1746
     26 O         -24.7105   51.7829  -10.5745 O.3     1  UNL1       -0.3462
     27 C         -30.5307   49.2474   -9.0433 C.3     1  UNL1        0.1207
     28 C         -30.4148   50.1225   -7.8241 C.ar    1  UNL1       -0.0021
     29 C         -31.5620   50.4924   -7.1059 C.ar    1  UNL1       -0.0026
     30 C         -31.4432   51.1982   -5.9074 C.ar    1  UNL1       -0.0001
     31 C         -30.1809   51.5299   -5.4089 C.ar    1  UNL1        0.0064
     32 C         -29.0199   51.1665   -6.1141 C.ar    1  UNL1        0.0752
     33 C         -29.1491   50.4726   -7.3297 C.ar    1  UNL1        0.0038
     34 C         -27.6789   51.4883   -5.5784 C.2     1  UNL1        0.3380
     35 O         -27.0255   50.6257   -4.9313 O.2     1  UNL1       -0.2451
     36 O         -27.1221   52.7472   -5.7899 O.3     1  UNL1       -0.4771
     37 H         -26.2031   52.9768   -5.4310 H       1  UNL1        0.2954
@<TRIPOS>BOND
     1    25    26    1
     2    26    24    1
     3    24    16    1
     4    16    17   ar
     5    17    18    1
     6    17    19   ar
     7    19    20   ar
     8    20    21   ar
     9    21    14    1
    10    14    15    1
    11    14     1    1
    12     1    27    1
    13    27    28    1
    14    28    29   ar
    15    29    30   ar
    16    30    31   ar
    17    31    32   ar
    18    32    34    1
    19    34    35    2
    20    34    36    1
    21    32    33   ar
    22     1     2   am
    23     2     3    2
    24     2     4    1
    25     4     5   ar
    26     5     6   ar
    27     6     7   ar
    28     7     8   ar
    29     8     9   ar
    30     9    10   ar
    31    10    11   ar
    32    11    12   ar
    33    12    13   ar
    34    21    22   ar
    35    22    23    1
    36    22    16   ar
    37    33    28   ar
    38    13     4   ar
    39    11     6   ar
    40    36    37    1
@<TRIPOS>MOLECULE
*****
 37 40 0 0 0
SMALL
GASTEIGER

@<TRIPOS>ATOM
      1 N         -27.6160   46.8586   -4.6220 N.am    1  UNL1       -0.2685
      2 C         -26.5405   46.6365   -5.5501 C.2     1  UNL1        0.2672
      3 O         -25.6893   45.7395   -5.3053 O.2     1  UNL1       -0.2682
      4 C         -26.4249   47.4663   -6.7681 C.ar    1  UNL1        0.1347
      5 C         -25.9016   48.7675   -6.7163 C.ar    1  UNL1        0.0238
      6 C         -25.7877   49.5127   -7.8977 C.ar    1  UNL1        0.0031
      7 C         -25.2620   50.8140   -7.8802 C.ar    1  UNL1        0.0001
      8 C         -25.1535   51.5422   -9.0690 C.ar    1  UNL1        0.0000
      9 C         -25.5673   50.9789  -10.2799 C.ar    1  UNL1        0.0000
     10 C         -26.0924   49.6837  -10.3101 C.ar    1  UNL1        0.0015
     11 C         -26.2054   48.9453   -9.1230 C.ar    1  UNL1        0.0192
     12 C         -26.7263   47.6471   -9.1267 C.ar    1  UNL1        0.0989
     13 N         -26.8186   46.9504   -7.9652 N.ar    1  UNL1       -0.2393
     14 C         -28.9066   46.1584   -4.7827 C.3     1  UNL1        0.1007
     15 C         -28.7924   44.7039   -4.3057 C.3     1  UNL1        0.0265
     16 C         -30.2681   47.6938   -8.0260 C.ar    1  UNL1        0.0619
     17 C         -30.0884   46.6325   -8.9293 C.ar    1  UNL1        0.1406
     18 F         -30.3635   46.7885  -10.2493 F       1  UNL1       -0.2044
     19 C         -29.6068   45.4036   -8.4787 C.ar    1  UNL1        0.0293
     20 C         -29.2718   45.2265   -7.1363 C.ar    1  UNL1        0.0018
     21 C         -29.4205   46.2810   -6.2133 C.ar    1  UNL1        0.0231
     22 C         -29.9316   47.5132   -6.6718 C.ar    1  UNL1        0.1382
     23 F         -30.0821   48.5505   -5.8090 F       1  UNL1       -0.2046
     24 C         -30.7140   49.0474   -8.5104 C.3     1  UNL1        0.1731
     25 C         -29.9008   50.2094  -10.3260 C.3     1  UNL1        0.1746
     26 O         -29.5954   49.7290   -9.0368 O.3     1  UNL1       -0.3462
     27 C         -27.3557   47.7029   -3.4480 C.3     1  UNL1        0.1207
     28 C         -27.2150   49.1413   -3.8684 C.ar    1  UNL1       -0.0021
     29 C         -26.0685   49.8719   -3.5213 C.ar    1  UNL1       -0.0026
     30 C         -25.8821   51.1638   -4.0163 C.ar    1  UNL1       -0.0001
     31 C         -26.8298   51.7328   -4.8707 C.ar    1  UNL1        0.0064
     32 C         -27.9843   51.0153   -5.2308 C.ar    1  UNL1        0.0752
     33 C         -28.1734   49.7224   -4.7126 C.ar    1  UNL1        0.0038
     34 C         -28.9782   51.5994   -6.1580 C.2     1  UNL1        0.3380
     35 O         -30.0992   51.9879   -5.7311 O.2     1  UNL1       -0.2451
     36 O         -28.6819   51.7317   -7.5123 O.3     1  UNL1       -0.4771
     37 H         -29.3535   52.1338   -8.1552 H       1  UNL1        0.2954
@<TRIPOS>BOND
     1    25    26    1
     2    26    24    1
     3    24    16    1
     4    16    17   ar
     5    17    18    1
     6    17    19   ar
     7    19    20   ar
     8    20    21   ar
     9    21    14    1
    10    14    15    1
    11    14     1    1
    12     1    27    1
    13    27    28    1
    14    28    29   ar
    15    29    30   ar
    16    30    31   ar
    17    31    32   ar
    18    32    34    1
    19    34    35    2
    20    34    36    1
    21    32    33   ar
    22     1     2   am
    23     2     3    2
    24     2     4    1
    25     4     5   ar
    26     5     6   ar
    27     6     7   ar
    28     7     8   ar
    29     8     9   ar
    30     9    10   ar
    31    10    11   ar
    32    11    12   ar
    33    12    13   ar
    34    21    22   ar
    35    22    23    1
    36    22    16   ar
    37    33    28   ar
    38    13     4   ar
    39    11     6   ar
    40    36    37    1
@<TRIPOS>MOLECULE
*****
 37 40 0 0 0
SMALL
GASTEIGER

@<TRIPOS>ATOM
      1 N         -29.7094   49.2550   -7.1523 N.am    1  UNL1       -0.2685
      2 C         -29.5415   50.0708   -8.3244 C.2     1  UNL1        0.2672
      3 O         -30.5196   50.2459   -9.1000 O.2     1  UNL1       -0.2682
      4 C         -28.2287   50.6804   -8.6253 C.ar    1  UNL1        0.1347
      5 C         -27.4974   50.3103   -9.7645 C.ar    1  UNL1        0.0238
      6 C         -26.2674   50.9290  -10.0257 C.ar    1  UNL1        0.0031
      7 C         -25.5154   50.5860  -11.1601 C.ar    1  UNL1        0.0001
      8 C         -24.2912   51.2154  -11.4062 C.ar    1  UNL1        0.0000
      9 C         -23.8102   52.1884  -10.5251 C.ar    1  UNL1        0.0000
     10 C         -24.5501   52.5386   -9.3918 C.ar    1  UNL1        0.0015
     11 C         -25.7791   51.9130   -9.1362 C.ar    1  UNL1        0.0192
     12 C         -26.5389   52.2464   -8.0100 C.ar    1  UNL1        0.0989
     13 N         -27.7287   51.6314   -7.7887 N.ar    1  UNL1       -0.2393
     14 C         -30.1021   49.8599   -5.8632 C.3     1  UNL1        0.1007
     15 C         -30.4935   51.3314   -6.0567 C.3     1  UNL1        0.0265
     16 C         -28.2230   48.5138   -2.7993 C.ar    1  UNL1        0.0619
     17 C         -26.9336   49.0268   -3.0203 C.ar    1  UNL1        0.1406
     18 F         -25.9054   48.7030   -2.1954 F       1  UNL1       -0.2044
     19 C         -26.6911   49.8674   -4.1065 C.ar    1  UNL1        0.0293
     20 C         -27.7169   50.1817   -4.9980 C.ar    1  UNL1        0.0018
     21 C         -29.0140   49.6626   -4.8131 C.ar    1  UNL1        0.0231
     22 C         -29.2573   48.8332   -3.6983 C.ar    1  UNL1        0.1382
     23 F         -30.4945   48.3130   -3.4947 F       1  UNL1       -0.2046
     24 C         -28.4823   47.5454   -1.6766 C.3     1  UNL1        0.1731
     25 C         -30.0492   48.0872   -0.0769 C.3     1  UNL1        0.1746
     26 O         -28.7166   48.2790   -0.4934 O.3     1  UNL1       -0.3462
     27 C         -29.5991   47.7973   -7.3002 C.3     1  UNL1        0.1207
     28 C         -28.1904   47.3548   -7.0083 C.ar    1  UNL1       -0.0021
     29 C         -27.1297   47.7873   -7.8186 C.ar    1  UNL1       -0.0026
     30 C         -25.8122   47.4791   -7.4749 C.ar    1  UNL1       -0.0001
     31 C         -25.5406   46.7490   -6.3152 C.ar    1  UNL1        0.0064
     32 C         -26.5905   46.3083   -5.4901 C.ar    1  UNL1        0.0752
     33 C         -27.9152   46.6065   -5.8537 C.ar    1  UNL1        0.0038
     34 C         -26.3098   45.5598   -4.2452 C.2     1  UNL1        0.3380
     35 O         -27.1840   44.8015   -3.7447 O.2     1  UNL1       -0.2451
     36 O         -25.0728   45.6811   -3.6170 O.3     1  UNL1       -0.4771
     37 H         -24.8686   45.1702   -2.7665 H       1  UNL1        0.2954
@<TRIPOS>BOND
     1    25    26    1
     2    26    24    1
     3    24    16    1
     4    16    17   ar
     5    17    18    1
     6    17    19   ar
     7    19    20   ar
     8    20    21   ar
     9    21    14    1
    10    14    15    1
    11    14     1    1
    12     1    27    1
    13    27    28    1
    14    28    29   ar
    15    29    30   ar
    16    30    31   ar
    17    31    32   ar
    18    32    34    1
    19    34    35    2
    20    34    36    1
    21    32    33   ar
    22     1     2   am
    23     2     3    2
    24     2     4    1
    25     4     5   ar
    26     5     6   ar
    27     6     7   ar
    28     7     8   ar
    29     8     9   ar
    30     9    10   ar
    31    10    11   ar
    32    11    12   ar
    33    12    13   ar
    34    21    22   ar
    35    22    23    1
    36    22    16   ar
    37    33    28   ar
    38    13     4   ar
    39    11     6   ar
    40    36    37    1
@<TRIPOS>MOLECULE
*****
 37 40 0 0 0
SMALL
GASTEIGER

@<TRIPOS>ATOM
      1 N         -29.0528   50.2594   -4.7549 N.am    1  UNL1       -0.2685
      2 C         -29.8895   49.2325   -4.1956 C.2     1  UNL1        0.2672
      3 O         -30.3288   49.3655   -3.0216 O.2     1  UNL1       -0.2682
      4 C         -30.2134   48.0246   -4.9840 C.ar    1  UNL1        0.1347
      5 C         -29.8200   47.9032   -6.3258 C.ar    1  UNL1        0.0238
      6 C         -30.1271   46.7318   -7.0312 C.ar    1  UNL1        0.0031
      7 C         -29.7416   46.5768   -8.3719 C.ar    1  UNL1        0.0001
      8 C         -30.0543   45.4002   -9.0597 C.ar    1  UNL1        0.0000
      9 C         -30.7515   44.3730   -8.4167 C.ar    1  UNL1        0.0000
     10 C         -31.1409   44.5156   -7.0816 C.ar    1  UNL1        0.0015
     11 C         -30.8319   45.6921   -6.3832 C.ar    1  UNL1        0.0192
     12 C         -31.2092   45.8588   -5.0466 C.ar    1  UNL1        0.0989
     13 N         -30.8919   47.0041   -4.3904 N.ar    1  UNL1       -0.2393
     14 C         -29.6398   51.3682   -5.5345 C.3     1  UNL1        0.1007
     15 C         -31.1599   51.4239   -5.3296 C.3     1  UNL1        0.0265
     16 C         -27.5631   51.6711   -8.7479 C.ar    1  UNL1        0.0619
     17 C         -28.3047   50.8684   -9.6313 C.ar    1  UNL1        0.1406
     18 F         -27.8578   50.6221  -10.8891 F       1  UNL1       -0.2044
     19 C         -29.5086   50.2990   -9.2169 C.ar    1  UNL1        0.0293
     20 C         -29.9713   50.4962   -7.9159 C.ar    1  UNL1        0.0018
     21 C         -29.2361   51.2779   -7.0024 C.ar    1  UNL1        0.0231
     22 C         -28.0320   51.8708   -7.4364 C.ar    1  UNL1        0.1382
     23 F         -27.2977   52.6252   -6.5793 F       1  UNL1       -0.2046
     24 C         -26.2259   52.2289   -9.1557 C.3     1  UNL1        0.1731
     25 C         -24.0583   51.5344   -9.5124 C.3     1  UNL1        0.1746
     26 O         -25.2173   51.3348   -8.7358 O.3     1  UNL1       -0.3462
     27 C         -27.6203   50.2411   -4.4285 C.3     1  UNL1        0.1207
     28 C         -26.9871   48.9822   -4.9574 C.ar    1  UNL1       -0.0021
     29 C         -26.7181   47.9082   -4.0954 C.ar    1  UNL1       -0.0026
     30 C         -26.2476   46.6976   -4.6070 C.ar    1  UNL1       -0.0001
     31 C         -26.0534   46.5435   -5.9819 C.ar    1  UNL1        0.0064
     32 C         -26.3189   47.6081   -6.8614 C.ar    1  UNL1        0.0752
     33 C         -26.7742   48.8297   -6.3360 C.ar    1  UNL1        0.0038
     34 C         -26.1437   47.4436   -8.3212 C.2     1  UNL1        0.3380
     35 O         -26.1678   48.4468   -9.0846 O.2     1  UNL1       -0.2451
     36 O         -25.9437   46.1777   -8.8660 O.3     1  UNL1       -0.4771
     37 H         -25.8187   46.0542   -9.8636 H       1  UNL1        0.2954
@<TRIPOS>BOND
     1    25    26    1
     2    26    24    1
     3    24    16    1
     4    16    17   ar
     5    17    18    1
     6    17    19   ar
     7    19    20   ar
     8    20    21   ar
     9    21    14    1
    10    14    15    1
    11    14     1    1
    12     1    27    1
    13    27    28    1
    14    28    29   ar
    15    29    30   ar
    16    30    31   ar
    17    31    32   ar
    18    32    34    1
    19    34    35    2
    20    34    36    1
    21    32    33   ar
    22     1     2   am
    23     2     3    2
    24     2     4    1
    25     4     5   ar
    26     5     6   ar
    27     6     7   ar
    28     7     8   ar
    29     8     9   ar
    30     9    10   ar
    31    10    11   ar
    32    11    12   ar
    33    12    13   ar
    34    21    22   ar
    35    22    23    1
    36    22    16   ar
    37    33    28   ar
    38    13     4   ar
    39    11     6   ar
    40    36    37    1
@<TRIPOS>MOLECULE
*****
 37 40 0 0 0
SMALL
GASTEIGER

@<TRIPOS>ATOM
      1 N         -26.6934   51.1465   -8.6155 N.am    1  UNL1       -0.2685
      2 C         -25.3518   50.6555   -8.4535 C.2     1  UNL1        0.2672
      3 O         -25.1289   49.7291   -7.6282 O.2     1  UNL1       -0.2682
      4 C         -24.2436   51.2464   -9.2334 C.ar    1  UNL1        0.1347
      5 C         -23.0345   51.6104   -8.6206 C.ar    1  UNL1        0.0238
      6 C         -22.0002   52.1463   -9.3999 C.ar    1  UNL1        0.0031
      7 C         -20.7768   52.5136   -8.8183 C.ar    1  UNL1        0.0001
      8 C         -19.7550   53.0446   -9.6115 C.ar    1  UNL1        0.0000
      9 C         -19.9459   53.2121  -10.9863 C.ar    1  UNL1        0.0000
     10 C         -21.1600   52.8500  -11.5771 C.ar    1  UNL1        0.0015
     11 C         -22.1911   52.3166  -10.7900 C.ar    1  UNL1        0.0192
     12 C         -23.4147   51.9454  -11.3572 C.ar    1  UNL1        0.0989
     13 N         -24.3944   51.4247  -10.5749 N.ar    1  UNL1       -0.2393
     14 C         -27.5885   50.5695   -9.6392 C.3     1  UNL1        0.1007
     15 C         -28.1719   51.6760  -10.5287 C.3     1  UNL1        0.0265
     16 C         -29.2335   47.6921   -7.7040 C.ar    1  UNL1        0.0619
     17 C         -30.5385   48.1851   -7.5348 C.ar    1  UNL1        0.1406
     18 F         -31.4512   47.4996   -6.8005 F       1  UNL1       -0.2044
     19 C         -30.9077   49.4007   -8.1103 C.ar    1  UNL1        0.0293
     20 C         -29.9790   50.1505   -8.8321 C.ar    1  UNL1        0.0018
     21 C         -28.6572   49.6906   -8.9979 C.ar    1  UNL1        0.0231
     22 C         -28.2982   48.4485   -8.4339 C.ar    1  UNL1        0.1382
     23 F         -27.0315   47.9798   -8.5713 F       1  UNL1       -0.2046
     24 C         -28.7989   46.4207   -7.0257 C.3     1  UNL1        0.1731
     25 C         -29.2541   45.3946   -5.0137 C.3     1  UNL1        0.1746
     26 O         -28.8773   46.6056   -5.6283 O.3     1  UNL1       -0.3462
     27 C         -27.1857   52.1478   -7.6596 C.3     1  UNL1        0.1207
     28 C         -27.7868   51.4643   -6.4608 C.ar    1  UNL1       -0.0021
     29 C         -29.1192   51.7126   -6.0978 C.ar    1  UNL1       -0.0026
     30 C         -29.7127   50.9862   -5.0640 C.ar    1  UNL1       -0.0001
     31 C         -28.9879   49.9985   -4.3925 C.ar    1  UNL1        0.0064
     32 C         -27.6519   49.7346   -4.7433 C.ar    1  UNL1        0.0752
     33 C         -27.0561   50.4838   -5.7726 C.ar    1  UNL1        0.0038
     34 C         -26.8867   48.6706   -4.0569 C.2     1  UNL1        0.3380
     35 O         -26.6098   48.7722   -2.8310 O.2     1  UNL1       -0.2451
     36 O         -26.4700   47.5419   -4.7582 O.3     1  UNL1       -0.4771
     37 H         -25.9490   46.8056   -4.2972 H       1  UNL1        0.2954
@<TRIPOS>BOND
     1    25    26    1
     2    26    24    1
     3    24    16    1
     4    16    17   ar
     5    17    18    1
     6    17    19   ar
     7    19    20   ar
     8    20    21   ar
     9    21    14    1
    10    14    15    1
    11    14     1    1
    12     1    27    1
    13    27    28    1
    14    28    29   ar
    15    29    30   ar
    16    30    31   ar
    17    31    32   ar
    18    32    34    1
    19    34    35    2
    20    34    36    1
    21    32    33   ar
    22     1     2   am
    23     2     3    2
    24     2     4    1
    25     4     5   ar
    26     5     6   ar
    27     6     7   ar
    28     7     8   ar
    29     8     9   ar
    30     9    10   ar
    31    10    11   ar
    32    11    12   ar
    33    12    13   ar
    34    21    22   ar
    35    22    23    1
    36    22    16   ar
    37    33    28   ar
    38    13     4   ar
    39    11     6   ar
    40    36    37    1
@<TRIPOS>MOLECULE
*****
 37 40 0 0 0
SMALL
GASTEIGER

@<TRIPOS>ATOM
      1 N         -26.2379   51.1432   -8.8575 N.am    1  UNL1       -0.2685
      2 C         -24.8647   50.8242   -8.5750 C.2     1  UNL1        0.2672
      3 O         -24.5977   50.0101   -7.6504 O.2     1  UNL1       -0.2682
      4 C         -23.7780   51.4611   -9.3490 C.ar    1  UNL1        0.1347
      5 C         -22.5279   51.7253   -8.7682 C.ar    1  UNL1        0.0238
      6 C         -21.5169   52.3095   -9.5433 C.ar    1  UNL1        0.0031
      7 C         -20.2540   52.5798   -8.9938 C.ar    1  UNL1        0.0001
      8 C         -19.2562   53.1609   -9.7826 C.ar    1  UNL1        0.0000
      9 C         -19.5107   53.4752  -11.1209 C.ar    1  UNL1        0.0000
     10 C         -20.7646   53.2107  -11.6795 C.ar    1  UNL1        0.0015
     11 C         -21.7719   52.6281  -10.8965 C.ar    1  UNL1        0.0192
     12 C         -23.0345   52.3524  -11.4320 C.ar    1  UNL1        0.0989
     13 N         -23.9903   51.7815  -10.6553 N.ar    1  UNL1       -0.2393
     14 C         -26.9978   50.3758   -9.8652 C.3     1  UNL1        0.1007
     15 C         -27.4957   51.3020  -10.9834 C.3     1  UNL1        0.0265
     16 C         -28.8010   47.8057   -7.6578 C.ar    1  UNL1        0.0619
     17 C         -30.1294   48.2568   -7.7395 C.ar    1  UNL1        0.1406
     18 F         -31.1103   47.6670   -7.0099 F       1  UNL1       -0.2044
     19 C         -30.4536   49.3334   -8.5647 C.ar    1  UNL1        0.0293
     20 C         -29.4601   49.9892   -9.2917 C.ar    1  UNL1        0.0018
     21 C         -28.1164   49.5721   -9.2106 C.ar    1  UNL1        0.0231
     22 C         -27.8001   48.4669   -8.3931 C.ar    1  UNL1        0.1382
     23 F         -26.5145   48.0434   -8.2893 F       1  UNL1       -0.2046
     24 C         -28.4238   46.6954   -6.7141 C.3     1  UNL1        0.1731
     25 C         -26.9443   46.4378   -4.9669 C.3     1  UNL1        0.1746
     26 O         -27.9441   47.2659   -5.5152 O.3     1  UNL1       -0.3462
     27 C         -26.8955   52.1675   -8.0345 C.3     1  UNL1        0.1207
     28 C         -27.5041   51.5340   -6.8122 C.ar    1  UNL1       -0.0021
     29 C         -26.7073   50.7907   -5.9283 C.ar    1  UNL1       -0.0026
     30 C         -27.2448   50.3098   -4.7330 C.ar    1  UNL1       -0.0001
     31 C         -28.5760   50.5765   -4.4033 C.ar    1  UNL1        0.0064
     32 C         -29.3894   51.3209   -5.2760 C.ar    1  UNL1        0.0752
     33 C         -28.8456   51.7849   -6.4863 C.ar    1  UNL1        0.0038
     34 C         -30.7915   51.6323   -4.9209 C.2     1  UNL1        0.3380
     35 O         -31.5830   50.7127   -4.5777 O.2     1  UNL1       -0.2451
     36 O         -31.2490   52.9471   -4.9560 O.3     1  UNL1       -0.4771
     37 H         -32.2058   53.1720   -4.7110 H       1  UNL1        0.2954
@<TRIPOS>BOND
     1    25    26    1
     2    26    24    1
     3    24    16    1
     4    16    17   ar
     5    17    18    1
     6    17    19   ar
     7    19    20   ar
     8    20    21   ar
     9    21    14    1
    10    14    15    1
    11    14     1    1
    12     1    27    1
    13    27    28    1
    14    28    29   ar
    15    29    30   ar
    16    30    31   ar
    17    31    32   ar
    18    32    34    1
    19    34    35    2
    20    34    36    1
    21    32    33   ar
    22     1     2   am
    23     2     3    2
    24     2     4    1
    25     4     5   ar
    26     5     6   ar
    27     6     7   ar
    28     7     8   ar
    29     8     9   ar
    30     9    10   ar
    31    10    11   ar
    32    11    12   ar
    33    12    13   ar
    34    21    22   ar
    35    22    23    1
    36    22    16   ar
    37    33    28   ar
    38    13     4   ar
    39    11     6   ar
    40    36    37    1
@<TRIPOS>MOLECULE
*****
 37 40 0 0 0
SMALL
GASTEIGER

@<TRIPOS>ATOM
      1 N         -30.1609   49.6570   -6.6087 N.am    1  UNL1       -0.2685
      2 C         -30.0806   50.4955   -7.7739 C.2     1  UNL1        0.2672
      3 O         -31.1432   50.8718   -8.3381 O.2     1  UNL1       -0.2682
      4 C         -28.7638   50.8943   -8.3148 C.ar    1  UNL1        0.1347
      5 C         -27.5708   50.5226   -7.6758 C.ar    1  UNL1        0.0238
      6 C         -26.3424   50.9017   -8.2338 C.ar    1  UNL1        0.0031
      7 C         -25.1318   50.5397   -7.6227 C.ar    1  UNL1        0.0001
      8 C         -23.9152   50.9246   -8.1949 C.ar    1  UNL1        0.0000
      9 C         -23.8981   51.6708   -9.3770 C.ar    1  UNL1        0.0000
     10 C         -25.0973   52.0373   -9.9950 C.ar    1  UNL1        0.0015
     11 C         -26.3226   51.6561   -9.4289 C.ar    1  UNL1        0.0192
     12 C         -27.5362   52.0092  -10.0283 C.ar    1  UNL1        0.0989
     13 N         -28.7088   51.6220   -9.4644 N.ar    1  UNL1       -0.2393
     14 C         -30.1902   50.2483   -5.2554 C.3     1  UNL1        0.1007
     15 C         -30.2802   51.7783   -5.3389 C.3     1  UNL1        0.0265
     16 C         -28.0453   48.0742   -2.9310 C.ar    1  UNL1        0.0619
     17 C         -26.7764   48.6515   -3.1078 C.ar    1  UNL1        0.1406
     18 F         -25.6786   48.1117   -2.5197 F       1  UNL1       -0.2044
     19 C         -26.6279   49.7840   -3.9082 C.ar    1  UNL1        0.0293
     20 C         -27.7297   50.3348   -4.5626 C.ar    1  UNL1        0.0018
     21 C         -29.0097   49.7624   -4.4211 C.ar    1  UNL1        0.0231
     22 C         -29.1562   48.6319   -3.5902 C.ar    1  UNL1        0.1382
     23 F         -30.3749   48.0538   -3.4369 F       1  UNL1       -0.2046
     24 C         -28.2087   46.8085   -2.1329 C.3     1  UNL1        0.1731
     25 C         -29.8458   46.1666   -0.6444 C.3     1  UNL1        0.1746
     26 O         -28.8467   47.1234   -0.9136 O.3     1  UNL1       -0.3462
     27 C         -30.3349   48.2113   -6.8051 C.3     1  UNL1        0.1207
     28 C         -29.1665   47.6510   -7.5710 C.ar    1  UNL1       -0.0021
     29 C         -27.9097   47.5316   -6.9587 C.ar    1  UNL1       -0.0026
     30 C         -26.8602   46.8982   -7.6266 C.ar    1  UNL1       -0.0001
     31 C         -27.0580   46.3677   -8.9038 C.ar    1  UNL1        0.0064
     32 C         -28.3110   46.4765   -9.5328 C.ar    1  UNL1        0.0752
     33 C         -29.3569   47.1327   -8.8610 C.ar    1  UNL1        0.0038
     34 C         -28.5368   45.8919  -10.8729 C.2     1  UNL1        0.3380
     35 O         -29.7034   45.6074  -11.2576 O.2     1  UNL1       -0.2451
     36 O         -27.4617   45.6561  -11.7262 O.3     1  UNL1       -0.4771
     37 H         -27.6054   45.2600  -12.6473 H       1  UNL1        0.2954
@<TRIPOS>BOND
     1    25    26    1
     2    26    24    1
     3    24    16    1
     4    16    17   ar
     5    17    18    1
     6    17    19   ar
     7    19    20   ar
     8    20    21   ar
     9    21    14    1
    10    14    15    1
    11    14     1    1
    12     1    27    1
    13    27    28    1
    14    28    29   ar
    15    29    30   ar
    16    30    31   ar
    17    31    32   ar
    18    32    34    1
    19    34    35    2
    20    34    36    1
    21    32    33   ar
    22     1     2   am
    23     2     3    2
    24     2     4    1
    25     4     5   ar
    26     5     6   ar
    27     6     7   ar
    28     7     8   ar
    29     8     9   ar
    30     9    10   ar
    31    10    11   ar
    32    11    12   ar
    33    12    13   ar
    34    21    22   ar
    35    22    23    1
    36    22    16   ar
    37    33    28   ar
    38    13     4   ar
    39    11     6   ar
    40    36    37    1
