@<TRIPOS>MOLECULE
*****
 46 51 0 0 0
SMALL
GASTEIGER

@<TRIPOS>ATOM
      1 C          60.9381   85.3726   13.0744 C.ar    1  UNL1        0.0702
      2 C          59.6079   85.3640   12.6264 C.ar    1  UNL1        0.0191
      3 C          58.9675   84.1540   12.3551 C.ar    1  UNL1        0.0356
      4 C          59.6679   82.9487   12.5148 C.ar    1  UNL1        0.1318
      5 N          60.9616   82.9825   12.9397 N.ar    1  UNL1       -0.2279
      6 C          61.6057   84.1487   13.2083 C.ar    1  UNL1        0.1149
      7 N          59.0305   81.6816   12.2675 N.pl3   1  UNL1       -0.2932
      8 C          59.2058   80.5762   13.2258 C.3     1  UNL1        0.0923
      9 C          58.6770   79.2446   12.6664 C.3     1  UNL1        0.0252
     10 C          58.8519   79.1656   11.1390 C.3     1  UNL1        0.0472
     11 C          58.0181   80.2790   10.4625 C.3     1  UNL1        0.0252
     12 C          57.9703   81.6036   11.2531 C.3     1  UNL1        0.0923
     13 C          60.3488   79.1799   10.7456 C.3     1  UNL1        0.2054
     14 O          60.6399   80.2269    9.8165 O.3     1  UNL1       -0.4755
     15 C          61.6301   81.2159    9.9603 C.ar    1  UNL1        0.1388
     16 C          62.8664   80.9836   10.5957 C.ar    1  UNL1        0.0369
     17 C          63.8057   82.0105   10.7009 C.ar    1  UNL1        0.0033
     18 C          63.5279   83.2771   10.1834 C.ar    1  UNL1        0.0066
     19 C          62.2953   83.5347    9.5590 C.ar    1  UNL1        0.0785
     20 C          61.3582   82.4908    9.4478 C.ar    1  UNL1        0.0433
     21 C          61.9826   84.8735    9.0017 C.2     1  UNL1        0.3381
     22 O          62.7428   85.3831    8.1359 O.2     1  UNL1       -0.2451
     23 O          60.8531   85.5890    9.3979 O.3     1  UNL1       -0.4771
     24 H          60.1469   85.1995   10.0085 H       1  UNL1        0.2954
     25 C          61.9812   87.5662   12.3378 C.2     1  UNL1        0.2839
     26 O          61.4567   87.5044   11.1933 O.2     1  UNL1       -0.2665
     27 N          61.6391   86.5989   13.3436 N.am    1  UNL1       -0.2766
     28 H          61.8341   86.8393   14.3419 H       1  UNL1        0.1553
     29 C          64.1348   87.6161   14.7110 C.3     1  UNL1        0.0345
     30 C          63.8598   88.6847   13.6961 C.ar    1  UNL1        0.0202
     31 C          62.9187   88.6585   12.6607 C.ar    1  UNL1        0.1946
     32 O          62.9703   89.7863   11.9744 O.2     1  UNL1       -0.4492
     33 C          63.8968   90.5424   12.5109 C.ar    1  UNL1        0.1452
     34 C          64.2852   91.8152   12.1079 C.ar    1  UNL1        0.0375
     35 C          65.3071   92.4536   12.8316 C.ar    1  UNL1        0.0031
     36 C          65.9226   91.8142   13.9415 C.ar    1  UNL1        0.0002
     37 C          65.4976   90.5175   14.3187 C.ar    1  UNL1        0.0028
     38 C          64.4807   89.9134   13.5776 C.ar    1  UNL1        0.0337
     39 C          67.0012   92.4987   14.6988 C.ar    1  UNL1        0.0002
     40 C          67.1191   93.9007   14.6667 C.ar    1  UNL1        0.0031
     41 C          68.1347   94.5433   15.3810 C.ar    1  UNL1        0.0366
     42 C          69.0454   93.7981   16.1352 C.ar    1  UNL1        0.1337
     43 O          70.0522   94.4523   16.8414 O.3     1  UNL1       -0.5055
     44 C          68.9369   92.4023   16.1734 C.ar    1  UNL1        0.0366
     45 C          67.9221   91.7561   15.4612 C.ar    1  UNL1        0.0031
     46 H          70.7275   93.9404   17.3972 H       1  UNL1        0.2922
@<TRIPOS>BOND
     1    29    30    1
     2    30    31   ar
     3    31    25    1
     4    25    26    2
     5    25    27   am
     6    27     1    1
     7     1     2   ar
     8     2     3   ar
     9     3     4   ar
    10     4     7    1
    11     7     8    1
    12     8     9    1
    13     9    10    1
    14    10    13    1
    15    13    14    1
    16    14    15    1
    17    15    16   ar
    18    16    17   ar
    19    17    18   ar
    20    18    19   ar
    21    19    21    1
    22    21    22    2
    23    21    23    1
    24    19    20   ar
    25    10    11    1
    26    11    12    1
    27     4     5   ar
    28     5     6   ar
    29    31    32   ar
    30    32    33   ar
    31    33    34   ar
    32    34    35   ar
    33    35    36   ar
    34    36    39    1
    35    39    40   ar
    36    40    41   ar
    37    41    42   ar
    38    42    43    1
    39    42    44   ar
    40    44    45   ar
    41    36    37   ar
    42    37    38   ar
    43    38    30   ar
    44     6     1   ar
    45    38    33   ar
    46    12     7    1
    47    45    39   ar
    48    20    15   ar
    49    27    28    1
    50    23    24    1
    51    43    46    1
@<TRIPOS>MOLECULE
*****
 46 51 0 0 0
SMALL
GASTEIGER

@<TRIPOS>ATOM
      1 C          61.2248   85.5459   12.6700 C.ar    1  UNL1        0.0702
      2 C          60.2028   85.0150   13.4725 C.ar    1  UNL1        0.0191
      3 C          59.4889   83.8937   13.0475 C.ar    1  UNL1        0.0356
      4 C          59.7865   83.3130   11.8053 C.ar    1  UNL1        0.1318
      5 N          60.7747   83.8525   11.0386 N.ar    1  UNL1       -0.2279
      6 C          61.4818   84.9447   11.4314 C.ar    1  UNL1        0.1149
      7 N          59.0866   82.1413   11.3470 N.pl3   1  UNL1       -0.2932
      8 C          58.5763   81.1655   12.3261 C.3     1  UNL1        0.0923
      9 C          58.0991   79.8702   11.6476 C.3     1  UNL1        0.0252
     10 C          58.9288   79.5539   10.3900 C.3     1  UNL1        0.0472
     11 C          58.7418   80.6809    9.3473 C.3     1  UNL1        0.0252
     12 C          58.6127   82.0928    9.9571 C.3     1  UNL1        0.0923
     13 C          60.4081   79.2758   10.7508 C.3     1  UNL1        0.2054
     14 O          61.2784   80.2751   10.2143 O.3     1  UNL1       -0.4755
     15 C          62.2692   80.9819   10.9201 C.ar    1  UNL1        0.1388
     16 C          63.2185   81.8138   10.2931 C.ar    1  UNL1        0.0369
     17 C          64.1728   82.4890   11.0555 C.ar    1  UNL1        0.0033
     18 C          64.1997   82.3427   12.4436 C.ar    1  UNL1        0.0066
     19 C          63.2718   81.5065   13.0881 C.ar    1  UNL1        0.0785
     20 C          62.3063   80.8379   12.3129 C.ar    1  UNL1        0.0433
     21 C          63.2837   81.3398   14.5621 C.2     1  UNL1        0.3381
     22 O          63.8755   80.3527   15.0746 O.2     1  UNL1       -0.2451
     23 O          62.6670   82.2586   15.4107 O.3     1  UNL1       -0.4771
     24 H          62.2643   83.1245   15.0771 H       1  UNL1        0.2954
     25 C          61.9892   87.9404   12.3172 C.2     1  UNL1        0.2839
     26 O          61.1470   88.1413   11.4012 O.2     1  UNL1       -0.2665
     27 N          61.9681   86.7124   13.0629 N.am    1  UNL1       -0.2766
     28 H          62.4513   86.6927   13.9894 H       1  UNL1        0.1553
     29 C          64.1039   87.8873   14.7251 C.3     1  UNL1        0.0345
     30 C          63.8992   88.9662   13.7045 C.ar    1  UNL1        0.0202
     31 C          62.9750   88.9850   12.6540 C.ar    1  UNL1        0.1946
     32 O          63.0941   90.1074   11.9671 O.2     1  UNL1       -0.4492
     33 C          64.0485   90.8172   12.5176 C.ar    1  UNL1        0.1452
     34 C          64.5068   92.0680   12.1193 C.ar    1  UNL1        0.0375
     35 C          65.5475   92.6560   12.8588 C.ar    1  UNL1        0.0031
     36 C          66.1121   91.9889   13.9794 C.ar    1  UNL1        0.0002
     37 C          65.6165   90.7160   14.3513 C.ar    1  UNL1        0.0028
     38 C          64.5829   90.1620   13.5945 C.ar    1  UNL1        0.0337
     39 C          67.2112   92.6201   14.7532 C.ar    1  UNL1        0.0002
     40 C          67.3367   94.0209   14.8056 C.ar    1  UNL1        0.0031
     41 C          68.3717   94.6132   15.5354 C.ar    1  UNL1        0.0366
     42 C          69.2945   93.8184   16.2212 C.ar    1  UNL1        0.1337
     43 O          70.3205   94.4229   16.9439 O.3     1  UNL1       -0.5055
     44 C          69.1786   92.4234   16.1751 C.ar    1  UNL1        0.0366
     45 C          68.1445   91.8274   15.4472 C.ar    1  UNL1        0.0031
     46 H          71.0049   93.8743   17.4515 H       1  UNL1        0.2922
@<TRIPOS>BOND
     1    29    30    1
     2    30    31   ar
     3    31    25    1
     4    25    26    2
     5    25    27   am
     6    27     1    1
     7     1     2   ar
     8     2     3   ar
     9     3     4   ar
    10     4     7    1
    11     7     8    1
    12     8     9    1
    13     9    10    1
    14    10    13    1
    15    13    14    1
    16    14    15    1
    17    15    16   ar
    18    16    17   ar
    19    17    18   ar
    20    18    19   ar
    21    19    21    1
    22    21    22    2
    23    21    23    1
    24    19    20   ar
    25    10    11    1
    26    11    12    1
    27     4     5   ar
    28     5     6   ar
    29    31    32   ar
    30    32    33   ar
    31    33    34   ar
    32    34    35   ar
    33    35    36   ar
    34    36    39    1
    35    39    40   ar
    36    40    41   ar
    37    41    42   ar
    38    42    43    1
    39    42    44   ar
    40    44    45   ar
    41    36    37   ar
    42    37    38   ar
    43    38    30   ar
    44     6     1   ar
    45    38    33   ar
    46    12     7    1
    47    45    39   ar
    48    20    15   ar
    49    27    28    1
    50    23    24    1
    51    43    46    1
@<TRIPOS>MOLECULE
*****
 46 51 0 0 0
SMALL
GASTEIGER

@<TRIPOS>ATOM
      1 C          61.5647   86.4121   10.8311 C.ar    1  UNL1        0.0702
      2 C          60.2297   86.1769   11.1952 C.ar    1  UNL1        0.0191
      3 C          59.4667   85.2414   10.4950 C.ar    1  UNL1        0.0356
      4 C          60.0369   84.5524    9.4137 C.ar    1  UNL1        0.1318
      5 N          61.3308   84.8057    9.0716 N.ar    1  UNL1       -0.2279
      6 C          62.0920   85.7132    9.7380 C.ar    1  UNL1        0.1149
      7 N          59.2863   83.5632    8.6852 N.pl3   1  UNL1       -0.2932
      8 C          57.8325   83.4480    8.8955 C.3     1  UNL1        0.0923
      9 C          57.2579   82.1810    8.2394 C.3     1  UNL1        0.0252
     10 C          58.2770   81.0273    8.2532 C.3     1  UNL1        0.0472
     11 C          59.5180   81.4205    7.4180 C.3     1  UNL1        0.0252
     12 C          59.9072   82.9102    7.5245 C.3     1  UNL1        0.0923
     13 C          58.6106   80.5925    9.7008 C.3     1  UNL1        0.2054
     14 O          60.0211   80.5734    9.9338 O.3     1  UNL1       -0.4755
     15 C          60.7263   81.3881   10.8385 C.ar    1  UNL1        0.1388
     16 C          60.1419   81.9435   11.9943 C.ar    1  UNL1        0.0369
     17 C          60.9016   82.7411   12.8513 C.ar    1  UNL1        0.0033
     18 C          62.2441   83.0006   12.5694 C.ar    1  UNL1        0.0066
     19 C          62.8431   82.4689   11.4144 C.ar    1  UNL1        0.0785
     20 C          62.0728   81.6570   10.5614 C.ar    1  UNL1        0.0433
     21 C          64.2685   82.7321   11.0989 C.2     1  UNL1        0.3381
     22 O          64.6921   82.5542    9.9258 O.2     1  UNL1       -0.2451
     23 O          65.1629   83.1899   12.0659 O.3     1  UNL1       -0.4771
     24 H          64.8713   83.4522   12.9984 H       1  UNL1        0.2954
     25 C          62.1691   88.8027   11.4335 C.2     1  UNL1        0.2839
     26 O          61.0973   89.2615   10.9544 O.2     1  UNL1       -0.2665
     27 N          62.3765   87.3831   11.5137 N.am    1  UNL1       -0.2766
     28 H          63.1054   87.0304   12.1745 H       1  UNL1        0.1553
     29 C          63.9757   88.3953   14.0495 C.3     1  UNL1        0.0345
     30 C          63.9886   89.5501   13.0936 C.ar    1  UNL1        0.0202
     31 C          63.1984   89.7237   11.9518 C.ar    1  UNL1        0.1946
     32 O          63.4965   90.8697   11.3656 O.2     1  UNL1       -0.4492
     33 C          64.4399   91.4479   12.0680 C.ar    1  UNL1        0.1452
     34 C          65.0514   92.6707   11.8146 C.ar    1  UNL1        0.0375
     35 C          66.0473   93.1078   12.7049 C.ar    1  UNL1        0.0031
     36 C          66.4156   92.3209   13.8295 C.ar    1  UNL1        0.0002
     37 C          65.7684   91.0815   14.0510 C.ar    1  UNL1        0.0028
     38 C          64.7845   90.6784   13.1468 C.ar    1  UNL1        0.0337
     39 C          67.4692   92.7931   14.7634 C.ar    1  UNL1        0.0002
     40 C          67.7011   94.1696   14.9435 C.ar    1  UNL1        0.0031
     41 C          68.6929   94.6121   15.8240 C.ar    1  UNL1        0.0366
     42 C          69.4660   93.6902   16.5351 C.ar    1  UNL1        0.1337
     43 O          70.4507   94.1462   17.4085 O.3     1  UNL1       -0.5055
     44 C          69.2433   92.3182   16.3628 C.ar    1  UNL1        0.0366
     45 C          68.2519   91.8717   15.4840 C.ar    1  UNL1        0.0031
     46 H          71.0275   93.5031   17.9383 H       1  UNL1        0.2922
@<TRIPOS>BOND
     1    29    30    1
     2    30    31   ar
     3    31    25    1
     4    25    26    2
     5    25    27   am
     6    27     1    1
     7     1     2   ar
     8     2     3   ar
     9     3     4   ar
    10     4     7    1
    11     7     8    1
    12     8     9    1
    13     9    10    1
    14    10    13    1
    15    13    14    1
    16    14    15    1
    17    15    16   ar
    18    16    17   ar
    19    17    18   ar
    20    18    19   ar
    21    19    21    1
    22    21    22    2
    23    21    23    1
    24    19    20   ar
    25    10    11    1
    26    11    12    1
    27     4     5   ar
    28     5     6   ar
    29    31    32   ar
    30    32    33   ar
    31    33    34   ar
    32    34    35   ar
    33    35    36   ar
    34    36    39    1
    35    39    40   ar
    36    40    41   ar
    37    41    42   ar
    38    42    43    1
    39    42    44   ar
    40    44    45   ar
    41    36    37   ar
    42    37    38   ar
    43    38    30   ar
    44     6     1   ar
    45    38    33   ar
    46    12     7    1
    47    45    39   ar
    48    20    15   ar
    49    27    28    1
    50    23    24    1
    51    43    46    1
