@<TRIPOS>MOLECULE
*****
 37 42 0 0 0
SMALL
GASTEIGER

@<TRIPOS>ATOM
      1 C         -21.6721   -8.5280  -13.6845 C.ar    1  UNL1        0.1379
      2 N         -20.7679   -7.9387  -14.5237 N.ar    1  UNL1       -0.2089
      3 C         -20.7623   -8.1942  -15.8704 C.ar    1  UNL1        0.2014
      4 N         -21.6523   -9.0775  -16.4121 N.ar    1  UNL1       -0.2050
      5 C         -22.5512   -9.6646  -15.5858 C.ar    1  UNL1        0.1654
      6 C         -22.6112   -9.3906  -14.2551 C.ar    1  UNL1        0.0865
      7 C         -23.7017  -10.1194  -13.7984 C.ar    1  UNL1        0.1095
      8 N         -24.2323  -10.8093  -14.8399 N.ar    1  UNL1       -0.1677
      9 N         -23.5121  -10.5389  -15.9226 N.ar    1  UNL1       -0.2319
     10 C         -23.8241  -11.0278  -17.2588 C.3     1  UNL1        0.1554
     11 C         -24.3396  -10.0479  -12.4765 C.ar    1  UNL1        0.0577
     12 C         -24.0694  -10.8514  -11.3865 C.ar    1  UNL1        0.1231
     13 N         -24.7892  -10.4276  -10.3297 N.ar    1  UNL1       -0.1676
     14 N         -25.5008   -9.3792  -10.7161 N.ar    1  UNL1       -0.2488
     15 C         -26.4163   -8.6714   -9.8272 C.3     1  UNL1        0.1537
     16 C         -25.2352   -9.1012  -12.0130 C.ar    1  UNL1        0.0809
     17 C         -25.8464   -8.0129  -12.8065 C.ar    1  UNL1        0.0174
     18 C         -25.1055   -6.8587  -13.1062 C.ar    1  UNL1        0.0012
     19 C         -25.6818   -5.8209  -13.8438 C.ar    1  UNL1       -0.0042
     20 C         -27.0121   -5.9160  -14.2784 C.ar    1  UNL1       -0.0218
     21 C         -27.6183   -4.8192  -15.1026 C.3     1  UNL1        0.0310
     22 C         -27.7495   -7.0742  -13.9905 C.ar    1  UNL1       -0.0042
     23 C         -27.1734   -8.1121  -13.2521 C.ar    1  UNL1        0.0012
     24 C         -21.4636   -8.8757   -9.9329 C.3     1  UNL1        0.0790
     25 C         -22.2623   -7.5703  -10.1458 C.3     1  UNL1        0.0391
     26 C         -22.0537   -7.1672  -11.5984 C.3     1  UNL1        0.0937
     27 N         -21.5536   -8.3543  -12.2669 N.pl3   1  UNL1       -0.2917
     28 C         -21.4142   -9.4756  -11.3573 C.3     1  UNL1        0.1081
     29 C         -18.9050   -9.0438   -6.5855 C.3     1  UNL1        0.0324
     30 C         -20.2138   -8.2533   -6.8200 C.3     1  UNL1        0.0199
     31 C         -20.2446   -7.5964   -8.2102 C.3     1  UNL1        0.0722
     32 N         -20.1276   -8.5771   -9.3332 N.3     1  UNL1       -0.2723
     33 C         -19.3599   -9.7956   -8.9534 C.3     1  UNL1        0.0722
     34 C         -18.2717   -9.5031   -7.9142 C.3     1  UNL1        0.0199
     35 C         -17.8953   -8.2585   -5.7286 C.3     1  UNL1        0.1423
     36 C         -16.0635   -8.4987   -4.3522 C.3     1  UNL1        0.1741
     37 O         -16.7736   -9.0648   -5.4300 O.3     1  UNL1       -0.3511
@<TRIPOS>BOND
     1    36    37    1
     2    37    35    1
     3    35    29    1
     4    29    30    1
     5    30    31    1
     6    31    32    1
     7    32    24    1
     8    24    25    1
     9    25    26    1
    10    26    27    1
    11    27     1    1
    12     1     2   ar
    13     2     3   ar
    14     3     4   ar
    15     4     5   ar
    16     5     6   ar
    17     6     7   ar
    18     7    11    1
    19    11    12   ar
    20    12    13   ar
    21    13    14   ar
    22    14    15    1
    23    14    16   ar
    24    16    17    1
    25    17    18   ar
    26    18    19   ar
    27    19    20   ar
    28    20    21    1
    29    20    22   ar
    30    22    23   ar
    31     7     8   ar
    32     8     9   ar
    33     9    10    1
    34    27    28    1
    35    32    33    1
    36    33    34    1
    37    34    29    1
    38    28    24    1
    39     6     1   ar
    40    16    11   ar
    41    23    17   ar
    42     9     5   ar
@<TRIPOS>MOLECULE
*****
 37 42 0 0 0
SMALL
GASTEIGER

@<TRIPOS>ATOM
      1 C         -24.5214   -8.5705  -10.9849 C.ar    1  UNL1        0.1379
      2 N         -25.1573   -8.7761   -9.7922 N.ar    1  UNL1       -0.2089
      3 C         -26.5102   -8.6016   -9.6578 C.ar    1  UNL1        0.2014
      4 N         -27.2640   -8.1842  -10.7177 N.ar    1  UNL1       -0.2050
      5 C         -26.6398   -7.9790  -11.9025 C.ar    1  UNL1        0.1654
      6 C         -25.3081   -8.1934  -12.0759 C.ar    1  UNL1        0.0865
      7 C         -25.0899   -7.9539  -13.4265 C.ar    1  UNL1        0.1095
      8 N         -26.2645   -7.5887  -14.0001 N.ar    1  UNL1       -0.1677
      9 N         -27.2008   -7.5897  -13.0580 N.ar    1  UNL1       -0.2319
     10 C         -28.6130   -7.3316  -13.3043 C.3     1  UNL1        0.1554
     11 C         -23.8692   -8.2202  -14.2000 C.ar    1  UNL1        0.0577
     12 C         -22.8835   -7.3090  -14.5237 C.ar    1  UNL1        0.1231
     13 N         -21.8815   -7.9429  -15.1629 N.ar    1  UNL1       -0.1676
     14 N         -22.2003   -9.2259  -15.2481 N.ar    1  UNL1       -0.2488
     15 C         -21.3471  -10.2132  -15.9010 C.3     1  UNL1        0.1537
     16 C         -23.3947   -9.4391  -14.6500 C.ar    1  UNL1        0.0809
     17 C         -24.0934  -10.7392  -14.5535 C.ar    1  UNL1        0.0174
     18 C         -24.1211  -11.4347  -13.3342 C.ar    1  UNL1        0.0012
     19 C         -24.7676  -12.6700  -13.2400 C.ar    1  UNL1       -0.0042
     20 C         -25.3819  -13.2347  -14.3676 C.ar    1  UNL1       -0.0218
     21 C         -26.1087  -14.5421  -14.2574 C.3     1  UNL1        0.0310
     22 C         -25.3659  -12.5350  -15.5834 C.ar    1  UNL1       -0.0042
     23 C         -24.7185  -11.2995  -15.6779 C.ar    1  UNL1        0.0012
     24 C         -20.8322   -7.9477  -11.4758 C.3     1  UNL1        0.0790
     25 C         -21.0166   -9.4339  -11.8558 C.3     1  UNL1        0.0391
     26 C         -22.3779   -9.8523  -11.3195 C.3     1  UNL1        0.0937
     27 N         -23.0906   -8.6167  -11.0518 N.pl3   1  UNL1       -0.2917
     28 C         -22.2907   -7.4467  -11.3609 C.3     1  UNL1        0.1081
     29 C         -20.2823   -9.0301   -7.4377 C.3     1  UNL1        0.0324
     30 C         -21.3975   -8.2039   -8.1210 C.3     1  UNL1        0.0199
     31 C         -20.8250   -7.1910   -9.1268 C.3     1  UNL1        0.0722
     32 N         -20.0286   -7.8265  -10.2215 N.3     1  UNL1       -0.2723
     33 C         -19.3888   -9.1035   -9.7990 C.3     1  UNL1        0.0722
     34 C         -19.0149   -9.1083   -8.3124 C.3     1  UNL1        0.0199
     35 C         -19.9544   -8.5109   -6.0258 C.3     1  UNL1        0.1423
     36 C         -20.6924   -8.9906   -3.8968 C.3     1  UNL1        0.1741
     37 O         -21.0918   -8.6049   -5.1921 O.3     1  UNL1       -0.3511
@<TRIPOS>BOND
     1    36    37    1
     2    37    35    1
     3    35    29    1
     4    29    30    1
     5    30    31    1
     6    31    32    1
     7    32    24    1
     8    24    25    1
     9    25    26    1
    10    26    27    1
    11    27     1    1
    12     1     2   ar
    13     2     3   ar
    14     3     4   ar
    15     4     5   ar
    16     5     6   ar
    17     6     7   ar
    18     7    11    1
    19    11    12   ar
    20    12    13   ar
    21    13    14   ar
    22    14    15    1
    23    14    16   ar
    24    16    17    1
    25    17    18   ar
    26    18    19   ar
    27    19    20   ar
    28    20    21    1
    29    20    22   ar
    30    22    23   ar
    31     7     8   ar
    32     8     9   ar
    33     9    10    1
    34    27    28    1
    35    32    33    1
    36    33    34    1
    37    34    29    1
    38    28    24    1
    39     6     1   ar
    40    16    11   ar
    41    23    17   ar
    42     9     5   ar
@<TRIPOS>MOLECULE
*****
 37 42 0 0 0
SMALL
GASTEIGER

@<TRIPOS>ATOM
      1 C         -26.6350   -7.9375  -12.4075 C.ar    1  UNL1        0.1379
      2 N         -27.8359   -8.5699  -12.5723 N.ar    1  UNL1       -0.2089
      3 C         -28.7788   -8.1068  -13.4528 C.ar    1  UNL1        0.2014
      4 N         -28.5528   -6.9707  -14.1765 N.ar    1  UNL1       -0.2050
      5 C         -27.3646   -6.3395  -14.0180 C.ar    1  UNL1        0.1654
      6 C         -26.3921   -6.8056  -13.1893 C.ar    1  UNL1        0.0865
      7 C         -25.3265   -5.9352  -13.3789 C.ar    1  UNL1        0.1095
      8 N         -25.6941   -4.9842  -14.2748 N.ar    1  UNL1       -0.1677
      9 N         -26.9458   -5.2294  -14.6454 N.ar    1  UNL1       -0.2319
     10 C         -27.6637   -4.4726  -15.6620 C.3     1  UNL1        0.1554
     11 C         -23.9521   -6.0759  -12.8783 C.ar    1  UNL1        0.0577
     12 C         -23.3986   -5.4220  -11.7954 C.ar    1  UNL1        0.1231
     13 N         -22.1464   -5.8751  -11.5922 N.ar    1  UNL1       -0.1676
     14 N         -21.8938   -6.7979  -12.5083 N.ar    1  UNL1       -0.2488
     15 C         -20.6149   -7.4944  -12.6006 C.3     1  UNL1        0.1537
     16 C         -22.9801   -6.9667  -13.2965 C.ar    1  UNL1        0.0809
     17 C         -23.0812   -7.8974  -14.4416 C.ar    1  UNL1        0.0174
     18 C         -23.4747   -9.2290  -14.2339 C.ar    1  UNL1        0.0012
     19 C         -23.5588  -10.1169  -15.3097 C.ar    1  UNL1       -0.0042
     20 C         -23.2352   -9.6901  -16.6061 C.ar    1  UNL1       -0.0218
     21 C         -23.3623  -10.6324  -17.7661 C.3     1  UNL1        0.0310
     22 C         -22.8541   -8.3565  -16.8170 C.ar    1  UNL1       -0.0042
     23 C         -22.7693   -7.4683  -15.7407 C.ar    1  UNL1        0.0012
     24 C         -24.1663   -9.7012  -10.1639 C.3     1  UNL1        0.0790
     25 C         -25.1936   -9.0895   -9.1852 C.3     1  UNL1        0.0391
     26 C         -25.9836   -8.0570   -9.9763 C.3     1  UNL1        0.0937
     27 N         -25.7375   -8.3613  -11.3738 N.pl3   1  UNL1       -0.2917
     28 C         -24.8458   -9.4937  -11.5374 C.3     1  UNL1        0.1081
     29 C         -20.6262   -9.1867   -7.9316 C.3     1  UNL1        0.0324
     30 C         -22.0932   -8.8252   -7.5998 C.3     1  UNL1        0.0199
     31 C         -22.8044   -8.1659   -8.7934 C.3     1  UNL1        0.0722
     32 N         -22.8399   -9.0289  -10.0142 N.3     1  UNL1       -0.2723
     33 C         -21.6855   -9.9672  -10.0877 C.3     1  UNL1        0.0722
     34 C         -20.4187   -9.3898   -9.4460 C.3     1  UNL1        0.0199
     35 C         -19.6301   -8.1585   -7.3652 C.3     1  UNL1        0.1423
     36 C         -18.7011   -7.9214   -5.2704 C.3     1  UNL1        0.1741
     37 O         -19.9057   -7.9081   -6.0018 O.3     1  UNL1       -0.3511
@<TRIPOS>BOND
     1    36    37    1
     2    37    35    1
     3    35    29    1
     4    29    30    1
     5    30    31    1
     6    31    32    1
     7    32    24    1
     8    24    25    1
     9    25    26    1
    10    26    27    1
    11    27     1    1
    12     1     2   ar
    13     2     3   ar
    14     3     4   ar
    15     4     5   ar
    16     5     6   ar
    17     6     7   ar
    18     7    11    1
    19    11    12   ar
    20    12    13   ar
    21    13    14   ar
    22    14    15    1
    23    14    16   ar
    24    16    17    1
    25    17    18   ar
    26    18    19   ar
    27    19    20   ar
    28    20    21    1
    29    20    22   ar
    30    22    23   ar
    31     7     8   ar
    32     8     9   ar
    33     9    10    1
    34    27    28    1
    35    32    33    1
    36    33    34    1
    37    34    29    1
    38    28    24    1
    39     6     1   ar
    40    16    11   ar
    41    23    17   ar
    42     9     5   ar
@<TRIPOS>MOLECULE
*****
 37 42 0 0 0
SMALL
GASTEIGER

@<TRIPOS>ATOM
      1 C         -23.9523   -8.3123  -10.7217 C.ar    1  UNL1        0.1379
      2 N         -24.0687   -8.1572   -9.3684 N.ar    1  UNL1       -0.2089
      3 C         -23.1166   -8.6325   -8.5044 C.ar    1  UNL1        0.2014
      4 N         -22.0271   -9.3076   -8.9766 N.ar    1  UNL1       -0.2050
      5 C         -21.9057   -9.4644  -10.3169 C.ar    1  UNL1        0.1654
      6 C         -22.8095   -8.9589  -11.1985 C.ar    1  UNL1        0.0865
      7 C         -22.2824   -9.2591  -12.4479 C.ar    1  UNL1        0.1095
      8 N         -21.1203   -9.9397  -12.2791 N.ar    1  UNL1       -0.1677
      9 N         -20.9083  -10.0755  -10.9750 N.ar    1  UNL1       -0.2319
     10 C         -19.7159  -10.6793  -10.3959 C.3     1  UNL1        0.1554
     11 C         -22.7489   -8.7827  -13.7574 C.ar    1  UNL1        0.0577
     12 C         -22.8946   -7.4674  -14.1517 C.ar    1  UNL1        0.1231
     13 N         -23.2589   -7.4273  -15.4480 N.ar    1  UNL1       -0.1676
     14 N         -23.3423   -8.6747  -15.8861 N.ar    1  UNL1       -0.2488
     15 C         -23.7336   -9.0111  -17.2509 C.3     1  UNL1        0.1537
     16 C         -23.0144   -9.5299  -14.8907 C.ar    1  UNL1        0.0809
     17 C         -23.0046  -11.0059  -14.9873 C.ar    1  UNL1        0.0174
     18 C         -24.1725  -11.7367  -14.7169 C.ar    1  UNL1        0.0012
     19 C         -24.1662  -13.1321  -14.7931 C.ar    1  UNL1       -0.0042
     20 C         -22.9880  -13.8171  -15.1250 C.ar    1  UNL1       -0.0218
     21 C         -22.9908  -15.3123  -15.2442 C.3     1  UNL1        0.0310
     22 C         -21.8236  -13.0875  -15.4078 C.ar    1  UNL1       -0.0042
     23 C         -21.8296  -11.6916  -15.3310 C.ar    1  UNL1        0.0012
     24 C         -26.7885   -6.6339  -12.5596 C.3     1  UNL1        0.0790
     25 C         -27.2377   -8.1074  -12.4399 C.3     1  UNL1        0.0391
     26 C         -25.9993   -8.9084  -12.0649 C.3     1  UNL1        0.0937
     27 N         -25.0352   -7.9370  -11.5821 N.pl3   1  UNL1       -0.2917
     28 C         -25.5528   -6.5828  -11.6314 C.3     1  UNL1        0.1081
     29 C         -27.3919   -4.0101  -15.8048 C.3     1  UNL1        0.0324
     30 C         -28.3759   -4.9456  -15.0635 C.3     1  UNL1        0.0199
     31 C         -27.7634   -6.3328  -14.8066 C.3     1  UNL1        0.0722
     32 N         -26.5132   -6.2875  -13.9872 N.3     1  UNL1       -0.2723
     33 C         -25.7621   -5.0125  -14.1561 C.3     1  UNL1        0.0722
     34 C         -25.9251   -4.4172  -15.5592 C.3     1  UNL1        0.0199
     35 C         -27.6998   -3.9155  -17.3104 C.3     1  UNL1        0.1423
     36 C         -28.7887   -2.4145  -18.6774 C.3     1  UNL1        0.1741
     37 O         -27.7725   -2.5624  -17.7121 O.3     1  UNL1       -0.3511
@<TRIPOS>BOND
     1    36    37    1
     2    37    35    1
     3    35    29    1
     4    29    30    1
     5    30    31    1
     6    31    32    1
     7    32    24    1
     8    24    25    1
     9    25    26    1
    10    26    27    1
    11    27     1    1
    12     1     2   ar
    13     2     3   ar
    14     3     4   ar
    15     4     5   ar
    16     5     6   ar
    17     6     7   ar
    18     7    11    1
    19    11    12   ar
    20    12    13   ar
    21    13    14   ar
    22    14    15    1
    23    14    16   ar
    24    16    17    1
    25    17    18   ar
    26    18    19   ar
    27    19    20   ar
    28    20    21    1
    29    20    22   ar
    30    22    23   ar
    31     7     8   ar
    32     8     9   ar
    33     9    10    1
    34    27    28    1
    35    32    33    1
    36    33    34    1
    37    34    29    1
    38    28    24    1
    39     6     1   ar
    40    16    11   ar
    41    23    17   ar
    42     9     5   ar
@<TRIPOS>MOLECULE
*****
 37 42 0 0 0
SMALL
GASTEIGER

@<TRIPOS>ATOM
      1 C         -21.7223   -9.7262  -10.5495 C.ar    1  UNL1        0.1379
      2 N         -20.7695   -9.0111   -9.8787 N.ar    1  UNL1       -0.2089
      3 C         -19.4969   -9.4907   -9.7072 C.ar    1  UNL1        0.2014
      4 N         -19.1509  -10.7238  -10.1823 N.ar    1  UNL1       -0.2050
      5 C         -20.0906  -11.4372  -10.8482 C.ar    1  UNL1        0.1654
      6 C         -21.3449  -10.9637  -11.0763 C.ar    1  UNL1        0.0865
      7 C         -21.9525  -11.9453  -11.8484 C.ar    1  UNL1        0.1095
      8 N         -21.0725  -12.9620  -12.0331 N.ar    1  UNL1       -0.1677
      9 N         -19.9452  -12.6503  -11.4037 N.ar    1  UNL1       -0.2319
     10 C         -18.7335  -13.4578  -11.4426 C.3     1  UNL1        0.1554
     11 C         -23.2474  -11.8710  -12.5392 C.ar    1  UNL1        0.0577
     12 C         -24.4375  -12.4331  -12.1217 C.ar    1  UNL1        0.1231
     13 N         -25.4218  -12.0759  -12.9692 N.ar    1  UNL1       -0.1676
     14 N         -24.8924  -11.3019  -13.9048 N.ar    1  UNL1       -0.2488
     15 C         -25.6704  -10.7437  -15.0059 C.3     1  UNL1        0.1537
     16 C         -23.5722  -11.1331  -13.6631 C.ar    1  UNL1        0.0809
     17 C         -22.6347  -10.3472  -14.4945 C.ar    1  UNL1        0.0174
     18 C         -22.3373   -9.0178  -14.1548 C.ar    1  UNL1        0.0012
     19 C         -21.4630   -8.2655  -14.9440 C.ar    1  UNL1       -0.0042
     20 C         -20.8863   -8.8270  -16.0928 C.ar    1  UNL1       -0.0218
     21 C         -19.9184   -8.0324  -16.9183 C.3     1  UNL1        0.0310
     22 C         -21.1727  -10.1592  -16.4263 C.ar    1  UNL1       -0.0042
     23 C         -22.0478  -10.9116  -15.6373 C.ar    1  UNL1        0.0012
     24 C         -24.9531   -7.7771  -10.5029 C.3     1  UNL1        0.0790
     25 C         -25.2929   -9.0863   -9.7560 C.3     1  UNL1        0.0391
     26 C         -24.1725  -10.0672  -10.0700 C.3     1  UNL1        0.0937
     27 N         -23.0779   -9.2621  -10.5798 N.pl3   1  UNL1       -0.2917
     28 C         -23.4136   -7.8518  -10.6287 C.3     1  UNL1        0.1081
     29 C         -26.2251   -5.4888  -13.8083 C.3     1  UNL1        0.0324
     30 C         -26.6177   -5.4131  -12.3140 C.3     1  UNL1        0.0199
     31 C         -26.8705   -6.8078  -11.7171 C.3     1  UNL1        0.0722
     32 N         -25.6848   -7.7150  -11.8046 N.3     1  UNL1       -0.2723
     33 C         -24.8070   -7.4019  -12.9664 C.3     1  UNL1        0.0722
     34 C         -25.5913   -6.8493  -14.1619 C.3     1  UNL1        0.0199
     35 C         -27.4084   -5.1661  -14.7390 C.3     1  UNL1        0.1423
     36 C         -26.7881   -3.5451  -16.2539 C.3     1  UNL1        0.1741
     37 O         -26.9480   -4.9310  -16.0543 O.3     1  UNL1       -0.3511
@<TRIPOS>BOND
     1    36    37    1
     2    37    35    1
     3    35    29    1
     4    29    30    1
     5    30    31    1
     6    31    32    1
     7    32    24    1
     8    24    25    1
     9    25    26    1
    10    26    27    1
    11    27     1    1
    12     1     2   ar
    13     2     3   ar
    14     3     4   ar
    15     4     5   ar
    16     5     6   ar
    17     6     7   ar
    18     7    11    1
    19    11    12   ar
    20    12    13   ar
    21    13    14   ar
    22    14    15    1
    23    14    16   ar
    24    16    17    1
    25    17    18   ar
    26    18    19   ar
    27    19    20   ar
    28    20    21    1
    29    20    22   ar
    30    22    23   ar
    31     7     8   ar
    32     8     9   ar
    33     9    10    1
    34    27    28    1
    35    32    33    1
    36    33    34    1
    37    34    29    1
    38    28    24    1
    39     6     1   ar
    40    16    11   ar
    41    23    17   ar
    42     9     5   ar
@<TRIPOS>MOLECULE
*****
 37 42 0 0 0
SMALL
GASTEIGER

@<TRIPOS>ATOM
      1 C         -24.8891  -12.2422  -13.4141 C.ar    1  UNL1        0.1379
      2 N         -26.1252  -12.7552  -13.6931 N.ar    1  UNL1       -0.2089
      3 C         -26.2805  -13.8955  -14.4376 C.ar    1  UNL1        0.2014
      4 N         -25.1921  -14.5414  -14.9516 N.ar    1  UNL1       -0.2050
      5 C         -23.9643  -14.0382  -14.6785 C.ar    1  UNL1        0.1654
      6 C         -23.7798  -12.9379  -13.9007 C.ar    1  UNL1        0.0865
      7 C         -22.4005  -12.8094  -13.8009 C.ar    1  UNL1        0.1095
      8 N         -21.8168  -13.7982  -14.5247 N.ar    1  UNL1       -0.1677
      9 N         -22.7796  -14.5321  -15.0709 N.ar    1  UNL1       -0.2319
     10 C         -22.5481  -15.7393  -15.8523 C.3     1  UNL1        0.1554
     11 C         -21.6439  -11.9044  -12.9246 C.ar    1  UNL1        0.0577
     12 C         -20.9862  -12.2449  -11.7591 C.ar    1  UNL1        0.1231
     13 N         -20.3342  -11.1666  -11.2827 N.ar    1  UNL1       -0.1676
     14 N         -20.5545  -10.1582  -12.1130 N.ar    1  UNL1       -0.2488
     15 C         -20.0130   -8.8206  -11.8969 C.3     1  UNL1        0.1537
     16 C         -21.3290  -10.5750  -13.1407 C.ar    1  UNL1        0.0809
     17 C         -21.8035   -9.7349  -14.2618 C.ar    1  UNL1        0.0174
     18 C         -22.0098   -8.3592  -14.0722 C.ar    1  UNL1        0.0012
     19 C         -22.4710   -7.5624  -15.1236 C.ar    1  UNL1       -0.0042
     20 C         -22.7476   -8.1330  -16.3748 C.ar    1  UNL1       -0.0218
     21 C         -23.2060   -7.2715  -17.5138 C.3     1  UNL1        0.0310
     22 C         -22.5299   -9.5052  -16.5692 C.ar    1  UNL1       -0.0042
     23 C         -22.0691  -10.3025  -15.5173 C.ar    1  UNL1        0.0012
     24 C         -24.7446   -9.3223  -11.0282 C.3     1  UNL1        0.0790
     25 C         -25.4350   -8.7471  -12.2851 C.3     1  UNL1        0.0391
     26 C         -25.1812   -9.7393  -13.4108 C.3     1  UNL1        0.0937
     27 N         -24.7707  -10.9712  -12.7626 N.pl3   1  UNL1       -0.2917
     28 C         -24.7294  -10.8411  -11.3184 C.3     1  UNL1        0.1081
     29 C         -22.4042   -6.1810   -9.4679 C.3     1  UNL1        0.0324
     30 C         -23.4773   -6.1863  -10.5820 C.3     1  UNL1        0.0199
     31 C         -23.3072   -7.3813  -11.5350 C.3     1  UNL1        0.0722
     32 N         -23.3949   -8.7065  -10.8474 N.3     1  UNL1       -0.2723
     33 C         -22.9539   -8.6458   -9.4260 C.3     1  UNL1        0.0722
     34 C         -21.8595   -7.5976   -9.1957 C.3     1  UNL1        0.0199
     35 C         -21.2621   -5.1916   -9.7634 C.3     1  UNL1        0.1423
     36 C         -20.4035   -3.7623  -11.3531 C.3     1  UNL1        0.1741
     37 O         -21.2142   -4.8961  -11.1446 O.3     1  UNL1       -0.3511
@<TRIPOS>BOND
     1    36    37    1
     2    37    35    1
     3    35    29    1
     4    29    30    1
     5    30    31    1
     6    31    32    1
     7    32    24    1
     8    24    25    1
     9    25    26    1
    10    26    27    1
    11    27     1    1
    12     1     2   ar
    13     2     3   ar
    14     3     4   ar
    15     4     5   ar
    16     5     6   ar
    17     6     7   ar
    18     7    11    1
    19    11    12   ar
    20    12    13   ar
    21    13    14   ar
    22    14    15    1
    23    14    16   ar
    24    16    17    1
    25    17    18   ar
    26    18    19   ar
    27    19    20   ar
    28    20    21    1
    29    20    22   ar
    30    22    23   ar
    31     7     8   ar
    32     8     9   ar
    33     9    10    1
    34    27    28    1
    35    32    33    1
    36    33    34    1
    37    34    29    1
    38    28    24    1
    39     6     1   ar
    40    16    11   ar
    41    23    17   ar
    42     9     5   ar
@<TRIPOS>MOLECULE
*****
 37 42 0 0 0
SMALL
GASTEIGER

@<TRIPOS>ATOM
      1 C         -25.0115   -8.0134  -11.1604 C.ar    1  UNL1        0.1379
      2 N         -25.7590   -8.0654  -10.0169 N.ar    1  UNL1       -0.2089
      3 C         -27.1200   -7.9038  -10.0381 C.ar    1  UNL1        0.2014
      4 N         -27.7702   -7.6543  -11.2132 N.ar    1  UNL1       -0.2050
      5 C         -27.0351   -7.6019  -12.3500 C.ar    1  UNL1        0.1654
      6 C         -25.6911   -7.8089  -12.3636 C.ar    1  UNL1        0.0865
      7 C         -25.3441   -7.7544  -13.7073 C.ar    1  UNL1        0.1095
      8 N         -26.4601   -7.4983  -14.4361 N.ar    1  UNL1       -0.1677
      9 N         -27.4838   -7.3892  -13.5969 N.ar    1  UNL1       -0.2319
     10 C         -28.8674   -7.1990  -14.0107 C.3     1  UNL1        0.1554
     11 C         -24.0514   -8.0986  -14.3157 C.ar    1  UNL1        0.0577
     12 C         -23.0830   -7.2146  -14.7486 C.ar    1  UNL1        0.1231
     13 N         -22.0033   -7.9038  -15.1655 N.ar    1  UNL1       -0.1676
     14 N         -22.2568   -9.1940  -15.0043 N.ar    1  UNL1       -0.2488
     15 C         -21.3084  -10.2403  -15.3718 C.3     1  UNL1        0.1537
     16 C         -23.4871   -9.3526  -14.4650 C.ar    1  UNL1        0.0809
     17 C         -24.1334  -10.6456  -14.1513 C.ar    1  UNL1        0.0174
     18 C         -24.8786  -11.3167  -15.1337 C.ar    1  UNL1        0.0012
     19 C         -25.5030  -12.5319  -14.8396 C.ar    1  UNL1       -0.0042
     20 C         -25.4042  -13.0850  -13.5543 C.ar    1  UNL1       -0.0218
     21 C         -26.0422  -14.4078  -13.2495 C.3     1  UNL1        0.0310
     22 C         -24.6494  -12.4217  -12.5753 C.ar    1  UNL1       -0.0042
     23 C         -24.0252  -11.2058  -12.8693 C.ar    1  UNL1        0.0012
     24 C         -21.3767   -8.3253  -10.1963 C.3     1  UNL1        0.0790
     25 C         -21.4275   -7.0473  -11.0631 C.3     1  UNL1        0.0391
     26 C         -22.7614   -7.0736  -11.7953 C.3     1  UNL1        0.0937
     27 N         -23.5807   -8.0369  -11.0833 N.pl3   1  UNL1       -0.2917
     28 C         -22.8741   -8.6356   -9.9667 C.3     1  UNL1        0.1081
     29 C         -19.2064  -11.9333   -9.9669 C.3     1  UNL1        0.0324
     30 C         -18.8810  -10.5206   -9.4270 C.3     1  UNL1        0.0199
     31 C         -19.1848   -9.4271  -10.4648 C.3     1  UNL1        0.0722
     32 N         -20.6154   -9.4020  -10.8997 N.3     1  UNL1       -0.2723
     33 C         -21.2639  -10.7404  -10.8173 C.3     1  UNL1        0.0722
     34 C         -20.2787  -11.8863  -11.0740 C.3     1  UNL1        0.0199
     35 C         -17.9467  -12.6802  -10.4419 C.3     1  UNL1        0.1423
     36 C         -16.0708  -12.4152   -9.1311 C.3     1  UNL1        0.1741
     37 O         -17.2311  -13.1888   -9.3344 O.3     1  UNL1       -0.3511
@<TRIPOS>BOND
     1    36    37    1
     2    37    35    1
     3    35    29    1
     4    29    30    1
     5    30    31    1
     6    31    32    1
     7    32    24    1
     8    24    25    1
     9    25    26    1
    10    26    27    1
    11    27     1    1
    12     1     2   ar
    13     2     3   ar
    14     3     4   ar
    15     4     5   ar
    16     5     6   ar
    17     6     7   ar
    18     7    11    1
    19    11    12   ar
    20    12    13   ar
    21    13    14   ar
    22    14    15    1
    23    14    16   ar
    24    16    17    1
    25    17    18   ar
    26    18    19   ar
    27    19    20   ar
    28    20    21    1
    29    20    22   ar
    30    22    23   ar
    31     7     8   ar
    32     8     9   ar
    33     9    10    1
    34    27    28    1
    35    32    33    1
    36    33    34    1
    37    34    29    1
    38    28    24    1
    39     6     1   ar
    40    16    11   ar
    41    23    17   ar
    42     9     5   ar
@<TRIPOS>MOLECULE
*****
 37 42 0 0 0
SMALL
GASTEIGER

@<TRIPOS>ATOM
      1 C         -21.5943   -7.2533  -11.1723 C.ar    1  UNL1        0.1379
      2 N         -21.3962   -5.9094  -11.0186 N.ar    1  UNL1       -0.2089
      3 C         -21.0275   -5.3688   -9.8141 C.ar    1  UNL1        0.2014
      4 N         -20.8748   -6.1648   -8.7147 N.ar    1  UNL1       -0.2050
      5 C         -21.0694   -7.4976   -8.8605 C.ar    1  UNL1        0.1654
      6 C         -21.3860   -8.0655  -10.0550 C.ar    1  UNL1        0.0865
      7 C         -21.4117   -9.4298   -9.7959 C.ar    1  UNL1        0.1095
      8 N         -21.1406   -9.6293   -8.4810 N.ar    1  UNL1       -0.1677
      9 N         -20.9508   -8.4428   -7.9150 N.ar    1  UNL1       -0.2319
     10 C         -20.5544   -8.2499   -6.5268 C.3     1  UNL1        0.1554
     11 C         -21.5140  -10.5268  -10.7683 C.ar    1  UNL1        0.0577
     12 C         -22.5380  -10.7349  -11.6711 C.ar    1  UNL1        0.1231
     13 N         -22.2366  -11.7895  -12.4532 N.ar    1  UNL1       -0.1676
     14 N         -21.0529  -12.2501  -12.0769 N.ar    1  UNL1       -0.2488
     15 C         -20.4183  -13.4075  -12.6989 C.3     1  UNL1        0.1537
     16 C         -20.5684  -11.4907  -11.0678 C.ar    1  UNL1        0.0809
     17 C         -19.2808  -11.6993  -10.3703 C.ar    1  UNL1        0.0174
     18 C         -18.6649  -10.6332   -9.6957 C.ar    1  UNL1        0.0012
     19 C         -17.4416  -10.8203   -9.0464 C.ar    1  UNL1       -0.0042
     20 C         -16.8093  -12.0721   -9.0760 C.ar    1  UNL1       -0.0218
     21 C         -15.5156  -12.2830   -8.3470 C.3     1  UNL1        0.0310
     22 C         -17.4298  -13.1415   -9.7390 C.ar    1  UNL1       -0.0042
     23 C         -18.6532  -12.9542  -10.3891 C.ar    1  UNL1        0.0012
     24 C         -22.2681   -8.3675  -14.7139 C.3     1  UNL1        0.0790
     25 C         -23.6154   -7.7754  -14.2432 C.3     1  UNL1        0.0391
     26 C         -23.5337   -7.6648  -12.7276 C.3     1  UNL1        0.0937
     27 N         -22.1228   -7.7640  -12.4026 N.pl3   1  UNL1       -0.2917
     28 C         -21.3011   -7.9420  -13.5847 C.3     1  UNL1        0.1081
     29 C         -23.0361  -11.5985  -17.3122 C.3     1  UNL1        0.0324
     30 C         -23.9628  -10.4722  -16.7967 C.3     1  UNL1        0.0199
     31 C         -23.7835  -10.2286  -15.2888 C.3     1  UNL1        0.0722
     32 N         -22.3885   -9.8441  -14.9111 N.3     1  UNL1       -0.2723
     33 C         -21.3672  -10.4059  -15.8385 C.3     1  UNL1        0.0722
     34 C         -21.7869  -11.7595  -16.4227 C.3     1  UNL1        0.0199
     35 C         -23.7803  -12.9363  -17.4761 C.3     1  UNL1        0.1423
     36 C         -24.7565  -14.2616  -15.8642 C.3     1  UNL1        0.1741
     37 O         -23.5327  -13.7745  -16.3654 O.3     1  UNL1       -0.3511
@<TRIPOS>BOND
     1    36    37    1
     2    37    35    1
     3    35    29    1
     4    29    30    1
     5    30    31    1
     6    31    32    1
     7    32    24    1
     8    24    25    1
     9    25    26    1
    10    26    27    1
    11    27     1    1
    12     1     2   ar
    13     2     3   ar
    14     3     4   ar
    15     4     5   ar
    16     5     6   ar
    17     6     7   ar
    18     7    11    1
    19    11    12   ar
    20    12    13   ar
    21    13    14   ar
    22    14    15    1
    23    14    16   ar
    24    16    17    1
    25    17    18   ar
    26    18    19   ar
    27    19    20   ar
    28    20    21    1
    29    20    22   ar
    30    22    23   ar
    31     7     8   ar
    32     8     9   ar
    33     9    10    1
    34    27    28    1
    35    32    33    1
    36    33    34    1
    37    34    29    1
    38    28    24    1
    39     6     1   ar
    40    16    11   ar
    41    23    17   ar
    42     9     5   ar
@<TRIPOS>MOLECULE
*****
 37 42 0 0 0
SMALL
GASTEIGER

@<TRIPOS>ATOM
      1 C         -23.4825   -8.5747  -11.1279 C.ar    1  UNL1        0.1379
      2 N         -23.7282   -8.4877   -9.7859 N.ar    1  UNL1       -0.2089
      3 C         -23.0799   -9.2882   -8.8816 C.ar    1  UNL1        0.2014
      4 N         -22.1814  -10.2259   -9.3050 N.ar    1  UNL1       -0.2050
      5 C         -21.9333  -10.3169  -10.6337 C.ar    1  UNL1        0.1654
      6 C         -22.5246   -9.5011  -11.5471 C.ar    1  UNL1        0.0865
      7 C         -21.9460   -9.8575  -12.7584 C.ar    1  UNL1        0.1095
      8 N         -21.0659  -10.8676  -12.5409 N.ar    1  UNL1       -0.1677
      9 N         -21.0787  -11.1528  -11.2438 N.ar    1  UNL1       -0.2319
     10 C         -20.2022  -12.1281  -10.6094 C.3     1  UNL1        0.1554
     11 C         -22.0745   -9.1712  -14.0514 C.ar    1  UNL1        0.0577
     12 C         -21.6066   -7.9105  -14.3652 C.ar    1  UNL1        0.1231
     13 N         -21.8345   -7.6612  -15.6693 N.ar    1  UNL1       -0.1676
     14 N         -22.4259   -8.7261  -16.1899 N.ar    1  UNL1       -0.2488
     15 C         -22.8379   -8.8001  -17.5877 C.3     1  UNL1        0.1537
     16 C         -22.5673   -9.6787  -15.2400 C.ar    1  UNL1        0.0809
     17 C         -23.1964  -11.0036  -15.4313 C.ar    1  UNL1        0.0174
     18 C         -24.5747  -11.1656  -15.2194 C.ar    1  UNL1        0.0012
     19 C         -25.1726  -12.4179  -15.3851 C.ar    1  UNL1       -0.0042
     20 C         -24.3979  -13.5289  -15.7495 C.ar    1  UNL1       -0.0218
     21 C         -25.0457  -14.8645  -15.9647 C.3     1  UNL1        0.0310
     22 C         -23.0227  -13.3658  -15.9739 C.ar    1  UNL1       -0.0042
     23 C         -22.4243  -12.1134  -15.8076 C.ar    1  UNL1        0.0012
     24 C         -25.7246   -7.3409  -13.9009 C.3     1  UNL1        0.0790
     25 C         -24.6332   -6.2531  -13.7876 C.3     1  UNL1        0.0391
     26 C         -23.9310   -6.4814  -12.4569 C.3     1  UNL1        0.0937
     27 N         -24.2842   -7.8299  -12.0533 N.pl3   1  UNL1       -0.2917
     28 C         -25.1637   -8.4739  -13.0104 C.3     1  UNL1        0.1081
     29 C         -29.4255   -5.6122  -14.9475 C.3     1  UNL1        0.0324
     30 C         -27.9844   -5.0597  -15.0537 C.3     1  UNL1        0.0199
     31 C         -27.1677   -5.3426  -13.7816 C.3     1  UNL1        0.0722
     32 N         -27.0474   -6.7991  -13.4647 N.3     1  UNL1       -0.2723
     33 C         -28.2075   -7.5918  -13.9590 C.3     1  UNL1        0.0722
     34 C         -29.5125   -6.7876  -13.9533 C.3     1  UNL1        0.0199
     35 C         -30.4471   -4.5132  -14.6026 C.3     1  UNL1        0.1423
     36 C         -32.6744   -4.0277  -14.2696 C.3     1  UNL1        0.1741
     37 O         -31.7511   -5.0555  -14.5476 O.3     1  UNL1       -0.3511
@<TRIPOS>BOND
     1    36    37    1
     2    37    35    1
     3    35    29    1
     4    29    30    1
     5    30    31    1
     6    31    32    1
     7    32    24    1
     8    24    25    1
     9    25    26    1
    10    26    27    1
    11    27     1    1
    12     1     2   ar
    13     2     3   ar
    14     3     4   ar
    15     4     5   ar
    16     5     6   ar
    17     6     7   ar
    18     7    11    1
    19    11    12   ar
    20    12    13   ar
    21    13    14   ar
    22    14    15    1
    23    14    16   ar
    24    16    17    1
    25    17    18   ar
    26    18    19   ar
    27    19    20   ar
    28    20    21    1
    29    20    22   ar
    30    22    23   ar
    31     7     8   ar
    32     8     9   ar
    33     9    10    1
    34    27    28    1
    35    32    33    1
    36    33    34    1
    37    34    29    1
    38    28    24    1
    39     6     1   ar
    40    16    11   ar
    41    23    17   ar
    42     9     5   ar
