@<TRIPOS>MOLECULE
*****
 50 56 0 0 0
SMALL
GASTEIGER

@<TRIPOS>ATOM
      1 C          59.6249   83.1847   13.5582 C.ar    1  UNL1        0.0481
      2 C          60.4369   82.0515   13.3968 C.ar    1  UNL1        0.0176
      3 C          60.0033   80.9706   12.6233 C.ar    1  UNL1        0.0382
      4 C          58.7435   81.0075   11.9910 C.ar    1  UNL1        0.1388
      5 C          57.9404   82.1428   12.1496 C.ar    1  UNL1        0.0382
      6 C          58.3741   83.2227   12.9225 C.ar    1  UNL1        0.0176
      7 N          61.4311   86.6920   14.5900 N.pl3   1  UNL1       -0.3041
      8 C          61.8073   85.6300   15.5341 C.3     1  UNL1        0.1122
      9 C          61.4159   84.2637   14.9595 C.3     1  UNL1        0.1122
     10 N          60.0784   84.3028   14.3452 N.pl3   1  UNL1       -0.3041
     11 C          59.2506   85.5098   14.4813 C.3     1  UNL1        0.1122
     12 C          60.0587   86.7422   14.0594 C.3     1  UNL1        0.1122
     13 C          64.2981   89.5293   13.2080 C.ar    1  UNL1        0.0699
     14 C          64.0961   89.3311   14.5846 C.ar    1  UNL1        0.0190
     15 C          63.1571   88.3999   15.0373 C.ar    1  UNL1        0.0160
     16 C          62.4086   87.6417   14.1234 C.ar    1  UNL1        0.0480
     17 C          62.6101   87.8378   12.7479 C.ar    1  UNL1        0.0160
     18 C          63.5489   88.7686   12.2948 C.ar    1  UNL1        0.0190
     19 N          66.5224   91.7923   11.4443 N.ar    1  UNL1       -0.2024
     20 N          66.9213   91.9888   12.6921 N.ar    1  UNL1       -0.1442
     21 C          66.1574   91.1898   13.4685 C.ar    1  UNL1        0.2073
     22 N          65.2676   90.4840   12.7342 N.ar    1  UNL1       -0.2398
     23 C          65.5296   90.8814   11.4733 C.ar    1  UNL1        0.3522
     24 O          64.9477   90.4328   10.4490 O.2     1  UNL1       -0.2444
     25 C          67.1184   92.4626   10.2826 C.3     1  UNL1        0.1099
     26 C          66.1763   93.5570    9.7623 C.3     1  UNL1        0.0265
     27 C          68.9841   91.2036    9.0691 C.3     1  UNL1        0.0021
     28 C          67.4771   91.4269    9.1966 C.3     1  UNL1        0.0245
     29 O          58.2433   79.9604   11.1966 O.3     1  UNL1       -0.4727
     30 C          58.4487   79.7742    9.7939 C.3     1  UNL1        0.2374
     31 C          58.2567   81.0908    9.0247 C.3     1  UNL1        0.1909
     32 C          58.6548   81.0120    7.5778 C.3     1  UNL1        0.1783
     33 O          59.9574   81.4907    7.5232 O.3     1  UNL1       -0.3266
     34 C          60.0936   82.3468    8.6386 C.3     1  UNL1        0.2315
     35 O          59.0764   82.0703    9.5859 O.3     1  UNL1       -0.3254
     36 C          60.0098   83.8080    8.1802 C.ar    1  UNL1        0.0410
     37 C          58.8381   84.5546    8.4369 C.ar    1  UNL1        0.0022
     38 C          58.7424   85.8951    8.0602 C.ar    1  UNL1        0.0113
     39 C          59.8153   86.5248    7.4319 C.ar    1  UNL1        0.0585
     40 CL         59.6920   88.2106    6.9631 Cl      1  UNL1       -0.0822
     41 C          60.9918   85.8157    7.1878 C.ar    1  UNL1        0.0226
     42 C          61.1047   84.4706    7.5614 C.ar    1  UNL1        0.0591
     43 CL         62.6491   83.6819    7.2461 Cl      1  UNL1       -0.0824
     44 C          61.4600   82.0705    9.2992 C.3     1  UNL1        0.1911
     45 N          61.8070   83.0997   10.2816 N.ar    1  UNL1       -0.2116
     46 N          61.0234   84.1125   10.6072 N.ar    1  UNL1       -0.0430
     47 N          61.6135   84.8197   11.5591 N.ar    1  UNL1       -0.0230
     48 N          62.7835   84.2772   11.8695 N.ar    1  UNL1       -0.1127
     49 C          62.9010   83.2076   11.0610 C.ar    1  UNL1        0.1615
     50 C          64.0506   82.2521   11.1095 C.3     1  UNL1        0.0754
@<TRIPOS>BOND
     1    27    28    1
     2    28    25    1
     3    25    26    1
     4    25    19    1
     5    19    20   ar
     6    20    21   ar
     7    21    22   ar
     8    22    13    1
     9    13    14   ar
    10    14    15   ar
    11    15    16   ar
    12    16     7    1
    13     7     8    1
    14     8     9    1
    15     9    10    1
    16    10     1    1
    17     1     2   ar
    18     2     3   ar
    19     3     4   ar
    20     4    29    1
    21    29    30    1
    22    30    31    1
    23    31    32    1
    24    32    33    1
    25    33    34    1
    26    34    44    1
    27    44    45    1
    28    45    46   ar
    29    46    47   ar
    30    47    48   ar
    31    48    49   ar
    32    49    50    1
    33    34    36    1
    34    36    37   ar
    35    37    38   ar
    36    38    39   ar
    37    39    40    1
    38    39    41   ar
    39    41    42   ar
    40    42    43    1
    41    34    35    1
    42     4     5   ar
    43     5     6   ar
    44    10    11    1
    45    11    12    1
    46    16    17   ar
    47    17    18   ar
    48    22    23   ar
    49    23    24    2
    50    23    19   ar
    51    18    13   ar
    52    12     7    1
    53     6     1   ar
    54    35    31    1
    55    49    45   ar
    56    42    36   ar
@<TRIPOS>MOLECULE
*****
 50 56 0 0 0
SMALL
GASTEIGER

@<TRIPOS>ATOM
      1 C          59.3629   83.4054    8.2747 C.ar    1  UNL1        0.0481
      2 C          58.1316   83.3100    8.9414 C.ar    1  UNL1        0.0176
      3 C          57.5185   82.0674    9.1275 C.ar    1  UNL1        0.0382
      4 C          58.1331   80.8915    8.6501 C.ar    1  UNL1        0.1388
      5 C          59.3642   80.9915    7.9918 C.ar    1  UNL1        0.0382
      6 C          59.9766   82.2334    7.8061 C.ar    1  UNL1        0.0176
      7 N          61.5795   86.7463    9.0182 N.pl3   1  UNL1       -0.3041
      8 C          60.2531   87.1203    8.5068 C.3     1  UNL1        0.1122
      9 C          59.3181   85.9064    8.5556 C.3     1  UNL1        0.1122
     10 N          59.9994   84.6852    8.0948 N.pl3   1  UNL1       -0.3041
     11 C          61.3503   84.7777    7.5230 C.3     1  UNL1        0.1122
     12 C          62.2626   85.5613    8.4736 C.3     1  UNL1        0.1122
     13 C          63.4105   88.9123   12.2019 C.ar    1  UNL1        0.0699
     14 C          63.4641   89.3983   10.8843 C.ar    1  UNL1        0.0190
     15 C          62.8626   88.6887    9.8411 C.ar    1  UNL1        0.0160
     16 C          62.1875   87.4846   10.0955 C.ar    1  UNL1        0.0480
     17 C          62.1323   86.9983   11.4114 C.ar    1  UNL1        0.0160
     18 C          62.7334   87.7075   12.4548 C.ar    1  UNL1        0.0190
     19 N          65.4105   90.8732   14.5115 N.ar    1  UNL1       -0.2024
     20 N          64.4098   90.5181   15.3034 N.ar    1  UNL1       -0.1442
     21 C          63.5744   89.7685   14.5518 C.ar    1  UNL1        0.2073
     22 N          64.0243   89.6407   13.2829 N.ar    1  UNL1       -0.2398
     23 C          65.1773   90.3385   13.2966 C.ar    1  UNL1        0.3522
     24 O          65.9567   90.4471   12.3118 O.2     1  UNL1       -0.2444
     25 C          66.5512   91.6846   14.9528 C.3     1  UNL1        0.1099
     26 C          66.8404   92.7914   13.9295 C.3     1  UNL1        0.0265
     27 C          69.0896   91.5672   15.2378 C.3     1  UNL1        0.0021
     28 C          67.7771   90.7837   15.2107 C.3     1  UNL1        0.0245
     29 O          57.5775   79.6087    8.8032 O.3     1  UNL1       -0.4727
     30 C          57.5285   78.8327   10.0031 C.3     1  UNL1        0.2374
     31 C          58.8996   78.7944   10.6963 C.3     1  UNL1        0.1909
     32 C          58.8684   78.1861   12.0701 C.3     1  UNL1        0.1783
     33 O          58.7617   79.2561   12.9490 O.3     1  UNL1       -0.3266
     34 C          59.3145   80.3630   12.2673 C.3     1  UNL1        0.2315
     35 O          59.3565   80.1003   10.8754 O.3     1  UNL1       -0.3254
     36 C          60.7260   80.6428   12.7981 C.ar    1  UNL1        0.0410
     37 C          60.9216   80.8639   14.1799 C.ar    1  UNL1        0.0022
     38 C          62.1974   81.0904   14.6985 C.ar    1  UNL1        0.0113
     39 C          63.3071   81.0886   13.8554 C.ar    1  UNL1        0.0585
     40 CL         64.9092   81.3704   14.5119 Cl      1  UNL1       -0.0822
     41 C          63.1431   80.8499   12.4906 C.ar    1  UNL1        0.0226
     42 C          61.8699   80.6189   11.9546 C.ar    1  UNL1        0.0591
     43 CL         61.7804   80.2851   10.2262 Cl      1  UNL1       -0.0824
     44 C          58.4020   81.5842   12.5034 C.3     1  UNL1        0.1911
     45 N          59.1009   82.8441   12.2410 N.ar    1  UNL1       -0.2116
     46 N          60.1731   82.9555   11.4768 N.ar    1  UNL1       -0.0430
     47 N          60.5174   84.2327   11.4083 N.ar    1  UNL1       -0.0230
     48 N          59.6749   84.9695   12.1202 N.ar    1  UNL1       -0.1127
     49 C          58.7976   84.0936   12.6442 C.ar    1  UNL1        0.1615
     50 C          57.6206   84.4937   13.4759 C.3     1  UNL1        0.0754
@<TRIPOS>BOND
     1    27    28    1
     2    28    25    1
     3    25    26    1
     4    25    19    1
     5    19    20   ar
     6    20    21   ar
     7    21    22   ar
     8    22    13    1
     9    13    14   ar
    10    14    15   ar
    11    15    16   ar
    12    16     7    1
    13     7     8    1
    14     8     9    1
    15     9    10    1
    16    10     1    1
    17     1     2   ar
    18     2     3   ar
    19     3     4   ar
    20     4    29    1
    21    29    30    1
    22    30    31    1
    23    31    32    1
    24    32    33    1
    25    33    34    1
    26    34    44    1
    27    44    45    1
    28    45    46   ar
    29    46    47   ar
    30    47    48   ar
    31    48    49   ar
    32    49    50    1
    33    34    36    1
    34    36    37   ar
    35    37    38   ar
    36    38    39   ar
    37    39    40    1
    38    39    41   ar
    39    41    42   ar
    40    42    43    1
    41    34    35    1
    42     4     5   ar
    43     5     6   ar
    44    10    11    1
    45    11    12    1
    46    16    17   ar
    47    17    18   ar
    48    22    23   ar
    49    23    24    2
    50    23    19   ar
    51    18    13   ar
    52    12     7    1
    53     6     1   ar
    54    35    31    1
    55    49    45   ar
    56    42    36   ar
@<TRIPOS>MOLECULE
*****
 50 56 0 0 0
SMALL
GASTEIGER

@<TRIPOS>ATOM
      1 C          59.5000   84.7941    8.5394 C.ar    1  UNL1        0.0481
      2 C          58.4464   84.0539    9.0975 C.ar    1  UNL1        0.0176
      3 C          58.3171   82.6878    8.8291 C.ar    1  UNL1        0.0382
      4 C          59.2482   82.0348    7.9956 C.ar    1  UNL1        0.1388
      5 C          60.3010   82.7761    7.4470 C.ar    1  UNL1        0.0382
      6 C          60.4299   84.1411    7.7156 C.ar    1  UNL1        0.0176
      7 N          61.1343   88.3519    9.6792 N.pl3   1  UNL1       -0.3041
      8 C          59.8439   88.1469   10.3525 C.3     1  UNL1        0.1122
      9 C          59.4044   86.6865   10.1964 C.3     1  UNL1        0.1122
     10 N          59.6390   86.1988    8.8271 N.pl3   1  UNL1       -0.3041
     11 C          60.0820   87.1377    7.7865 C.3     1  UNL1        0.1122
     12 C          61.3032   87.9210    8.2815 C.3     1  UNL1        0.1122
     13 C          64.4781   89.9606   11.7794 C.ar    1  UNL1        0.0699
     14 C          64.1943   90.3729   10.4661 C.ar    1  UNL1        0.0190
     15 C          63.0972   89.8463    9.7785 C.ar    1  UNL1        0.0160
     16 C          62.2568   88.9048   10.3929 C.ar    1  UNL1        0.0480
     17 C          62.5385   88.4928   11.7052 C.ar    1  UNL1        0.0160
     18 C          63.6351   89.0192   12.3933 C.ar    1  UNL1        0.0190
     19 N          67.1242   90.9593   14.0554 N.ar    1  UNL1       -0.2024
     20 N          67.4148   91.7126   13.0053 N.ar    1  UNL1       -0.1442
     21 C          66.4870   91.4320   12.0644 C.ar    1  UNL1        0.2073
     22 N          65.6044   90.5026   12.4960 N.ar    1  UNL1       -0.2398
     23 C          66.0299   90.2357   13.7466 C.ar    1  UNL1        0.3522
     24 O          65.4581   89.4400   14.5397 O.2     1  UNL1       -0.2444
     25 C          67.8864   90.9795   15.3095 C.3     1  UNL1        0.1099
     26 C          67.0300   91.5666   16.4398 C.3     1  UNL1        0.0265
     27 C          69.2391   93.0779   15.8626 C.3     1  UNL1        0.0021
     28 C          69.2119   91.7450   15.1144 C.3     1  UNL1        0.0245
     29 O          59.1833   80.6649    7.6841 O.3     1  UNL1       -0.4727
     30 C          59.8145   79.5937    8.3901 C.3     1  UNL1        0.2374
     31 C          61.0874   80.0736    9.1053 C.3     1  UNL1        0.1909
     32 C          61.7455   79.0171    9.9473 C.3     1  UNL1        0.1783
     33 O          61.2747   79.2222   11.2377 O.3     1  UNL1       -0.3266
     34 C          60.9171   80.5875   11.2980 C.3     1  UNL1        0.2315
     35 O          60.7545   81.1018    9.9875 O.3     1  UNL1       -0.3254
     36 C          62.0021   81.3721   12.0460 C.ar    1  UNL1        0.0410
     37 C          63.1569   80.7011   12.5068 C.ar    1  UNL1        0.0022
     38 C          64.1764   81.3922   13.1634 C.ar    1  UNL1        0.0113
     39 C          64.0744   82.7676   13.3637 C.ar    1  UNL1        0.0585
     40 CL         65.3595   83.6329   14.1864 Cl      1  UNL1       -0.0822
     41 C          62.9545   83.4570   12.8977 C.ar    1  UNL1        0.0226
     42 C          61.9237   82.7787   12.2352 C.ar    1  UNL1        0.0591
     43 CL         60.5759   83.7518   11.6494 Cl      1  UNL1       -0.0824
     44 C          59.5673   80.7040   12.0359 C.3     1  UNL1        0.1911
     45 N          59.1614   79.4291   12.6313 N.ar    1  UNL1       -0.2116
     46 N          59.4364   79.0656   13.8715 N.ar    1  UNL1       -0.0430
     47 N          58.8797   77.8864   14.1039 N.ar    1  UNL1       -0.0230
     48 N          58.2324   77.4684   13.0241 N.ar    1  UNL1       -0.1127
     49 C          58.4202   78.4341   12.1055 C.ar    1  UNL1        0.1615
     50 C          57.8081   78.4128   10.7410 C.3     1  UNL1        0.0754
@<TRIPOS>BOND
     1    27    28    1
     2    28    25    1
     3    25    26    1
     4    25    19    1
     5    19    20   ar
     6    20    21   ar
     7    21    22   ar
     8    22    13    1
     9    13    14   ar
    10    14    15   ar
    11    15    16   ar
    12    16     7    1
    13     7     8    1
    14     8     9    1
    15     9    10    1
    16    10     1    1
    17     1     2   ar
    18     2     3   ar
    19     3     4   ar
    20     4    29    1
    21    29    30    1
    22    30    31    1
    23    31    32    1
    24    32    33    1
    25    33    34    1
    26    34    44    1
    27    44    45    1
    28    45    46   ar
    29    46    47   ar
    30    47    48   ar
    31    48    49   ar
    32    49    50    1
    33    34    36    1
    34    36    37   ar
    35    37    38   ar
    36    38    39   ar
    37    39    40    1
    38    39    41   ar
    39    41    42   ar
    40    42    43    1
    41    34    35    1
    42     4     5   ar
    43     5     6   ar
    44    10    11    1
    45    11    12    1
    46    16    17   ar
    47    17    18   ar
    48    22    23   ar
    49    23    24    2
    50    23    19   ar
    51    18    13   ar
    52    12     7    1
    53     6     1   ar
    54    35    31    1
    55    49    45   ar
    56    42    36   ar
@<TRIPOS>MOLECULE
*****
 50 56 0 0 0
SMALL
GASTEIGER

@<TRIPOS>ATOM
      1 C          59.1002   83.9254    9.0092 C.ar    1  UNL1        0.0481
      2 C          58.1640   83.8481   10.0518 C.ar    1  UNL1        0.0176
      3 C          57.6266   82.6154   10.4347 C.ar    1  UNL1        0.0382
      4 C          58.0227   81.4316    9.7792 C.ar    1  UNL1        0.1388
      5 C          58.9617   81.5134    8.7445 C.ar    1  UNL1        0.0382
      6 C          59.4985   82.7453    8.3623 C.ar    1  UNL1        0.0176
      7 N          61.4328   87.2700    9.0193 N.pl3   1  UNL1       -0.3041
      8 C          60.0169   87.6388    8.8785 C.3     1  UNL1        0.1122
      9 C          59.1317   86.4337    9.2169 C.3     1  UNL1        0.1122
     10 N          59.6623   85.1947    8.6243 N.pl3   1  UNL1       -0.3041
     11 C          60.8056   85.2607    7.7029 C.3     1  UNL1        0.1122
     12 C          61.9422   86.0647    8.3445 C.3     1  UNL1        0.1122
     13 C          64.0611   89.5105   11.5199 C.ar    1  UNL1        0.0699
     14 C          63.8793   89.8683   10.1730 C.ar    1  UNL1        0.0190
     15 C          63.0166   89.1344    9.3539 C.ar    1  UNL1        0.0160
     16 C          62.3113   88.0346    9.8671 C.ar    1  UNL1        0.0480
     17 C          62.4911   87.6766   11.2127 C.ar    1  UNL1        0.0160
     18 C          63.3534   88.4102   12.0321 C.ar    1  UNL1        0.0190
     19 N          66.1371   90.9911   14.1039 N.ar    1  UNL1       -0.2024
     20 N          66.3575   91.8351   13.1070 N.ar    1  UNL1       -0.1442
     21 C          65.6291   91.3897   12.0603 C.ar    1  UNL1        0.2073
     22 N          64.9451   90.2651   12.3712 N.ar    1  UNL1       -0.2398
     23 C          65.2818   90.0497   13.6583 C.ar    1  UNL1        0.3522
     24 O          64.8275   89.1110   14.3665 O.2     1  UNL1       -0.2444
     25 C          66.7320   91.1319   15.4382 C.3     1  UNL1        0.1099
     26 C          65.6638   91.5685   16.4503 C.3     1  UNL1        0.0265
     27 C          69.2469   91.3999   15.0617 C.3     1  UNL1        0.0021
     28 C          67.9294   92.1037   15.3873 C.3     1  UNL1        0.0245
     29 O          57.5277   80.1579   10.1117 O.3     1  UNL1       -0.4727
     30 C          58.2929   78.9697   10.3282 C.3     1  UNL1        0.2374
     31 C          58.9917   79.0006   11.6967 C.3     1  UNL1        0.1909
     32 C          58.3845   79.9750   12.6663 C.3     1  UNL1        0.1783
     33 O          59.1469   81.1309   12.5595 O.3     1  UNL1       -0.3266
     34 C          60.4139   80.7081   12.0997 C.3     1  UNL1        0.2315
     35 O          60.3122   79.4167   11.5251 O.3     1  UNL1       -0.3254
     36 C          61.4076   80.6931   13.2679 C.ar    1  UNL1        0.0410
     37 C          62.1959   79.5437   13.4998 C.ar    1  UNL1        0.0022
     38 C          63.1311   79.5099   14.5352 C.ar    1  UNL1        0.0113
     39 C          63.3111   80.6235   15.3536 C.ar    1  UNL1        0.0585
     40 CL         64.4900   80.5778   16.6518 Cl      1  UNL1       -0.0822
     41 C          62.5612   81.7787   15.1307 C.ar    1  UNL1        0.0226
     42 C          61.6201   81.8297   14.0947 C.ar    1  UNL1        0.0591
     43 CL         60.7588   83.3514   13.8735 Cl      1  UNL1       -0.0824
     44 C          60.8867   81.6893   11.0073 C.3     1  UNL1        0.1911
     45 N          62.3338   81.6115   10.7958 N.ar    1  UNL1       -0.2116
     46 N          62.9620   80.5458   10.3315 N.ar    1  UNL1       -0.0430
     47 N          64.2504   80.8288   10.2110 N.ar    1  UNL1       -0.0230
     48 N          64.4785   82.0796   10.5891 N.ar    1  UNL1       -0.1127
     49 C          63.2772   82.5594   10.9610 C.ar    1  UNL1        0.1615
     50 C          63.0469   83.9691   11.4045 C.3     1  UNL1        0.0754
@<TRIPOS>BOND
     1    27    28    1
     2    28    25    1
     3    25    26    1
     4    25    19    1
     5    19    20   ar
     6    20    21   ar
     7    21    22   ar
     8    22    13    1
     9    13    14   ar
    10    14    15   ar
    11    15    16   ar
    12    16     7    1
    13     7     8    1
    14     8     9    1
    15     9    10    1
    16    10     1    1
    17     1     2   ar
    18     2     3   ar
    19     3     4   ar
    20     4    29    1
    21    29    30    1
    22    30    31    1
    23    31    32    1
    24    32    33    1
    25    33    34    1
    26    34    44    1
    27    44    45    1
    28    45    46   ar
    29    46    47   ar
    30    47    48   ar
    31    48    49   ar
    32    49    50    1
    33    34    36    1
    34    36    37   ar
    35    37    38   ar
    36    38    39   ar
    37    39    40    1
    38    39    41   ar
    39    41    42   ar
    40    42    43    1
    41    34    35    1
    42     4     5   ar
    43     5     6   ar
    44    10    11    1
    45    11    12    1
    46    16    17   ar
    47    17    18   ar
    48    22    23   ar
    49    23    24    2
    50    23    19   ar
    51    18    13   ar
    52    12     7    1
    53     6     1   ar
    54    35    31    1
    55    49    45   ar
    56    42    36   ar
