@<TRIPOS>MOLECULE
*****
 51 56 0 0 0
SMALL
GASTEIGER

@<TRIPOS>ATOM
      1 C          -8.9282  -11.0933   31.0645 C.2     1  UNL1        0.2483
      2 O          -8.0895  -10.2833   31.5467 O.2     1  UNL1       -0.2701
      3 N         -10.2969  -11.0472   31.4983 N.am    1  UNL1       -0.2945
      4 H         -11.0095  -11.5391   30.9169 H       1  UNL1        0.1501
      5 C          -7.6242  -13.8526   28.0322 C.ar    1  UNL1        0.0502
      6 C          -6.7302  -12.9278   28.5936 C.ar    1  UNL1        0.0148
      7 C          -7.1597  -12.0409   29.5840 C.ar    1  UNL1        0.0080
      8 C          -8.4940  -12.0524   30.0239 C.ar    1  UNL1        0.0808
      9 C          -9.3874  -12.9903   29.4703 C.ar    1  UNL1        0.1457
     10 F         -10.6662  -13.0848   29.9134 F       1  UNL1       -0.2040
     11 C          -8.9531  -13.8773   28.4804 C.ar    1  UNL1        0.0443
     12 N          -6.3805  -16.0832   24.6972 N.pl3   1  UNL1       -0.2897
     13 C          -7.7966  -15.7163   24.8314 C.3     1  UNL1        0.1136
     14 C          -8.1679  -15.6071   26.3089 C.3     1  UNL1        0.1123
     15 N          -7.1888  -14.7668   27.0082 N.pl3   1  UNL1       -0.3040
     16 C          -5.7689  -15.1137   26.8745 C.3     1  UNL1        0.1123
     17 C          -5.3949  -15.2500   25.3964 C.3     1  UNL1        0.1136
     18 C          -4.1839  -17.9710   22.3085 C.ar    1  UNL1       -0.0140
     19 C          -4.5906  -17.1336   23.3598 C.ar    1  UNL1        0.0300
     20 C          -5.9512  -16.9459   23.6276 C.ar    1  UNL1        0.1315
     21 N          -6.8740  -17.5645   22.8463 N.ar    1  UNL1       -0.2292
     22 C          -6.5255  -18.3756   21.8159 C.ar    1  UNL1        0.1038
     23 C          -5.1713  -18.6025   21.5038 C.ar    1  UNL1        0.0867
     24 C          -4.8107  -19.5367   20.3634 C.3     1  UNL1        0.4197
     25 F          -3.9041  -20.5050   20.7603 F       1  UNL1       -0.1658
     26 F          -5.9408  -20.1838   19.8993 F       1  UNL1       -0.1658
     27 F          -4.2411  -18.8105   19.3335 F       1  UNL1       -0.1658
     28 C          -2.1020  -16.8157   21.5260 C.3     1  UNL1        0.0050
     29 C          -2.6972  -18.1163   22.0601 C.3     1  UNL1        0.0265
     30 C         -10.7487  -10.1254   32.5462 C.3     1  UNL1        0.1535
     31 C         -10.9155   -8.7286   31.9977 C.2     1  UNL1        0.2443
     32 O         -12.0770   -8.3102   31.7417 O.2     1  UNL1       -0.2730
     33 N          -9.7731   -7.8827   31.7736 N.am    1  UNL1       -0.2825
     34 H          -8.8683   -8.1402   32.2276 H       1  UNL1        0.1549
     35 C          -9.8090   -6.6596   31.0185 C.ar    1  UNL1        0.0535
     36 C         -11.0274   -5.9852   30.8604 C.ar    1  UNL1        0.0353
     37 C         -11.0652   -4.7810   30.1537 C.ar    1  UNL1        0.1002
     38 N          -9.9224   -4.2573   29.6372 N.ar    1  UNL1       -0.2422
     39 C          -8.7226   -4.8772   29.7912 C.ar    1  UNL1        0.1002
     40 C          -8.6407   -6.0844   30.4897 C.ar    1  UNL1        0.0353
     41 C         -12.0336  -10.6324   33.2365 C.3     1  UNL1        0.0569
     42 C         -12.5973  -11.8919   32.6335 C.ar    1  UNL1       -0.0017
     43 C         -13.3462  -11.9858   31.4633 C.ar    1  UNL1        0.0681
     44 N         -13.6599  -13.2750   31.2034 N.ar    1  UNL1       -0.3523
     45 C         -13.1224  -13.9965   32.2019 C.ar    1  UNL1        0.0563
     46 C         -13.1816  -15.3792   32.3705 C.ar    1  UNL1        0.0170
     47 C         -12.5492  -15.9319   33.4990 C.ar    1  UNL1        0.0015
     48 C         -11.8829  -15.0995   34.4253 C.ar    1  UNL1        0.0001
     49 C         -11.8415  -13.7072   34.2308 C.ar    1  UNL1        0.0012
     50 C         -12.4699  -13.1881   33.0977 C.ar    1  UNL1        0.0131
     51 H         -14.2085  -13.6328   30.3902 H       1  UNL1        0.1660
@<TRIPOS>BOND
     1    28    29    1
     2    29    18    1
     3    18    19   ar
     4    19    20   ar
     5    20    12    1
     6    12    13    1
     7    13    14    1
     8    14    15    1
     9    15     5    1
    10     5     6   ar
    11     6     7   ar
    12     7     8   ar
    13     8     1    1
    14     1     2    2
    15     1     3   am
    16     3    30    1
    17    30    41    1
    18    41    42    1
    19    42    43   ar
    20    43    44   ar
    21    44    45   ar
    22    45    46   ar
    23    46    47   ar
    24    47    48   ar
    25    48    49   ar
    26    49    50   ar
    27    30    31    1
    28    31    32    2
    29    31    33   am
    30    33    35    1
    31    35    36   ar
    32    36    37   ar
    33    37    38   ar
    34    38    39   ar
    35    39    40   ar
    36     8     9   ar
    37     9    10    1
    38     9    11   ar
    39    15    16    1
    40    16    17    1
    41    20    21   ar
    42    21    22   ar
    43    22    23   ar
    44    23    24    1
    45    24    25    1
    46    24    26    1
    47    24    27    1
    48    23    18   ar
    49    17    12    1
    50    11     5   ar
    51    50    42   ar
    52    40    35   ar
    53    50    45   ar
    54     3     4    1
    55    44    51    1
    56    33    34    1
@<TRIPOS>MOLECULE
*****
 51 56 0 0 0
SMALL
GASTEIGER

@<TRIPOS>ATOM
      1 C          -9.6505  -12.1843   30.3514 C.2     1  UNL1        0.2483
      2 O          -9.2754  -12.2107   31.5557 O.2     1  UNL1       -0.2701
      3 N         -10.7544  -11.3503   29.9650 N.am    1  UNL1       -0.2945
      4 H         -10.8822  -11.1502   28.9494 H       1  UNL1        0.1501
      5 C          -7.5521  -14.5418   27.4276 C.ar    1  UNL1        0.0502
      6 C          -8.9227  -14.7369   27.6575 C.ar    1  UNL1        0.0148
      7 C          -9.5986  -13.9612   28.6028 C.ar    1  UNL1        0.0080
      8 C          -8.9152  -12.9839   29.3457 C.ar    1  UNL1        0.0808
      9 C          -7.5426  -12.7786   29.1045 C.ar    1  UNL1        0.1457
     10 F          -6.8577  -11.7997   29.7475 F       1  UNL1       -0.2040
     11 C          -6.8703  -13.5561   28.1563 C.ar    1  UNL1        0.0443
     12 N          -5.2868  -16.3907   24.4119 N.pl3   1  UNL1       -0.2897
     13 C          -6.5159  -15.6714   24.0515 C.3     1  UNL1        0.1136
     14 C          -7.5118  -15.7313   25.2079 C.3     1  UNL1        0.1123
     15 N          -6.8488  -15.3407   26.4576 N.pl3   1  UNL1       -0.3040
     16 C          -5.6133  -16.0422   26.8258 C.3     1  UNL1        0.1123
     17 C          -4.6193  -16.0086   25.6621 C.3     1  UNL1        0.1136
     18 C          -4.4916  -18.3856   21.3324 C.ar    1  UNL1       -0.0140
     19 C          -5.2108  -17.6578   22.2943 C.ar    1  UNL1        0.0300
     20 C          -4.5588  -17.1312   23.4148 C.ar    1  UNL1        0.1315
     21 N          -3.2278  -17.3503   23.5734 N.ar    1  UNL1       -0.2292
     22 C          -2.4961  -18.0540   22.6730 C.ar    1  UNL1        0.1038
     23 C          -3.1002  -18.6036   21.5260 C.ar    1  UNL1        0.0867
     24 C          -2.2517  -19.3621   20.5219 C.3     1  UNL1        0.4197
     25 F          -0.9543  -19.5351   20.9732 F       1  UNL1       -0.1658
     26 F          -2.7878  -20.6155   20.2924 F       1  UNL1       -0.1658
     27 F          -2.2031  -18.6579   19.3325 F       1  UNL1       -0.1658
     28 C          -6.2019  -20.0623   20.5944 C.3     1  UNL1        0.0050
     29 C          -5.2606  -18.9441   20.1535 C.3     1  UNL1        0.0265
     30 C         -11.5169  -10.5684   30.9444 C.3     1  UNL1        0.1535
     31 C         -12.0915  -11.4633   32.0161 C.2     1  UNL1        0.2443
     32 O         -12.4972  -10.9426   33.0904 O.2     1  UNL1       -0.2730
     33 N         -12.1821  -12.8859   31.8192 N.am    1  UNL1       -0.2825
     34 H         -12.0906  -13.2591   30.8479 H       1  UNL1        0.1549
     35 C         -12.4619  -13.8305   32.8664 C.ar    1  UNL1        0.0535
     36 C         -11.7119  -13.7867   34.0497 C.ar    1  UNL1        0.0353
     37 C         -11.9975  -14.6814   35.0835 C.ar    1  UNL1        0.1002
     38 N         -13.0096  -15.5785   34.9489 N.ar    1  UNL1       -0.2422
     39 C         -13.7678  -15.6319   33.8221 C.ar    1  UNL1        0.1002
     40 C         -13.5145  -14.7561   32.7634 C.ar    1  UNL1        0.0353
     41 C         -10.6722   -9.4216   31.5407 C.3     1  UNL1        0.0569
     42 C         -11.1510   -8.0455   31.1601 C.ar    1  UNL1       -0.0017
     43 C         -12.4540   -7.5651   31.2625 C.ar    1  UNL1        0.0681
     44 N         -12.5167   -6.2755   30.8611 N.ar    1  UNL1       -0.3523
     45 C         -11.2670   -5.9382   30.4991 C.ar    1  UNL1        0.0563
     46 C         -10.8328   -4.7054   30.0137 C.ar    1  UNL1        0.0170
     47 C          -9.4711   -4.5692   29.6882 C.ar    1  UNL1        0.0015
     48 C          -8.5846   -5.6569   29.8495 C.ar    1  UNL1        0.0001
     49 C          -9.0513   -6.8900   30.3393 C.ar    1  UNL1        0.0012
     50 C         -10.4053   -6.9929   30.6622 C.ar    1  UNL1        0.0131
     51 H         -13.3661   -5.6687   30.8389 H       1  UNL1        0.1660
@<TRIPOS>BOND
     1    28    29    1
     2    29    18    1
     3    18    19   ar
     4    19    20   ar
     5    20    12    1
     6    12    13    1
     7    13    14    1
     8    14    15    1
     9    15     5    1
    10     5     6   ar
    11     6     7   ar
    12     7     8   ar
    13     8     1    1
    14     1     2    2
    15     1     3   am
    16     3    30    1
    17    30    41    1
    18    41    42    1
    19    42    43   ar
    20    43    44   ar
    21    44    45   ar
    22    45    46   ar
    23    46    47   ar
    24    47    48   ar
    25    48    49   ar
    26    49    50   ar
    27    30    31    1
    28    31    32    2
    29    31    33   am
    30    33    35    1
    31    35    36   ar
    32    36    37   ar
    33    37    38   ar
    34    38    39   ar
    35    39    40   ar
    36     8     9   ar
    37     9    10    1
    38     9    11   ar
    39    15    16    1
    40    16    17    1
    41    20    21   ar
    42    21    22   ar
    43    22    23   ar
    44    23    24    1
    45    24    25    1
    46    24    26    1
    47    24    27    1
    48    23    18   ar
    49    17    12    1
    50    11     5   ar
    51    50    42   ar
    52    40    35   ar
    53    50    45   ar
    54     3     4    1
    55    44    51    1
    56    33    34    1
@<TRIPOS>MOLECULE
*****
 51 56 0 0 0
SMALL
GASTEIGER

@<TRIPOS>ATOM
      1 C          -8.5159  -11.3349   30.7317 C.2     1  UNL1        0.2483
      2 O          -8.5816  -10.1148   30.4170 O.2     1  UNL1       -0.2701
      3 N          -8.8062  -11.7419   32.0784 N.am    1  UNL1       -0.2945
      4 H          -8.9927  -12.7532   32.2526 H       1  UNL1        0.1501
      5 C          -7.5024  -14.2136   27.6994 C.ar    1  UNL1        0.0502
      6 C          -6.5438  -13.3070   28.1776 C.ar    1  UNL1        0.0148
      7 C          -6.8788  -12.3809   29.1686 C.ar    1  UNL1        0.0080
      8 C          -8.1818  -12.3345   29.6922 C.ar    1  UNL1        0.0808
      9 C          -9.1398  -13.2540   29.2222 C.ar    1  UNL1        0.1457
     10 F         -10.3900  -13.2924   29.7477 F       1  UNL1       -0.2040
     11 C          -8.7999  -14.1803   28.2313 C.ar    1  UNL1        0.0443
     12 N          -6.5219  -16.5645   24.3592 N.pl3   1  UNL1       -0.2897
     13 C          -7.9034  -16.0949   24.5295 C.3     1  UNL1        0.1136
     14 C          -8.2218  -15.9430   26.0155 C.3     1  UNL1        0.1123
     15 N          -7.1645  -15.1680   26.6752 N.pl3   1  UNL1       -0.3040
     16 C          -5.7778  -15.6179   26.5051 C.3     1  UNL1        0.1123
     17 C          -5.4586  -15.7971   25.0188 C.3     1  UNL1        0.1136
     18 C          -6.8181  -18.7537   21.3237 C.ar    1  UNL1       -0.0140
     19 C          -7.1538  -17.8656   22.3584 C.ar    1  UNL1        0.0300
     20 C          -6.1877  -17.4676   23.2891 C.ar    1  UNL1        0.1315
     21 N          -4.9280  -17.9666   23.1943 N.ar    1  UNL1       -0.2292
     22 C          -4.5625  -18.8324   22.2156 C.ar    1  UNL1        0.1038
     23 C          -5.4931  -19.2638   21.2509 C.ar    1  UNL1        0.0867
     24 C          -5.0490  -20.2109   20.1512 C.3     1  UNL1        0.4197
     25 F          -4.4661  -21.3567   20.6651 F       1  UNL1       -0.1658
     26 F          -6.1334  -20.5977   19.3859 F       1  UNL1       -0.1658
     27 F          -4.1192  -19.5796   19.3452 F       1  UNL1       -0.1658
     28 C          -9.2746  -18.6531   20.8369 C.3     1  UNL1        0.0050
     29 C          -7.9148  -19.1587   20.3612 C.3     1  UNL1        0.0265
     30 C          -9.1141  -10.7708   33.1338 C.3     1  UNL1        0.1535
     31 C          -8.2887   -9.5175   32.9683 C.2     1  UNL1        0.2443
     32 O          -8.8806   -8.4180   32.7932 O.2     1  UNL1       -0.2730
     33 N          -6.8513   -9.5693   33.0135 N.am    1  UNL1       -0.2825
     34 H          -6.3979  -10.4211   33.4133 H       1  UNL1        0.1549
     35 C          -5.9907   -8.4916   32.6072 C.ar    1  UNL1        0.0535
     36 C          -5.0641   -7.9704   33.5207 C.ar    1  UNL1        0.0353
     37 C          -4.2041   -6.9438   33.1245 C.ar    1  UNL1        0.1002
     38 N          -4.2539   -6.4648   31.8535 N.ar    1  UNL1       -0.2422
     39 C          -5.1272   -6.9634   30.9390 C.ar    1  UNL1        0.1002
     40 C          -6.0062   -7.9896   31.2946 C.ar    1  UNL1        0.0353
     41 C         -10.6257  -10.4625   33.2017 C.3     1  UNL1        0.0569
     42 C         -11.5002  -11.5588   32.6528 C.ar    1  UNL1       -0.0017
     43 C         -12.2688  -11.5017   31.4930 C.ar    1  UNL1        0.0681
     44 N         -12.9029  -12.6778   31.2862 N.ar    1  UNL1       -0.3523
     45 C         -12.5482  -13.4756   32.3080 C.ar    1  UNL1        0.0563
     46 C         -12.9524  -14.7912   32.5311 C.ar    1  UNL1        0.0170
     47 C         -12.4608  -15.4452   33.6754 C.ar    1  UNL1        0.0015
     48 C         -11.5896  -14.7762   34.5632 C.ar    1  UNL1        0.0001
     49 C         -11.2005  -13.4478   34.3140 C.ar    1  UNL1        0.0012
     50 C         -11.6968  -12.8274   33.1664 C.ar    1  UNL1        0.0131
     51 H         -13.5383  -12.9137   30.4920 H       1  UNL1        0.1660
@<TRIPOS>BOND
     1    28    29    1
     2    29    18    1
     3    18    19   ar
     4    19    20   ar
     5    20    12    1
     6    12    13    1
     7    13    14    1
     8    14    15    1
     9    15     5    1
    10     5     6   ar
    11     6     7   ar
    12     7     8   ar
    13     8     1    1
    14     1     2    2
    15     1     3   am
    16     3    30    1
    17    30    41    1
    18    41    42    1
    19    42    43   ar
    20    43    44   ar
    21    44    45   ar
    22    45    46   ar
    23    46    47   ar
    24    47    48   ar
    25    48    49   ar
    26    49    50   ar
    27    30    31    1
    28    31    32    2
    29    31    33   am
    30    33    35    1
    31    35    36   ar
    32    36    37   ar
    33    37    38   ar
    34    38    39   ar
    35    39    40   ar
    36     8     9   ar
    37     9    10    1
    38     9    11   ar
    39    15    16    1
    40    16    17    1
    41    20    21   ar
    42    21    22   ar
    43    22    23   ar
    44    23    24    1
    45    24    25    1
    46    24    26    1
    47    24    27    1
    48    23    18   ar
    49    17    12    1
    50    11     5   ar
    51    50    42   ar
    52    40    35   ar
    53    50    45   ar
    54     3     4    1
    55    44    51    1
    56    33    34    1
@<TRIPOS>MOLECULE
*****
 51 56 0 0 0
SMALL
GASTEIGER

@<TRIPOS>ATOM
      1 C          -8.6334  -11.3282   30.6798 C.2     1  UNL1        0.2483
      2 O          -9.0924  -10.2126   30.3106 O.2     1  UNL1       -0.2701
      3 N          -8.5746  -11.6489   32.0788 N.am    1  UNL1       -0.2945
      4 H          -8.4358  -12.6479   32.3446 H       1  UNL1        0.1501
      5 C          -7.3374  -14.1492   27.7012 C.ar    1  UNL1        0.0502
      6 C          -6.4415  -13.2144   28.2425 C.ar    1  UNL1        0.0148
      7 C          -6.8684  -12.3073   29.2157 C.ar    1  UNL1        0.0080
      8 C          -8.2019  -12.3085   29.6578 C.ar    1  UNL1        0.0808
      9 C          -9.0973  -13.2564   29.1247 C.ar    1  UNL1        0.1457
     10 F         -10.3755  -13.3406   29.5718 F       1  UNL1       -0.2040
     11 C          -8.6655  -14.1635   28.1520 C.ar    1  UNL1        0.0443
     12 N          -5.8643  -16.4340   24.4990 N.pl3   1  UNL1       -0.2897
     13 C          -7.0787  -15.6290   24.3113 C.3     1  UNL1        0.1136
     14 C          -7.8294  -15.5035   25.6355 C.3     1  UNL1        0.1123
     15 N          -6.9047  -15.0843   26.6951 N.pl3   1  UNL1       -0.3040
     16 C          -5.6811  -15.8717   26.8875 C.3     1  UNL1        0.1123
     17 C          -4.9357  -16.0236   25.5591 C.3     1  UNL1        0.1136
     18 C          -3.6262  -18.2121   22.0651 C.ar    1  UNL1       -0.0140
     19 C          -4.0582  -17.3543   23.0895 C.ar    1  UNL1        0.0300
     20 C          -5.4080  -17.3155   23.4562 C.ar    1  UNL1        0.1315
     21 N          -6.2991  -18.0997   22.7961 N.ar    1  UNL1       -0.2292
     22 C          -5.9265  -18.9372   21.7956 C.ar    1  UNL1        0.1038
     23 C          -4.5811  -19.0188   21.3879 C.ar    1  UNL1        0.0867
     24 C          -4.1889  -19.9849   20.2851 C.3     1  UNL1        0.4197
     25 F          -3.3784  -19.3815   19.3385 F       1  UNL1       -0.1658
     26 F          -3.4931  -21.0566   20.8127 F       1  UNL1       -0.1658
     27 F          -5.3267  -20.4445   19.6471 F       1  UNL1       -0.1658
     28 C          -1.6982  -16.7790   21.3509 C.3     1  UNL1        0.0050
     29 C          -2.1556  -18.1920   21.7045 C.3     1  UNL1        0.0265
     30 C          -8.9706  -10.6872   33.1133 C.3     1  UNL1        0.1535
     31 C          -8.1353   -9.4323   33.0283 C.2     1  UNL1        0.2443
     32 O          -8.7186   -8.3158   32.9742 O.2     1  UNL1       -0.2730
     33 N          -6.6981   -9.5022   33.0140 N.am    1  UNL1       -0.2825
     34 H          -6.2415  -10.3908   33.3191 H       1  UNL1        0.1549
     35 C          -5.8388   -8.4012   32.6726 C.ar    1  UNL1        0.0535
     36 C          -6.0935   -7.6668   31.5062 C.ar    1  UNL1        0.0353
     37 C          -5.2814   -6.5773   31.1833 C.ar    1  UNL1        0.1002
     38 N          -4.2599   -6.2206   32.0059 N.ar    1  UNL1       -0.2422
     39 C          -4.0004   -6.9003   33.1540 C.ar    1  UNL1        0.1002
     40 C          -4.7875   -7.9973   33.5134 C.ar    1  UNL1        0.0353
     41 C         -10.4829  -10.3797   33.0571 C.3     1  UNL1        0.0569
     42 C         -11.3308  -11.5490   32.6310 C.ar    1  UNL1       -0.0017
     43 C         -12.1421  -11.6146   31.5012 C.ar    1  UNL1        0.0681
     44 N         -12.7345  -12.8267   31.4127 N.ar    1  UNL1       -0.3523
     45 C         -12.3110  -13.5257   32.4797 C.ar    1  UNL1        0.0563
     46 C         -12.6526  -14.8336   32.8215 C.ar    1  UNL1        0.0170
     47 C         -12.0940  -15.3743   33.9939 C.ar    1  UNL1        0.0015
     48 C         -11.2197  -14.6034   34.7914 C.ar    1  UNL1        0.0001
     49 C         -10.8946  -13.2855   34.4232 C.ar    1  UNL1        0.0012
     50 C         -11.4567  -12.7788   33.2504 C.ar    1  UNL1        0.0131
     51 H         -13.3877  -13.1498   30.6649 H       1  UNL1        0.1660
@<TRIPOS>BOND
     1    28    29    1
     2    29    18    1
     3    18    19   ar
     4    19    20   ar
     5    20    12    1
     6    12    13    1
     7    13    14    1
     8    14    15    1
     9    15     5    1
    10     5     6   ar
    11     6     7   ar
    12     7     8   ar
    13     8     1    1
    14     1     2    2
    15     1     3   am
    16     3    30    1
    17    30    41    1
    18    41    42    1
    19    42    43   ar
    20    43    44   ar
    21    44    45   ar
    22    45    46   ar
    23    46    47   ar
    24    47    48   ar
    25    48    49   ar
    26    49    50   ar
    27    30    31    1
    28    31    32    2
    29    31    33   am
    30    33    35    1
    31    35    36   ar
    32    36    37   ar
    33    37    38   ar
    34    38    39   ar
    35    39    40   ar
    36     8     9   ar
    37     9    10    1
    38     9    11   ar
    39    15    16    1
    40    16    17    1
    41    20    21   ar
    42    21    22   ar
    43    22    23   ar
    44    23    24    1
    45    24    25    1
    46    24    26    1
    47    24    27    1
    48    23    18   ar
    49    17    12    1
    50    11     5   ar
    51    50    42   ar
    52    40    35   ar
    53    50    45   ar
    54     3     4    1
    55    44    51    1
    56    33    34    1
@<TRIPOS>MOLECULE
*****
 51 56 0 0 0
SMALL
GASTEIGER

@<TRIPOS>ATOM
      1 C          -8.1156  -11.1098   30.7351 C.2     1  UNL1        0.2483
      2 O          -7.6375   -9.9573   30.5481 O.2     1  UNL1       -0.2701
      3 N          -8.8881  -11.3799   31.9157 N.am    1  UNL1       -0.2945
      4 H          -9.4751  -12.2419   31.9276 H       1  UNL1        0.1501
      5 C          -7.4666  -14.1284   27.7391 C.ar    1  UNL1        0.0502
      6 C          -6.4125  -13.3105   28.1741 C.ar    1  UNL1        0.0148
      7 C          -6.6298  -12.3382   29.1537 C.ar    1  UNL1        0.0080
      8 C          -7.9076  -12.1560   29.7086 C.ar    1  UNL1        0.0808
      9 C          -8.9622  -12.9869   29.2821 C.ar    1  UNL1        0.1457
     10 F         -10.1956  -12.8941   29.8395 F       1  UNL1       -0.2040
     11 C          -8.7400  -13.9598   28.3026 C.ar    1  UNL1        0.0443
     12 N          -7.0108  -16.6647   24.4218 N.pl3   1  UNL1       -0.2897
     13 C          -8.3575  -16.3946   24.9429 C.3     1  UNL1        0.1136
     14 C          -8.2900  -16.1261   26.4449 C.3     1  UNL1        0.1123
     15 N          -7.2501  -15.1297   26.7270 N.pl3   1  UNL1       -0.3040
     16 C          -5.9019  -15.3797   26.2033 C.3     1  UNL1        0.1123
     17 C          -5.9640  -15.6749   24.7025 C.3     1  UNL1        0.1136
     18 C          -7.7143  -19.1022   21.6544 C.ar    1  UNL1       -0.0140
     19 C          -7.9132  -18.1633   22.6796 C.ar    1  UNL1        0.0300
     20 C          -6.8192  -17.6214   23.3633 C.ar    1  UNL1        0.1315
     21 N          -5.5647  -18.0296   23.0401 N.ar    1  UNL1       -0.2292
     22 C          -5.3275  -18.9397   22.0620 C.ar    1  UNL1        0.1038
     23 C          -6.3907  -19.5148   21.3399 C.ar    1  UNL1        0.0867
     24 C          -6.0939  -20.5093   20.2324 C.3     1  UNL1        0.4197
     25 F          -4.9390  -20.1802   19.5432 F       1  UNL1       -0.1658
     26 F          -5.9225  -21.7757   20.7595 F       1  UNL1       -0.1658
     27 F          -7.1430  -20.5243   19.3314 F       1  UNL1       -0.1658
     28 C          -9.9214  -18.5511   20.6027 C.3     1  UNL1        0.0050
     29 C          -8.9414  -19.6636   20.9672 C.3     1  UNL1        0.0265
     30 C          -9.0877  -10.3702   32.9609 C.3     1  UNL1        0.1535
     31 C          -8.9894   -8.9768   32.3877 C.2     1  UNL1        0.2443
     32 O          -8.1381   -8.1801   32.8678 O.2     1  UNL1       -0.2730
     33 N          -9.8459   -8.5607   31.3088 N.am    1  UNL1       -0.2825
     34 H         -10.3469   -9.2958   30.7613 H       1  UNL1        0.1549
     35 C         -10.0064   -7.1964   30.8845 C.ar    1  UNL1        0.0535
     36 C          -9.0103   -6.5990   30.1000 C.ar    1  UNL1        0.0353
     37 C          -9.1728   -5.2838   29.6589 C.ar    1  UNL1        0.1002
     38 N         -10.2999   -4.5929   29.9745 N.ar    1  UNL1       -0.2422
     39 C         -11.2925   -5.1515   30.7163 C.ar    1  UNL1        0.1002
     40 C         -11.1693   -6.4640   31.1790 C.ar    1  UNL1        0.0353
     41 C         -10.4140  -10.5903   33.7206 C.3     1  UNL1        0.0569
     42 C         -11.3760  -11.5130   33.0199 C.ar    1  UNL1       -0.0017
     43 C         -12.1304  -11.2169   31.8876 C.ar    1  UNL1        0.0681
     44 N         -12.8617  -12.2901   31.5113 N.ar    1  UNL1       -0.3523
     45 C         -12.5821  -13.2596   32.3992 C.ar    1  UNL1        0.0563
     46 C         -13.0986  -14.5544   32.4252 C.ar    1  UNL1        0.0170
     47 C         -12.6712  -15.4125   33.4548 C.ar    1  UNL1        0.0015
     48 C         -11.7508  -14.9612   34.4264 C.ar    1  UNL1        0.0001
     49 C         -11.2482  -13.6486   34.3766 C.ar    1  UNL1        0.0012
     50 C         -11.6832  -12.8228   33.3387 C.ar    1  UNL1        0.0131
     51 H         -13.5105  -12.3490   30.6953 H       1  UNL1        0.1660
@<TRIPOS>BOND
     1    28    29    1
     2    29    18    1
     3    18    19   ar
     4    19    20   ar
     5    20    12    1
     6    12    13    1
     7    13    14    1
     8    14    15    1
     9    15     5    1
    10     5     6   ar
    11     6     7   ar
    12     7     8   ar
    13     8     1    1
    14     1     2    2
    15     1     3   am
    16     3    30    1
    17    30    41    1
    18    41    42    1
    19    42    43   ar
    20    43    44   ar
    21    44    45   ar
    22    45    46   ar
    23    46    47   ar
    24    47    48   ar
    25    48    49   ar
    26    49    50   ar
    27    30    31    1
    28    31    32    2
    29    31    33   am
    30    33    35    1
    31    35    36   ar
    32    36    37   ar
    33    37    38   ar
    34    38    39   ar
    35    39    40   ar
    36     8     9   ar
    37     9    10    1
    38     9    11   ar
    39    15    16    1
    40    16    17    1
    41    20    21   ar
    42    21    22   ar
    43    22    23   ar
    44    23    24    1
    45    24    25    1
    46    24    26    1
    47    24    27    1
    48    23    18   ar
    49    17    12    1
    50    11     5   ar
    51    50    42   ar
    52    40    35   ar
    53    50    45   ar
    54     3     4    1
    55    44    51    1
    56    33    34    1
@<TRIPOS>MOLECULE
*****
 51 56 0 0 0
SMALL
GASTEIGER

@<TRIPOS>ATOM
      1 C          -8.5443  -11.4492   30.7001 C.2     1  UNL1        0.2483
      2 O          -9.5233  -10.6823   30.4876 O.2     1  UNL1       -0.2701
      3 N          -7.8900  -11.4348   31.9789 N.am    1  UNL1       -0.2945
      4 H          -7.2648  -12.2354   32.2157 H       1  UNL1        0.1501
      5 C          -7.2502  -14.1402   27.6028 C.ar    1  UNL1        0.0502
      6 C          -6.3729  -13.1824   28.1344 C.ar    1  UNL1        0.0148
      7 C          -6.7985  -12.3180   29.1461 C.ar    1  UNL1        0.0080
      8 C          -8.1130  -12.3854   29.6376 C.ar    1  UNL1        0.0808
      9 C          -8.9890  -13.3563   29.1138 C.ar    1  UNL1        0.1457
     10 F         -10.2446  -13.5045   29.6059 F       1  UNL1       -0.2040
     11 C          -8.5584  -14.2206   28.1024 C.ar    1  UNL1        0.0443
     12 N          -5.6193  -16.3454   24.4214 N.pl3   1  UNL1       -0.2897
     13 C          -6.5135  -15.2165   24.1319 C.3     1  UNL1        0.1136
     14 C          -7.5199  -15.0455   25.2680 C.3     1  UNL1        0.1123
     15 N          -6.8189  -15.0315   26.5572 N.pl3   1  UNL1       -0.3040
     16 C          -5.9129  -16.1469   26.8563 C.3     1  UNL1        0.1123
     17 C          -4.9169  -16.3411   25.7102 C.3     1  UNL1        0.1136
     18 C          -3.4078  -17.8441   21.7836 C.ar    1  UNL1       -0.0140
     19 C          -3.8578  -17.0217   22.8291 C.ar    1  UNL1        0.0300
     20 C          -5.1436  -17.1880   23.3554 C.ar    1  UNL1        0.1315
     21 N          -5.9594  -18.1381   22.8295 N.ar    1  UNL1       -0.2292
     22 C          -5.5682  -18.9491   21.8143 C.ar    1  UNL1        0.1038
     23 C          -4.2842  -18.8276   21.2492 C.ar    1  UNL1        0.0867
     24 C          -3.8639  -19.7669   20.1335 C.3     1  UNL1        0.4197
     25 F          -2.8850  -19.2053   19.3314 F       1  UNL1       -0.1658
     26 F          -3.3542  -20.9386   20.6610 F       1  UNL1       -0.1658
     27 F          -4.9572  -20.0580   19.3381 F       1  UNL1       -0.1658
     28 C          -1.5300  -16.1945   21.5987 C.3     1  UNL1        0.0050
     29 C          -2.0129  -17.5996   21.2472 C.3     1  UNL1        0.0265
     30 C          -8.2795  -10.4998   33.0400 C.3     1  UNL1        0.1535
     31 C          -7.9455   -9.0790   32.6533 C.2     1  UNL1        0.2443
     32 O          -7.5710   -8.2763   33.5507 O.2     1  UNL1       -0.2730
     33 N          -8.0461   -8.6435   31.2855 N.am    1  UNL1       -0.2825
     34 H          -8.0994   -9.3695   30.5363 H       1  UNL1        0.1549
     35 C          -8.0074   -7.2674   30.8705 C.ar    1  UNL1        0.0535
     36 C          -9.1844   -6.6511   30.4239 C.ar    1  UNL1        0.0353
     37 C          -9.1614   -5.3063   30.0475 C.ar    1  UNL1        0.1002
     38 N          -8.0066   -4.5944   30.1309 N.ar    1  UNL1       -0.2422
     39 C          -6.8540   -5.1582   30.5793 C.ar    1  UNL1        0.1002
     40 C          -6.8330   -6.5012   30.9642 C.ar    1  UNL1        0.0353
     41 C          -9.7667  -10.6599   33.4235 C.3     1  UNL1        0.0569
     42 C         -10.1159  -12.0191   33.9700 C.ar    1  UNL1       -0.0017
     43 C          -9.5050  -12.6610   35.0442 C.ar    1  UNL1        0.0681
     44 N         -10.0938  -13.8550   35.2799 N.ar    1  UNL1       -0.3523
     45 C         -11.0664  -13.9774   34.3605 C.ar    1  UNL1        0.0563
     46 C         -11.9482  -15.0458   34.2019 C.ar    1  UNL1        0.0170
     47 C         -12.8933  -14.9699   33.1628 C.ar    1  UNL1        0.0015
     48 C         -12.9329  -13.8429   32.3124 C.ar    1  UNL1        0.0001
     49 C         -12.0291  -12.7807   32.4945 C.ar    1  UNL1        0.0012
     50 C         -11.1087  -12.8796   33.5391 C.ar    1  UNL1        0.0131
     51 H          -9.8406  -14.5398   36.0264 H       1  UNL1        0.1660
@<TRIPOS>BOND
     1    28    29    1
     2    29    18    1
     3    18    19   ar
     4    19    20   ar
     5    20    12    1
     6    12    13    1
     7    13    14    1
     8    14    15    1
     9    15     5    1
    10     5     6   ar
    11     6     7   ar
    12     7     8   ar
    13     8     1    1
    14     1     2    2
    15     1     3   am
    16     3    30    1
    17    30    41    1
    18    41    42    1
    19    42    43   ar
    20    43    44   ar
    21    44    45   ar
    22    45    46   ar
    23    46    47   ar
    24    47    48   ar
    25    48    49   ar
    26    49    50   ar
    27    30    31    1
    28    31    32    2
    29    31    33   am
    30    33    35    1
    31    35    36   ar
    32    36    37   ar
    33    37    38   ar
    34    38    39   ar
    35    39    40   ar
    36     8     9   ar
    37     9    10    1
    38     9    11   ar
    39    15    16    1
    40    16    17    1
    41    20    21   ar
    42    21    22   ar
    43    22    23   ar
    44    23    24    1
    45    24    25    1
    46    24    26    1
    47    24    27    1
    48    23    18   ar
    49    17    12    1
    50    11     5   ar
    51    50    42   ar
    52    40    35   ar
    53    50    45   ar
    54     3     4    1
    55    44    51    1
    56    33    34    1
@<TRIPOS>MOLECULE
*****
 51 56 0 0 0
SMALL
GASTEIGER

@<TRIPOS>ATOM
      1 C          -9.6190  -12.1130   30.5468 C.2     1  UNL1        0.2483
      2 O          -9.3204  -12.2671   31.7629 O.2     1  UNL1       -0.2701
      3 N         -10.6117  -11.1446   30.1722 N.am    1  UNL1       -0.2945
      4 H         -10.6590  -10.8573   29.1706 H       1  UNL1        0.1501
      5 C          -7.5868  -14.4515   27.5617 C.ar    1  UNL1        0.0502
      6 C          -8.9458  -14.6658   27.8391 C.ar    1  UNL1        0.0148
      7 C          -9.6004  -13.8962   28.8041 C.ar    1  UNL1        0.0080
      8 C          -8.9067  -12.9059   29.5195 C.ar    1  UNL1        0.0808
      9 C          -7.5464  -12.6813   29.2307 C.ar    1  UNL1        0.1457
     10 F          -6.8546  -11.6897   29.8462 F       1  UNL1       -0.2040
     11 C          -6.8954  -13.4528   28.2630 C.ar    1  UNL1        0.0443
     12 N          -5.3887  -16.2806   24.4848 N.pl3   1  UNL1       -0.2897
     13 C          -6.6246  -15.5579   24.1561 C.3     1  UNL1        0.1136
     14 C          -7.5954  -15.6252   25.3333 C.3     1  UNL1        0.1123
     15 N          -6.9053  -15.2439   26.5711 N.pl3   1  UNL1       -0.3040
     16 C          -5.6628  -15.9490   26.9076 C.3     1  UNL1        0.1123
     17 C          -4.6940  -15.9079   25.7230 C.3     1  UNL1        0.1136
     18 C          -4.6690  -18.5687   21.5967 C.ar    1  UNL1       -0.0140
     19 C          -5.3692  -17.8513   22.5801 C.ar    1  UNL1        0.0300
     20 C          -4.6829  -17.0144   23.4670 C.ar    1  UNL1        0.1315
     21 N          -3.3306  -16.9207   23.3811 N.ar    1  UNL1       -0.2292
     22 C          -2.6140  -17.6016   22.4516 C.ar    1  UNL1        0.1038
     23 C          -3.2534  -18.4552   21.5322 C.ar    1  UNL1        0.0867
     24 C          -2.4292  -19.1826   20.4857 C.3     1  UNL1        0.4197
     25 F          -1.1346  -19.4112   20.9199 F       1  UNL1       -0.1658
     26 F          -2.9982  -20.4087   20.1958 F       1  UNL1       -0.1658
     27 F          -2.3682  -18.4200   19.3336 F       1  UNL1       -0.1658
     28 C          -6.8773  -18.9210   20.4650 C.3     1  UNL1        0.0050
     29 C          -5.4694  -19.4707   20.6808 C.3     1  UNL1        0.0265
     30 C         -11.3512  -10.3646   31.1705 C.3     1  UNL1        0.1535
     31 C         -11.9966  -11.2716   32.1905 C.2     1  UNL1        0.2443
     32 O         -12.3401  -10.7884   33.3033 O.2     1  UNL1       -0.2730
     33 N         -12.2232  -12.6631   31.9021 N.am    1  UNL1       -0.2825
     34 H         -12.1774  -12.9773   30.9069 H       1  UNL1        0.1549
     35 C         -12.5800  -13.6454   32.8895 C.ar    1  UNL1        0.0535
     36 C         -13.4149  -14.7115   32.5277 C.ar    1  UNL1        0.0353
     37 C         -13.7418  -15.6861   33.4733 C.ar    1  UNL1        0.1002
     38 N         -13.2381  -15.6099   34.7333 N.ar    1  UNL1       -0.2422
     39 C         -12.4098  -14.5997   35.1085 C.ar    1  UNL1        0.1002
     40 C         -12.0590  -13.6033   34.1941 C.ar    1  UNL1        0.0353
     41 C         -10.4581   -9.2931   31.8329 C.3     1  UNL1        0.0569
     42 C          -9.4282   -8.6974   30.9097 C.ar    1  UNL1       -0.0017
     43 C          -9.6790   -7.9285   29.7762 C.ar    1  UNL1        0.0681
     44 N          -8.5189   -7.5336   29.2051 N.ar    1  UNL1       -0.3523
     45 C          -7.5369   -8.0513   29.9627 C.ar    1  UNL1        0.0563
     46 C          -6.1625   -7.9173   29.7700 C.ar    1  UNL1        0.0170
     47 C          -5.3048   -8.5511   30.6873 C.ar    1  UNL1        0.0015
     48 C          -5.8337   -9.2994   31.7621 C.ar    1  UNL1        0.0001
     49 C          -7.2248   -9.4195   31.9304 C.ar    1  UNL1        0.0012
     50 C          -8.0512   -8.7726   31.0101 C.ar    1  UNL1        0.0131
     51 H          -8.4125   -6.9453   28.3490 H       1  UNL1        0.1660
@<TRIPOS>BOND
     1    28    29    1
     2    29    18    1
     3    18    19   ar
     4    19    20   ar
     5    20    12    1
     6    12    13    1
     7    13    14    1
     8    14    15    1
     9    15     5    1
    10     5     6   ar
    11     6     7   ar
    12     7     8   ar
    13     8     1    1
    14     1     2    2
    15     1     3   am
    16     3    30    1
    17    30    41    1
    18    41    42    1
    19    42    43   ar
    20    43    44   ar
    21    44    45   ar
    22    45    46   ar
    23    46    47   ar
    24    47    48   ar
    25    48    49   ar
    26    49    50   ar
    27    30    31    1
    28    31    32    2
    29    31    33   am
    30    33    35    1
    31    35    36   ar
    32    36    37   ar
    33    37    38   ar
    34    38    39   ar
    35    39    40   ar
    36     8     9   ar
    37     9    10    1
    38     9    11   ar
    39    15    16    1
    40    16    17    1
    41    20    21   ar
    42    21    22   ar
    43    22    23   ar
    44    23    24    1
    45    24    25    1
    46    24    26    1
    47    24    27    1
    48    23    18   ar
    49    17    12    1
    50    11     5   ar
    51    50    42   ar
    52    40    35   ar
    53    50    45   ar
    54     3     4    1
    55    44    51    1
    56    33    34    1
@<TRIPOS>MOLECULE
*****
 51 56 0 0 0
SMALL
GASTEIGER

@<TRIPOS>ATOM
      1 C          -9.4019  -12.0704   30.5926 C.2     1  UNL1        0.2483
      2 O          -8.8656  -11.9711   31.7302 O.2     1  UNL1       -0.2701
      3 N         -10.6343  -11.3838   30.3214 N.am    1  UNL1       -0.2945
      4 H         -10.9209  -11.2718   29.3248 H       1  UNL1        0.1501
      5 C          -7.4761  -14.4023   27.5327 C.ar    1  UNL1        0.0502
      6 C          -8.8273  -14.6099   27.8498 C.ar    1  UNL1        0.0148
      7 C          -9.4475  -13.8425   28.8390 C.ar    1  UNL1        0.0080
      8 C          -8.7261  -12.8610   29.5392 C.ar    1  UNL1        0.0808
      9 C          -7.3737  -12.6431   29.2107 C.ar    1  UNL1        0.1457
     10 F          -6.6573  -11.6598   29.8112 F       1  UNL1       -0.2040
     11 C          -6.7573  -13.4124   28.2189 C.ar    1  UNL1        0.0443
     12 N          -5.1947  -16.3142   24.5688 N.pl3   1  UNL1       -0.2897
     13 C          -5.9901  -15.1309   24.2147 C.3     1  UNL1        0.1136
     14 C          -7.2240  -15.0463   25.1109 C.3     1  UNL1        0.1123
     15 N          -6.8299  -15.1926   26.5170 N.pl3   1  UNL1       -0.3040
     16 C          -6.0252  -16.3637   26.8846 C.3     1  UNL1        0.1123
     17 C          -4.7994  -16.4699   25.9738 C.3     1  UNL1        0.1136
     18 C          -4.5144  -18.3954   21.5191 C.ar    1  UNL1       -0.0140
     19 C          -5.2018  -17.6678   22.5041 C.ar    1  UNL1        0.0300
     20 C          -4.5003  -17.0554   23.5485 C.ar    1  UNL1        0.1315
     21 N          -3.1504  -17.1907   23.6119 N.ar    1  UNL1       -0.2292
     22 C          -2.4473  -17.8908   22.6862 C.ar    1  UNL1        0.1038
     23 C          -3.1017  -18.5245   21.6125 C.ar    1  UNL1        0.0867
     24 C          -2.2868  -19.2772   20.5766 C.3     1  UNL1        0.4197
     25 F          -0.9332  -19.2444   20.8657 F       1  UNL1       -0.1658
     26 F          -2.6755  -20.6032   20.5332 F       1  UNL1       -0.1658
     27 F          -2.4753  -18.7018   19.3332 F       1  UNL1       -0.1658
     28 C          -6.0898  -20.2631   20.9618 C.3     1  UNL1        0.0050
     29 C          -5.3346  -19.0489   20.4268 C.3     1  UNL1        0.0265
     30 C         -11.3385  -10.6155   31.3536 C.3     1  UNL1        0.1535
     31 C         -11.3606   -9.1459   31.0082 C.2     1  UNL1        0.2443
     32 O         -12.4190   -8.6472   30.5383 O.2     1  UNL1       -0.2730
     33 N         -10.1988   -8.3220   31.2140 N.am    1  UNL1       -0.2825
     34 H          -9.4390   -8.6817   31.8341 H       1  UNL1        0.1549
     35 C         -10.0417   -6.9977   30.6767 C.ar    1  UNL1        0.0535
     36 C         -11.1547   -6.1487   30.6051 C.ar    1  UNL1        0.0353
     37 C         -11.0042   -4.8505   30.1122 C.ar    1  UNL1        0.1002
     38 N          -9.7805   -4.4074   29.7205 N.ar    1  UNL1       -0.2422
     39 C          -8.6789   -5.1998   29.7969 C.ar    1  UNL1        0.1002
     40 C          -8.7857   -6.5056   30.2823 C.ar    1  UNL1        0.0353
     41 C         -12.7567  -11.1703   31.6095 C.3     1  UNL1        0.0569
     42 C         -12.8218  -12.2075   32.6994 C.ar    1  UNL1       -0.0017
     43 C         -13.0523  -11.9726   34.0525 C.ar    1  UNL1        0.0681
     44 N         -13.0762  -13.1374   34.7384 N.ar    1  UNL1       -0.3523
     45 C         -12.8559  -14.1061   33.8331 C.ar    1  UNL1        0.0563
     46 C         -12.7889  -15.4791   34.0657 C.ar    1  UNL1        0.0170
     47 C         -12.5415  -16.3212   32.9664 C.ar    1  UNL1        0.0015
     48 C         -12.3646  -15.7782   31.6746 C.ar    1  UNL1        0.0001
     49 C         -12.4351  -14.3885   31.4700 C.ar    1  UNL1        0.0012
     50 C         -12.6907  -13.5785   32.5777 C.ar    1  UNL1        0.0131
     51 H         -13.2343  -13.2555   35.7638 H       1  UNL1        0.1660
@<TRIPOS>BOND
     1    28    29    1
     2    29    18    1
     3    18    19   ar
     4    19    20   ar
     5    20    12    1
     6    12    13    1
     7    13    14    1
     8    14    15    1
     9    15     5    1
    10     5     6   ar
    11     6     7   ar
    12     7     8   ar
    13     8     1    1
    14     1     2    2
    15     1     3   am
    16     3    30    1
    17    30    41    1
    18    41    42    1
    19    42    43   ar
    20    43    44   ar
    21    44    45   ar
    22    45    46   ar
    23    46    47   ar
    24    47    48   ar
    25    48    49   ar
    26    49    50   ar
    27    30    31    1
    28    31    32    2
    29    31    33   am
    30    33    35    1
    31    35    36   ar
    32    36    37   ar
    33    37    38   ar
    34    38    39   ar
    35    39    40   ar
    36     8     9   ar
    37     9    10    1
    38     9    11   ar
    39    15    16    1
    40    16    17    1
    41    20    21   ar
    42    21    22   ar
    43    22    23   ar
    44    23    24    1
    45    24    25    1
    46    24    26    1
    47    24    27    1
    48    23    18   ar
    49    17    12    1
    50    11     5   ar
    51    50    42   ar
    52    40    35   ar
    53    50    45   ar
    54     3     4    1
    55    44    51    1
    56    33    34    1
