@<TRIPOS>MOLECULE
*****
 36 40 0 0 0
SMALL
GASTEIGER

@<TRIPOS>ATOM
      1 C          47.0681   14.2839  -26.2883 C.2     1  UNL1        0.2306
      2 O          48.1043   14.8415  -26.7414 O.2     1  UNL1       -0.2745
      3 N          47.0220   13.8893  -24.9069 N.am    1  UNL1       -0.2711
      4 C          45.8675   13.2696  -24.2517 C.3     1  UNL1        0.1202
      5 C          46.3586   13.0162  -22.8772 C.ar    1  UNL1       -0.0046
      6 C          45.6917   12.3671  -21.8386 C.ar    1  UNL1       -0.0015
      7 C          46.3839   12.1312  -20.6410 C.ar    1  UNL1        0.0199
      8 C          47.7284   12.5361  -20.5018 C.ar    1  UNL1        0.1249
      9 C          48.3719   13.2070  -21.5596 C.ar    1  UNL1        0.0173
     10 C          47.6599   13.4369  -22.7367 C.ar    1  UNL1       -0.0033
     11 C          48.1625   14.0282  -23.9997 C.3     1  UNL1        0.1202
     12 S          48.6302   12.0652  -19.0640 S.O2    1  UNL1        0.0748
     13 O          49.4657   13.2118  -18.5676 O.2     1  UNL1       -0.1499
     14 O          47.6543   11.6711  -17.9916 O.2     1  UNL1       -0.1499
     15 N          49.6674   10.7218  -19.4232 N.pl3   1  UNL1       -0.1962
     16 H          50.2950   10.3624  -18.6701 H       1  UNL1        0.1754
     17 C          49.6841   10.0921  -20.7083 C.ar    1  UNL1        0.1899
     18 C          49.0401    8.9259  -21.0488 C.ar    1  UNL1        0.1594
     19 N          49.2654    8.7213  -22.3604 N.ar    1  UNL1       -0.1433
     20 N          50.0181    9.7331  -22.7760 N.ar    1  UNL1       -0.1466
     21 N          50.2931   10.5851  -21.7990 N.ar    1  UNL1       -0.1299
     22 C          50.4544    9.9096  -24.1361 C.ar    1  UNL1        0.1029
     23 C          51.6192    9.2737  -24.6028 C.ar    1  UNL1        0.0209
     24 C          52.0350    9.4439  -25.9273 C.ar    1  UNL1        0.0016
     25 C          51.2935   10.2461  -26.7978 C.ar    1  UNL1        0.0001
     26 C          50.1320   10.8778  -26.3476 C.ar    1  UNL1        0.0016
     27 C          49.7148   10.7135  -25.0236 C.ar    1  UNL1        0.0209
     28 C          45.9246   14.0071  -27.2246 C.3     1  UNL1        0.1117
     29 C          46.3664   11.8705  -30.3639 C.ar    1  UNL1        0.1384
     30 C          46.8253   10.6719  -29.8064 C.ar    1  UNL1        0.0369
     31 C          46.9888   10.5500  -28.4251 C.ar    1  UNL1        0.0028
     32 C          46.6937   11.6262  -27.5860 C.ar    1  UNL1       -0.0036
     33 C          46.2394   12.8405  -28.1249 C.ar    1  UNL1       -0.0101
     34 C          46.0690   12.9549  -29.5155 C.ar    1  UNL1        0.0331
     35 C          45.6524   13.0492  -32.4494 C.3     1  UNL1        0.2525
     36 O          46.2261   11.9452  -31.7576 O.3     1  UNL1       -0.4714
@<TRIPOS>BOND
     1    35    36    1
     2    36    29    1
     3    29    30   ar
     4    30    31   ar
     5    31    32   ar
     6    32    33   ar
     7    33    28    1
     8    28     1    1
     9     1     2    2
    10     1     3   am
    11     3     4    1
    12     4     5    1
    13     5     6   ar
    14     6     7   ar
    15     7     8   ar
    16     8    12    1
    17    12    13    2
    18    12    14    2
    19    12    15    1
    20    15    17    1
    21    17    18   ar
    22    18    19   ar
    23    19    20   ar
    24    20    22    1
    25    22    23   ar
    26    23    24   ar
    27    24    25   ar
    28    25    26   ar
    29    26    27   ar
    30    20    21   ar
    31     8     9   ar
    32     9    10   ar
    33    10    11    1
    34    33    34   ar
    35    34    29   ar
    36    11     3    1
    37    10     5   ar
    38    21    17   ar
    39    27    22   ar
    40    15    16    1
@<TRIPOS>MOLECULE
*****
 36 40 0 0 0
SMALL
GASTEIGER

@<TRIPOS>ATOM
      1 C          51.8644    9.4799  -28.3181 C.2     1  UNL1        0.2306
      2 O          51.1583    8.4732  -28.5972 O.2     1  UNL1       -0.2745
      3 N          51.4704   10.3452  -27.2401 N.am    1  UNL1       -0.2711
      4 C          52.2217   11.5208  -26.7935 C.3     1  UNL1        0.1202
      5 C          51.3669   12.0759  -25.7183 C.ar    1  UNL1       -0.0046
      6 C          51.5642   13.2494  -24.9911 C.ar    1  UNL1       -0.0015
      7 C          50.5690   13.6545  -24.0887 C.ar    1  UNL1        0.0199
      8 C          49.3926   12.8911  -23.9331 C.ar    1  UNL1        0.1249
      9 C          49.2276   11.6997  -24.6658 C.ar    1  UNL1        0.0173
     10 C          50.2348   11.3142  -25.5503 C.ar    1  UNL1       -0.0033
     11 C          50.2285   10.1648  -26.4864 C.3     1  UNL1        0.1202
     12 S          48.0807   13.5149  -22.9371 S.O2    1  UNL1        0.0748
     13 O          47.6365   12.4792  -21.9425 O.2     1  UNL1       -0.1499
     14 O          48.5734   14.7253  -22.1956 O.2     1  UNL1       -0.1499
     15 N          46.7323   13.9578  -23.9348 N.pl3   1  UNL1       -0.1962
     16 H          46.2565   14.8692  -23.7524 H       1  UNL1        0.1754
     17 C          46.2602   13.1216  -24.9960 C.ar    1  UNL1        0.1899
     18 C          45.2001   12.2483  -24.9305 C.ar    1  UNL1        0.1594
     19 N          45.0586   11.7096  -26.1563 N.ar    1  UNL1       -0.1433
     20 N          46.0053   12.2475  -26.9161 N.ar    1  UNL1       -0.1466
     21 N          46.7551   13.1093  -26.2444 N.ar    1  UNL1       -0.1299
     22 C          46.1769   11.9614  -28.3161 C.ar    1  UNL1        0.1029
     23 C          46.5904   10.6857  -28.7409 C.ar    1  UNL1        0.0209
     24 C          46.7495   10.4113  -30.1031 C.ar    1  UNL1        0.0016
     25 C          46.4959   11.4037  -31.0528 C.ar    1  UNL1        0.0001
     26 C          46.0791   12.6725  -30.6436 C.ar    1  UNL1        0.0016
     27 C          45.9224   12.9520  -29.2829 C.ar    1  UNL1        0.0209
     28 C          53.0785    9.7696  -29.1565 C.3     1  UNL1        0.1117
     29 C          55.0923    6.7480  -30.3523 C.ar    1  UNL1        0.1384
     30 C          54.2743    6.2761  -31.3849 C.ar    1  UNL1        0.0369
     31 C          53.0807    6.9295  -31.6979 C.ar    1  UNL1        0.0028
     32 C          52.6928    8.0634  -30.9816 C.ar    1  UNL1       -0.0036
     33 C          53.4948    8.5494  -29.9366 C.ar    1  UNL1       -0.0101
     34 C          54.6992    7.8923  -29.6310 C.ar    1  UNL1        0.0331
     35 C          57.5635    6.6566  -29.9875 C.3     1  UNL1        0.2525
     36 O          56.2774    6.0521  -30.0716 O.3     1  UNL1       -0.4714
@<TRIPOS>BOND
     1    35    36    1
     2    36    29    1
     3    29    30   ar
     4    30    31   ar
     5    31    32   ar
     6    32    33   ar
     7    33    28    1
     8    28     1    1
     9     1     2    2
    10     1     3   am
    11     3     4    1
    12     4     5    1
    13     5     6   ar
    14     6     7   ar
    15     7     8   ar
    16     8    12    1
    17    12    13    2
    18    12    14    2
    19    12    15    1
    20    15    17    1
    21    17    18   ar
    22    18    19   ar
    23    19    20   ar
    24    20    22    1
    25    22    23   ar
    26    23    24   ar
    27    24    25   ar
    28    25    26   ar
    29    26    27   ar
    30    20    21   ar
    31     8     9   ar
    32     9    10   ar
    33    10    11    1
    34    33    34   ar
    35    34    29   ar
    36    11     3    1
    37    10     5   ar
    38    21    17   ar
    39    27    22   ar
    40    15    16    1
@<TRIPOS>MOLECULE
*****
 36 40 0 0 0
SMALL
GASTEIGER

@<TRIPOS>ATOM
      1 C          52.3777    9.6019  -29.2677 C.2     1  UNL1        0.2306
      2 O          53.2737   10.1422  -29.9713 O.2     1  UNL1       -0.2745
      3 N          52.0557   10.1568  -27.9814 N.am    1  UNL1       -0.2711
      4 C          51.0131    9.6471  -27.0875 C.3     1  UNL1        0.1202
      5 C          51.1353   10.5214  -25.8977 C.ar    1  UNL1       -0.0046
      6 C          50.4310   10.4327  -24.6974 C.ar    1  UNL1       -0.0015
      7 C          50.7812   11.2971  -23.6488 C.ar    1  UNL1        0.0199
      8 C          51.8308   12.2262  -23.8098 C.ar    1  UNL1        0.1249
      9 C          52.5128   12.3078  -25.0393 C.ar    1  UNL1        0.0173
     10 C          52.1405   11.4435  -26.0687 C.ar    1  UNL1       -0.0033
     11 C          52.7797   11.2870  -27.3970 C.3     1  UNL1        0.1202
     12 S          52.3736   13.1682  -22.4241 S.O2    1  UNL1        0.0748
     13 O          51.5848   12.8033  -21.1978 O.2     1  UNL1       -0.1499
     14 O          53.8255   12.8696  -22.1784 O.2     1  UNL1       -0.1499
     15 N          52.1778   14.8627  -22.7406 N.pl3   1  UNL1       -0.1962
     16 H          52.9382   15.5149  -22.4461 H       1  UNL1        0.1754
     17 C          51.0180   15.3886  -23.3935 C.ar    1  UNL1        0.1899
     18 C          49.7332   14.9142  -23.2719 C.ar    1  UNL1        0.1594
     19 N          48.9439   15.7265  -24.0000 N.ar    1  UNL1       -0.1433
     20 N          49.7391   16.6466  -24.5328 N.ar    1  UNL1       -0.1466
     21 N          51.0064   16.4722  -24.1868 N.ar    1  UNL1       -0.1299
     22 C          49.2786   17.7319  -25.3582 C.ar    1  UNL1        0.1029
     23 C          48.1830   18.5194  -24.9602 C.ar    1  UNL1        0.0209
     24 C          47.7437   19.5768  -25.7634 C.ar    1  UNL1        0.0016
     25 C          48.3928   19.8598  -26.9674 C.ar    1  UNL1        0.0001
     26 C          49.4856   19.0887  -27.3703 C.ar    1  UNL1        0.0016
     27 C          49.9256   18.0286  -26.5724 C.ar    1  UNL1        0.0209
     28 C          51.7024    8.3602  -29.7807 C.3     1  UNL1        0.1117
     29 C          54.8206    6.5454  -31.0450 C.ar    1  UNL1        0.1384
     30 C          54.3753    6.0896  -32.2907 C.ar    1  UNL1        0.0369
     31 C          53.0775    6.3679  -32.7243 C.ar    1  UNL1        0.0028
     32 C          52.2111    7.1066  -31.9163 C.ar    1  UNL1       -0.0036
     33 C          52.6349    7.5671  -30.6594 C.ar    1  UNL1       -0.0101
     34 C          53.9450    7.2907  -30.2314 C.ar    1  UNL1        0.0331
     35 C          57.0534    7.1736  -30.1131 C.3     1  UNL1        0.2525
     36 O          56.1304    6.2331  -30.6518 O.3     1  UNL1       -0.4714
@<TRIPOS>BOND
     1    35    36    1
     2    36    29    1
     3    29    30   ar
     4    30    31   ar
     5    31    32   ar
     6    32    33   ar
     7    33    28    1
     8    28     1    1
     9     1     2    2
    10     1     3   am
    11     3     4    1
    12     4     5    1
    13     5     6   ar
    14     6     7   ar
    15     7     8   ar
    16     8    12    1
    17    12    13    2
    18    12    14    2
    19    12    15    1
    20    15    17    1
    21    17    18   ar
    22    18    19   ar
    23    19    20   ar
    24    20    22    1
    25    22    23   ar
    26    23    24   ar
    27    24    25   ar
    28    25    26   ar
    29    26    27   ar
    30    20    21   ar
    31     8     9   ar
    32     9    10   ar
    33    10    11    1
    34    33    34   ar
    35    34    29   ar
    36    11     3    1
    37    10     5   ar
    38    21    17   ar
    39    27    22   ar
    40    15    16    1
@<TRIPOS>MOLECULE
*****
 36 40 0 0 0
SMALL
GASTEIGER

@<TRIPOS>ATOM
      1 C          50.8909    9.0829  -27.6596 C.2     1  UNL1        0.2306
      2 O          50.2177    8.0230  -27.5448 O.2     1  UNL1       -0.2745
      3 N          50.5624   10.2226  -26.8476 N.am    1  UNL1       -0.2711
      4 C          51.2883   11.4951  -26.8587 C.3     1  UNL1        0.1202
      5 C          50.5194   12.3275  -25.9044 C.ar    1  UNL1       -0.0046
      6 C          50.7242   13.6693  -25.5847 C.ar    1  UNL1       -0.0015
      7 C          49.8065   14.3037  -24.7335 C.ar    1  UNL1        0.0199
      8 C          48.6977   13.5954  -24.2241 C.ar    1  UNL1        0.1249
      9 C          48.5253   12.2355  -24.5475 C.ar    1  UNL1        0.0173
     10 C          49.4557   11.6255  -25.3888 C.ar    1  UNL1       -0.0033
     11 C          49.4175   10.2483  -25.9358 C.3     1  UNL1        0.1202
     12 S          47.4628   14.4591  -23.3123 S.O2    1  UNL1        0.0748
     13 O          46.9691   13.6188  -22.1680 O.2     1  UNL1       -0.1499
     14 O          48.0639   15.7235  -22.7667 O.2     1  UNL1       -0.1499
     15 N          46.1253   14.8537  -24.3442 N.pl3   1  UNL1       -0.1962
     16 H          45.2872   15.3096  -23.9201 H       1  UNL1        0.1754
     17 C          46.1383   14.5813  -25.7492 C.ar    1  UNL1        0.1899
     18 C          46.1196   15.5163  -26.7572 C.ar    1  UNL1        0.1594
     19 N          46.2030   14.8424  -27.9198 N.ar    1  UNL1       -0.1433
     20 N          46.2671   13.5541  -27.6050 N.ar    1  UNL1       -0.1466
     21 N          46.2293   13.3577  -26.2950 N.ar    1  UNL1       -0.1299
     22 C          46.4016   12.4932  -28.5682 C.ar    1  UNL1        0.1029
     23 C          46.8533   11.2207  -28.1737 C.ar    1  UNL1        0.0209
     24 C          46.9762   10.1917  -29.1128 C.ar    1  UNL1        0.0016
     25 C          46.6482   10.4206  -30.4512 C.ar    1  UNL1        0.0001
     26 C          46.1928   11.6781  -30.8539 C.ar    1  UNL1        0.0016
     27 C          46.0721   12.7105  -29.9192 C.ar    1  UNL1        0.0209
     28 C          51.9933    9.1355  -28.6808 C.3     1  UNL1        0.1117
     29 C          49.9897    7.1798  -31.2839 C.ar    1  UNL1        0.1384
     30 C          51.0162    6.7119  -32.1118 C.ar    1  UNL1        0.0369
     31 C          52.3486    7.0214  -31.8319 C.ar    1  UNL1        0.0028
     32 C          52.6689    7.8019  -30.7194 C.ar    1  UNL1       -0.0036
     33 C          51.6540    8.2882  -29.8798 C.ar    1  UNL1       -0.0101
     34 C          50.3150    7.9668  -30.1619 C.ar    1  UNL1        0.0331
     35 C          48.2873    6.1061  -32.7664 C.3     1  UNL1        0.2525
     36 O          48.6669    6.8479  -31.6121 O.3     1  UNL1       -0.4714
@<TRIPOS>BOND
     1    35    36    1
     2    36    29    1
     3    29    30   ar
     4    30    31   ar
     5    31    32   ar
     6    32    33   ar
     7    33    28    1
     8    28     1    1
     9     1     2    2
    10     1     3   am
    11     3     4    1
    12     4     5    1
    13     5     6   ar
    14     6     7   ar
    15     7     8   ar
    16     8    12    1
    17    12    13    2
    18    12    14    2
    19    12    15    1
    20    15    17    1
    21    17    18   ar
    22    18    19   ar
    23    19    20   ar
    24    20    22    1
    25    22    23   ar
    26    23    24   ar
    27    24    25   ar
    28    25    26   ar
    29    26    27   ar
    30    20    21   ar
    31     8     9   ar
    32     9    10   ar
    33    10    11    1
    34    33    34   ar
    35    34    29   ar
    36    11     3    1
    37    10     5   ar
    38    21    17   ar
    39    27    22   ar
    40    15    16    1
@<TRIPOS>MOLECULE
*****
 36 40 0 0 0
SMALL
GASTEIGER

@<TRIPOS>ATOM
      1 C          52.8672    9.7409  -28.9742 C.2     1  UNL1        0.2306
      2 O          53.1073   10.7217  -29.7293 O.2     1  UNL1       -0.2745
      3 N          52.0375    9.9254  -27.8150 N.am    1  UNL1       -0.2711
      4 C          51.6540    8.8623  -26.8828 C.3     1  UNL1        0.1202
      5 C          50.8636    9.5842  -25.8586 C.ar    1  UNL1       -0.0046
      6 C          50.3124    9.0687  -24.6859 C.ar    1  UNL1       -0.0015
      7 C          49.6916    9.9535  -23.7911 C.ar    1  UNL1        0.0199
      8 C          49.6388   11.3348  -24.0740 C.ar    1  UNL1        0.1249
      9 C          50.1864   11.8262  -25.2749 C.ar    1  UNL1        0.0173
     10 C          50.7908   10.9254  -26.1517 C.ar    1  UNL1       -0.0033
     11 C          51.5123   11.2304  -27.4102 C.3     1  UNL1        0.1202
     12 S          49.0225   12.4458  -22.8541 S.O2    1  UNL1        0.0748
     13 O          49.4821   12.0314  -21.4844 O.2     1  UNL1       -0.1499
     14 O          49.5455   13.8230  -23.1496 O.2     1  UNL1       -0.1499
     15 N          47.2881   12.4669  -22.8877 N.pl3   1  UNL1       -0.1962
     16 H          46.7746   12.6020  -21.9887 H       1  UNL1        0.1754
     17 C          46.5458   12.3125  -24.1016 C.ar    1  UNL1        0.1899
     18 C          45.1816   12.4179  -24.2374 C.ar    1  UNL1        0.1594
     19 N          44.9040   12.2641  -25.5459 N.ar    1  UNL1       -0.1433
     20 N          46.0667   12.0732  -26.1580 N.ar    1  UNL1       -0.1466
     21 N          47.0862   12.0952  -25.3117 N.ar    1  UNL1       -0.1299
     22 C          46.2123   11.9011  -27.5795 C.ar    1  UNL1        0.1029
     23 C          45.9716   12.9724  -28.4589 C.ar    1  UNL1        0.0209
     24 C          46.1207   12.8013  -29.8389 C.ar    1  UNL1        0.0016
     25 C          46.5127   11.5635  -30.3540 C.ar    1  UNL1        0.0001
     26 C          46.7604   10.4939  -29.4904 C.ar    1  UNL1        0.0016
     27 C          46.6090   10.6596  -28.1107 C.ar    1  UNL1        0.0209
     28 C          53.4974    8.4122  -29.2878 C.3     1  UNL1        0.1117
     29 C          50.6731    7.0726  -31.4888 C.ar    1  UNL1        0.1384
     30 C          51.4033    6.4484  -32.5063 C.ar    1  UNL1        0.0369
     31 C          52.7993    6.4553  -32.4829 C.ar    1  UNL1        0.0028
     32 C          53.4805    7.0861  -31.4400 C.ar    1  UNL1       -0.0036
     33 C          52.7676    7.7251  -30.4130 C.ar    1  UNL1       -0.0101
     34 C          51.3622    7.7082  -30.4375 C.ar    1  UNL1        0.0331
     35 C          48.5297    6.1820  -32.4167 C.3     1  UNL1        0.2525
     36 O          49.2726    7.0445  -31.5618 O.3     1  UNL1       -0.4714
@<TRIPOS>BOND
     1    35    36    1
     2    36    29    1
     3    29    30   ar
     4    30    31   ar
     5    31    32   ar
     6    32    33   ar
     7    33    28    1
     8    28     1    1
     9     1     2    2
    10     1     3   am
    11     3     4    1
    12     4     5    1
    13     5     6   ar
    14     6     7   ar
    15     7     8   ar
    16     8    12    1
    17    12    13    2
    18    12    14    2
    19    12    15    1
    20    15    17    1
    21    17    18   ar
    22    18    19   ar
    23    19    20   ar
    24    20    22    1
    25    22    23   ar
    26    23    24   ar
    27    24    25   ar
    28    25    26   ar
    29    26    27   ar
    30    20    21   ar
    31     8     9   ar
    32     9    10   ar
    33    10    11    1
    34    33    34   ar
    35    34    29   ar
    36    11     3    1
    37    10     5   ar
    38    21    17   ar
    39    27    22   ar
    40    15    16    1
@<TRIPOS>MOLECULE
*****
 36 40 0 0 0
SMALL
GASTEIGER

@<TRIPOS>ATOM
      1 C          50.8816   10.0881  -25.6717 C.2     1  UNL1        0.2306
      2 O          50.2822    9.1962  -25.0120 O.2     1  UNL1       -0.2745
      3 N          50.4905   11.4632  -25.5225 N.am    1  UNL1       -0.2711
      4 C          51.1298   12.5933  -26.2009 C.3     1  UNL1        0.1202
      5 C          50.3220   13.7522  -25.7546 C.ar    1  UNL1       -0.0046
      6 C          50.4420   15.0820  -26.1572 C.ar    1  UNL1       -0.0015
      7 C          49.4973   16.0107  -25.6946 C.ar    1  UNL1        0.0199
      8 C          48.4459   15.5985  -24.8487 C.ar    1  UNL1        0.1249
      9 C          48.3594   14.2530  -24.4419 C.ar    1  UNL1        0.0173
     10 C          49.3153   13.3509  -24.9087 C.ar    1  UNL1       -0.0033
     11 C          49.3604   11.8850  -24.6930 C.3     1  UNL1        0.1202
     12 S          47.1704   16.7399  -24.4332 S.O2    1  UNL1        0.0748
     13 O          46.8976   16.7096  -22.9554 O.2     1  UNL1       -0.1499
     14 O          47.6166   18.1216  -24.8198 O.2     1  UNL1       -0.1499
     15 N          45.7131   16.3435  -25.2869 N.pl3   1  UNL1       -0.1962
     16 H          44.7977   16.5950  -24.8522 H       1  UNL1        0.1754
     17 C          45.7277   15.6932  -26.5617 C.ar    1  UNL1        0.1899
     18 C          45.5680   16.3012  -27.7846 C.ar    1  UNL1        0.1594
     19 N          45.7085   15.3437  -28.7207 N.ar    1  UNL1       -0.1433
     20 N          45.9414   14.2106  -28.0690 N.ar    1  UNL1       -0.1466
     21 N          45.9592   14.3846  -26.7554 N.ar    1  UNL1       -0.1299
     22 C          46.1859   12.9456  -28.7105 C.ar    1  UNL1        0.1029
     23 C          46.0453   12.8101  -30.1037 C.ar    1  UNL1        0.0209
     24 C          46.2902   11.5801  -30.7225 C.ar    1  UNL1        0.0016
     25 C          46.6792   10.4763  -29.9600 C.ar    1  UNL1        0.0001
     26 C          46.8281   10.6000  -28.5766 C.ar    1  UNL1        0.0016
     27 C          46.5806   11.8267  -27.9536 C.ar    1  UNL1        0.0209
     28 C          51.9623    9.6770  -26.6328 C.3     1  UNL1        0.1117
     29 C          51.6369    8.1871  -30.1385 C.ar    1  UNL1        0.1384
     30 C          50.2745    7.8692  -30.1661 C.ar    1  UNL1        0.0369
     31 C          49.4624    8.1363  -29.0621 C.ar    1  UNL1        0.0028
     32 C          50.0045    8.7257  -27.9184 C.ar    1  UNL1       -0.0036
     33 C          51.3706    9.0457  -27.8666 C.ar    1  UNL1       -0.0101
     34 C          52.1818    8.7819  -28.9838 C.ar    1  UNL1        0.0331
     35 C          52.0399    6.9573  -32.2772 C.3     1  UNL1        0.2525
     36 O          52.4119    7.8921  -31.2699 O.3     1  UNL1       -0.4714
@<TRIPOS>BOND
     1    35    36    1
     2    36    29    1
     3    29    30   ar
     4    30    31   ar
     5    31    32   ar
     6    32    33   ar
     7    33    28    1
     8    28     1    1
     9     1     2    2
    10     1     3   am
    11     3     4    1
    12     4     5    1
    13     5     6   ar
    14     6     7   ar
    15     7     8   ar
    16     8    12    1
    17    12    13    2
    18    12    14    2
    19    12    15    1
    20    15    17    1
    21    17    18   ar
    22    18    19   ar
    23    19    20   ar
    24    20    22    1
    25    22    23   ar
    26    23    24   ar
    27    24    25   ar
    28    25    26   ar
    29    26    27   ar
    30    20    21   ar
    31     8     9   ar
    32     9    10   ar
    33    10    11    1
    34    33    34   ar
    35    34    29   ar
    36    11     3    1
    37    10     5   ar
    38    21    17   ar
    39    27    22   ar
    40    15    16    1
@<TRIPOS>MOLECULE
*****
 36 40 0 0 0
SMALL
GASTEIGER

@<TRIPOS>ATOM
      1 C          52.0479   10.3100  -27.3909 C.2     1  UNL1        0.2306
      2 O          52.4141   11.4759  -27.7015 O.2     1  UNL1       -0.2745
      3 N          51.4440   10.0750  -26.1078 N.am    1  UNL1       -0.2711
      4 C          50.9432    8.7790  -25.6435 C.3     1  UNL1        0.1202
      5 C          50.4874    9.0707  -24.2644 C.ar    1  UNL1       -0.0046
      6 C          49.9868    8.1721  -23.3228 C.ar    1  UNL1       -0.0015
      7 C          49.7160    8.6391  -22.0276 C.ar    1  UNL1        0.0199
      8 C          49.9570    9.9878  -21.6901 C.ar    1  UNL1        0.1249
      9 C          50.4447   10.8786  -22.6658 C.ar    1  UNL1        0.0173
     10 C          50.6981   10.3919  -23.9481 C.ar    1  UNL1       -0.0033
     11 C          51.3014   11.1183  -25.0908 C.3     1  UNL1        0.1202
     12 S          49.7866   10.5051  -20.0151 S.O2    1  UNL1        0.0748
     13 O          50.0730    9.3639  -19.0799 O.2     1  UNL1       -0.1499
     14 O          50.7681   11.6117  -19.7512 O.2     1  UNL1       -0.1499
     15 N          48.1754   11.0815  -19.7292 N.pl3   1  UNL1       -0.1962
     16 H          47.8288   11.1222  -18.7452 H       1  UNL1        0.1754
     17 C          47.3163   11.5057  -20.7923 C.ar    1  UNL1        0.1899
     18 C          46.1505   12.2221  -20.6566 C.ar    1  UNL1        0.1594
     19 N          45.6897   12.4616  -21.8988 N.ar    1  UNL1       -0.1433
     20 N          46.5554   11.9030  -22.7363 N.ar    1  UNL1       -0.1466
     21 N          47.5561   11.3122  -22.0994 N.ar    1  UNL1       -0.1299
     22 C          46.4456   11.9630  -24.1701 C.ar    1  UNL1        0.1029
     23 C          45.1928   12.1372  -24.7857 C.ar    1  UNL1        0.0209
     24 C          45.0928   12.2011  -26.1793 C.ar    1  UNL1        0.0016
     25 C          46.2390   12.0943  -26.9705 C.ar    1  UNL1        0.0001
     26 C          47.4892   11.9271  -26.3705 C.ar    1  UNL1        0.0016
     27 C          47.5932   11.8590  -24.9781 C.ar    1  UNL1        0.0209
     28 C          52.2977    9.1883  -28.3606 C.3     1  UNL1        0.1117
     29 C          49.8702    7.5101  -30.7908 C.ar    1  UNL1        0.1384
     30 C          48.6488    8.0271  -30.3449 C.ar    1  UNL1        0.0369
     31 C          48.6063    8.9152  -29.2683 C.ar    1  UNL1        0.0028
     32 C          49.7861    9.2969  -28.6266 C.ar    1  UNL1       -0.0036
     33 C          51.0217    8.7842  -29.0529 C.ar    1  UNL1       -0.0101
     34 C          51.0593    7.8966  -30.1422 C.ar    1  UNL1        0.0331
     35 C          48.6777    6.1113  -32.4849 C.3     1  UNL1        0.2525
     36 O          49.8592    6.6155  -31.8712 O.3     1  UNL1       -0.4714
@<TRIPOS>BOND
     1    35    36    1
     2    36    29    1
     3    29    30   ar
     4    30    31   ar
     5    31    32   ar
     6    32    33   ar
     7    33    28    1
     8    28     1    1
     9     1     2    2
    10     1     3   am
    11     3     4    1
    12     4     5    1
    13     5     6   ar
    14     6     7   ar
    15     7     8   ar
    16     8    12    1
    17    12    13    2
    18    12    14    2
    19    12    15    1
    20    15    17    1
    21    17    18   ar
    22    18    19   ar
    23    19    20   ar
    24    20    22    1
    25    22    23   ar
    26    23    24   ar
    27    24    25   ar
    28    25    26   ar
    29    26    27   ar
    30    20    21   ar
    31     8     9   ar
    32     9    10   ar
    33    10    11    1
    34    33    34   ar
    35    34    29   ar
    36    11     3    1
    37    10     5   ar
    38    21    17   ar
    39    27    22   ar
    40    15    16    1
@<TRIPOS>MOLECULE
*****
 36 40 0 0 0
SMALL
GASTEIGER

@<TRIPOS>ATOM
      1 C          45.9993   13.1797  -26.0603 C.2     1  UNL1        0.2306
      2 O          44.8206   13.4673  -25.7170 O.2     1  UNL1       -0.2745
      3 N          46.8450   12.4541  -25.1522 N.am    1  UNL1       -0.2711
      4 C          48.2156   12.0277  -25.4448 C.3     1  UNL1        0.1202
      5 C          48.6443   11.3872  -24.1796 C.ar    1  UNL1       -0.0046
      6 C          49.9003   10.8670  -23.8691 C.ar    1  UNL1       -0.0015
      7 C          50.1303   10.4025  -22.5651 C.ar    1  UNL1        0.0199
      8 C          49.1109   10.4727  -21.5921 C.ar    1  UNL1        0.1249
      9 C          47.8454   10.9850  -21.9378 C.ar    1  UNL1        0.0173
     10 C          47.6393   11.4326  -23.2426 C.ar    1  UNL1       -0.0033
     11 C          46.4330   12.0943  -23.7943 C.3     1  UNL1        0.1202
     12 S          49.4793   10.0581  -19.9204 S.O2    1  UNL1        0.0748
     13 O          48.2129    9.8883  -19.1287 O.2     1  UNL1       -0.1499
     14 O          50.2440    8.7649  -19.9028 O.2     1  UNL1       -0.1499
     15 N          50.4392   11.3069  -19.1931 N.pl3   1  UNL1       -0.1962
     16 H          50.8451   11.1349  -18.2466 H       1  UNL1        0.1754
     17 C          50.6951   12.5530  -19.8488 C.ar    1  UNL1        0.1899
     18 C          51.7504   13.3988  -19.6006 C.ar    1  UNL1        0.1594
     19 N          51.6485   14.4203  -20.4719 N.ar    1  UNL1       -0.1433
     20 N          50.5682   14.1829  -21.2065 N.ar    1  UNL1       -0.1466
     21 N          49.9630   13.0575  -20.8554 N.ar    1  UNL1       -0.1299
     22 C          50.1241   15.0257  -22.2853 C.ar    1  UNL1        0.1029
     23 C          51.0233   15.4471  -23.2817 C.ar    1  UNL1        0.0209
     24 C          50.5848   16.2609  -24.3312 C.ar    1  UNL1        0.0016
     25 C          49.2477   16.6595  -24.3983 C.ar    1  UNL1        0.0001
     26 C          48.3442   16.2425  -23.4181 C.ar    1  UNL1        0.0016
     27 C          48.7790   15.4321  -22.3654 C.ar    1  UNL1        0.0209
     28 C          46.4999   13.6474  -27.3988 C.3     1  UNL1        0.1117
     29 C          46.0902   11.7517  -30.6933 C.ar    1  UNL1        0.1384
     30 C          46.3901   10.4466  -30.2874 C.ar    1  UNL1        0.0369
     31 C          46.7196   10.1765  -28.9577 C.ar    1  UNL1        0.0028
     32 C          46.7516   11.2095  -28.0190 C.ar    1  UNL1       -0.0036
     33 C          46.4616   12.5276  -28.4065 C.ar    1  UNL1       -0.0101
     34 C          46.1228   12.7924  -29.7447 C.ar    1  UNL1        0.0331
     35 C          45.6574   13.2593  -32.6398 C.3     1  UNL1        0.2525
     36 O          45.7726   11.9725  -32.0417 O.3     1  UNL1       -0.4714
@<TRIPOS>BOND
     1    35    36    1
     2    36    29    1
     3    29    30   ar
     4    30    31   ar
     5    31    32   ar
     6    32    33   ar
     7    33    28    1
     8    28     1    1
     9     1     2    2
    10     1     3   am
    11     3     4    1
    12     4     5    1
    13     5     6   ar
    14     6     7   ar
    15     7     8   ar
    16     8    12    1
    17    12    13    2
    18    12    14    2
    19    12    15    1
    20    15    17    1
    21    17    18   ar
    22    18    19   ar
    23    19    20   ar
    24    20    22    1
    25    22    23   ar
    26    23    24   ar
    27    24    25   ar
    28    25    26   ar
    29    26    27   ar
    30    20    21   ar
    31     8     9   ar
    32     9    10   ar
    33    10    11    1
    34    33    34   ar
    35    34    29   ar
    36    11     3    1
    37    10     5   ar
    38    21    17   ar
    39    27    22   ar
    40    15    16    1
@<TRIPOS>MOLECULE
*****
 36 40 0 0 0
SMALL
GASTEIGER

@<TRIPOS>ATOM
      1 C          52.3998    9.5818  -29.2399 C.2     1  UNL1        0.2306
      2 O          53.2116   10.1669  -30.0072 O.2     1  UNL1       -0.2745
      3 N          52.0882   10.1622  -27.9623 N.am    1  UNL1       -0.2711
      4 C          51.1364    9.6032  -26.9992 C.3     1  UNL1        0.1202
      5 C          51.2340   10.5358  -25.8522 C.ar    1  UNL1       -0.0046
      6 C          50.5953   10.4387  -24.6164 C.ar    1  UNL1       -0.0015
      7 C          50.9142   11.3751  -23.6211 C.ar    1  UNL1        0.0199
      8 C          51.8687   12.3841  -23.8696 C.ar    1  UNL1        0.1249
      9 C          52.4846   12.4710  -25.1332 C.ar    1  UNL1        0.0173
     10 C          52.1445   11.5335  -26.1083 C.ar    1  UNL1       -0.0033
     11 C          52.7344   11.3755  -27.4591 C.3     1  UNL1        0.1202
     12 S          52.3876   13.4292  -22.5503 S.O2    1  UNL1        0.0748
     13 O          52.0173   12.8264  -21.2242 O.2     1  UNL1       -0.1499
     14 O          53.8807   13.5835  -22.6176 O.2     1  UNL1       -0.1499
     15 N          51.6388   14.9877  -22.6934 N.pl3   1  UNL1       -0.1962
     16 H          52.1308   15.8151  -22.2890 H       1  UNL1        0.1754
     17 C          50.3805   15.1730  -23.3495 C.ar    1  UNL1        0.1899
     18 C          50.0614   16.1878  -24.2208 C.ar    1  UNL1        0.1594
     19 N          48.8070   15.9558  -24.6515 N.ar    1  UNL1       -0.1433
     20 N          48.4022   14.8425  -24.0519 N.ar    1  UNL1       -0.1466
     21 N          49.3319   14.3395  -23.2526 N.ar    1  UNL1       -0.1299
     22 C          47.1195   14.2278  -24.2708 C.ar    1  UNL1        0.1029
     23 C          46.1688   14.8346  -25.1116 C.ar    1  UNL1        0.0209
     24 C          44.9261   14.2296  -25.3257 C.ar    1  UNL1        0.0016
     25 C          44.6211   13.0152  -24.7067 C.ar    1  UNL1        0.0001
     26 C          45.5592   12.4001  -23.8744 C.ar    1  UNL1        0.0016
     27 C          46.8010   13.0031  -23.6547 C.ar    1  UNL1        0.0209
     28 C          51.8152    8.2649  -29.6700 C.3     1  UNL1        0.1117
     29 C          54.9635    6.5195  -30.9573 C.ar    1  UNL1        0.1384
     30 C          54.5509    6.1404  -32.2395 C.ar    1  UNL1        0.0369
     31 C          53.2656    6.4481  -32.6900 C.ar    1  UNL1        0.0028
     32 C          52.3790    7.1398  -31.8625 C.ar    1  UNL1       -0.0036
     33 C          52.7697    7.5230  -30.5695 C.ar    1  UNL1       -0.0101
     34 C          54.0675    7.2176  -30.1242 C.ar    1  UNL1        0.0331
     35 C          57.2885    7.1257  -30.2676 C.3     1  UNL1        0.2525
     36 O          56.2618    6.1803  -30.5488 O.3     1  UNL1       -0.4714
@<TRIPOS>BOND
     1    35    36    1
     2    36    29    1
     3    29    30   ar
     4    30    31   ar
     5    31    32   ar
     6    32    33   ar
     7    33    28    1
     8    28     1    1
     9     1     2    2
    10     1     3   am
    11     3     4    1
    12     4     5    1
    13     5     6   ar
    14     6     7   ar
    15     7     8   ar
    16     8    12    1
    17    12    13    2
    18    12    14    2
    19    12    15    1
    20    15    17    1
    21    17    18   ar
    22    18    19   ar
    23    19    20   ar
    24    20    22    1
    25    22    23   ar
    26    23    24   ar
    27    24    25   ar
    28    25    26   ar
    29    26    27   ar
    30    20    21   ar
    31     8     9   ar
    32     9    10   ar
    33    10    11    1
    34    33    34   ar
    35    34    29   ar
    36    11     3    1
    37    10     5   ar
    38    21    17   ar
    39    27    22   ar
    40    15    16    1
