@<TRIPOS>MOLECULE
*****
 35 38 0 0 0
SMALL
GASTEIGER

@<TRIPOS>ATOM
      1 C          46.0212   12.1253  -29.8942 C.ar    1  UNL1        0.1718
      2 C          46.4082   11.0724  -29.0502 C.ar    1  UNL1        0.0400
      3 C          46.7995   11.3270  -27.7387 C.ar    1  UNL1        0.0030
      4 C          46.8464   12.6394  -27.2459 C.ar    1  UNL1       -0.0015
      5 C          46.5283   13.7179  -28.1101 C.ar    1  UNL1        0.0145
      6 C          46.0564   13.4449  -29.4201 C.ar    1  UNL1        0.1636
      7 O          45.5974   14.4517  -30.2747 O.3     1  UNL1       -0.5031
      8 C          46.7147   15.1315  -27.6020 C.3     1  UNL1        0.0299
      9 C          45.6126   15.5259  -26.6080 C.3     1  UNL1        0.0091
     10 C          45.2916   14.4407  -25.5612 C.3     1  UNL1        0.0227
     11 C          46.5310   13.7426  -25.0253 C.2     1  UNL1       -0.0398
     12 C          47.2162   12.8642  -25.8143 C.2     1  UNL1       -0.0076
     13 H          45.4123   15.4005  -29.9810 H       1  UNL1        0.2923
     14 C          48.3841   12.1193  -25.2961 C.ar    1  UNL1        0.0056
     15 C          48.2105   11.0631  -24.3986 C.ar    1  UNL1        0.0402
     16 C          49.3201   10.3616  -23.8885 C.ar    1  UNL1        0.1754
     17 C          50.6265   10.7434  -24.2939 C.ar    1  UNL1        0.2061
     18 C          50.7919   11.7989  -25.2072 C.ar    1  UNL1        0.1754
     19 C          49.6682   12.4704  -25.7159 C.ar    1  UNL1        0.0402
     20 O          49.1459    9.3020  -22.9844 O.3     1  UNL1       -0.4683
     21 C          49.4002    9.3724  -21.5850 C.3     1  UNL1        0.2526
     22 O          51.8015   10.1237  -23.8268 O.3     1  UNL1       -0.4654
     23 C          52.4246    8.9665  -24.3728 C.3     1  UNL1        0.2528
     24 O          52.0978   12.1574  -25.5791 O.3     1  UNL1       -0.4683
     25 C          52.7255   11.7713  -26.7978 C.3     1  UNL1        0.2526
     26 C          46.0685   12.6009  -32.3518 C.3     1  UNL1        0.2526
     27 O          45.5845   11.9011  -31.2099 O.3     1  UNL1       -0.4684
     28 C          46.9140   13.9881  -23.5703 C.3     1  UNL1        0.0488
     29 C          48.3079   14.5661  -23.4129 C.ar    1  UNL1       -0.0119
     30 C          48.7375   15.5764  -24.2941 C.ar    1  UNL1       -0.0035
     31 C          50.0303   16.0963  -24.2080 C.ar    1  UNL1       -0.0003
     32 C          50.9042   15.6364  -23.2240 C.ar    1  UNL1        0.0005
     33 C          50.4795   14.6727  -22.3090 C.ar    1  UNL1        0.0064
     34 C          49.1844   14.1444  -22.3821 C.ar    1  UNL1        0.0309
     35 BR         48.6751   12.8840  -21.0260 Br      1  UNL1       -0.0493
@<TRIPOS>BOND
     1    26    27    1
     2    27     1    1
     3     1     2   ar
     4     2     3   ar
     5     3     4   ar
     6     4     5   ar
     7     5     6   ar
     8     6     7    1
     9     5     8    1
    10     8     9    1
    11     9    10    1
    12    10    11    1
    13    11    28    1
    14    28    29    1
    15    29    30   ar
    16    30    31   ar
    17    31    32   ar
    18    32    33   ar
    19    33    34   ar
    20    34    35    1
    21    11    12    2
    22    12    14    1
    23    14    15   ar
    24    15    16   ar
    25    16    20    1
    26    20    21    1
    27    16    17   ar
    28    17    22    1
    29    22    23    1
    30    17    18   ar
    31    18    24    1
    32    24    25    1
    33    18    19   ar
    34     6     1   ar
    35    34    29   ar
    36    19    14   ar
    37    12     4    1
    38     7    13    1
@<TRIPOS>MOLECULE
*****
 35 38 0 0 0
SMALL
GASTEIGER

@<TRIPOS>ATOM
      1 C          46.0368   12.1614  -29.8321 C.ar    1  UNL1        0.1718
      2 C          46.4416   11.1182  -28.9845 C.ar    1  UNL1        0.0400
      3 C          46.8378   11.3849  -27.6769 C.ar    1  UNL1        0.0030
      4 C          46.8718   12.7006  -27.1918 C.ar    1  UNL1       -0.0015
      5 C          46.5354   13.7703  -28.0601 C.ar    1  UNL1        0.0145
      6 C          46.0589   13.4841  -29.3656 C.ar    1  UNL1        0.1636
      7 O          45.5826   14.4804  -30.2231 O.3     1  UNL1       -0.5031
      8 C          46.7078   15.1889  -27.5612 C.3     1  UNL1        0.0299
      9 C          45.6071   15.5756  -26.5626 C.3     1  UNL1        0.0091
     10 C          45.3056   14.4927  -25.5078 C.3     1  UNL1        0.0227
     11 C          46.5566   13.8126  -24.9755 C.2     1  UNL1       -0.0398
     12 C          47.2475   12.9381  -25.7637 C.2     1  UNL1       -0.0076
     13 H          45.3878   15.4286  -29.9336 H       1  UNL1        0.2923
     14 C          48.4275   12.2103  -25.2486 C.ar    1  UNL1        0.0056
     15 C          49.7161   12.5815  -25.6395 C.ar    1  UNL1        0.0402
     16 C          50.8424   11.8810  -25.1656 C.ar    1  UNL1        0.1754
     17 C          50.6546   10.7832  -24.2847 C.ar    1  UNL1        0.2061
     18 C          49.3554   10.4241  -23.8860 C.ar    1  UNL1        0.1754
     19 C          48.2499   11.1505  -24.3577 C.ar    1  UNL1        0.0402
     20 O          52.1372   12.2522  -25.5607 O.3     1  UNL1       -0.4683
     21 C          52.7730   11.8397  -26.7663 C.3     1  UNL1        0.2526
     22 O          51.7095   10.0038  -23.7723 O.3     1  UNL1       -0.4654
     23 C          52.3980    8.9583  -24.4492 C.3     1  UNL1        0.2528
     24 O          49.2047    9.3273  -23.0221 O.3     1  UNL1       -0.4683
     25 C          49.2478    9.4065  -21.6008 C.3     1  UNL1        0.2526
     26 C          46.2154   12.4506  -32.3125 C.3     1  UNL1        0.2526
     27 O          45.5948   11.9245  -31.1438 O.3     1  UNL1       -0.4684
     28 C          46.9454   14.0710  -23.5243 C.3     1  UNL1        0.0488
     29 C          48.3450   14.6379  -23.3768 C.ar    1  UNL1       -0.0119
     30 C          48.7733   15.6509  -24.2556 C.ar    1  UNL1       -0.0035
     31 C          50.0706   16.1607  -24.1788 C.ar    1  UNL1       -0.0003
     32 C          50.9507   15.6880  -23.2063 C.ar    1  UNL1        0.0005
     33 C          50.5279   14.7214  -22.2936 C.ar    1  UNL1        0.0064
     34 C          49.2284   14.2030  -22.3575 C.ar    1  UNL1        0.0309
     35 BR         48.7231   12.9374  -21.0046 Br      1  UNL1       -0.0493
@<TRIPOS>BOND
     1    26    27    1
     2    27     1    1
     3     1     2   ar
     4     2     3   ar
     5     3     4   ar
     6     4     5   ar
     7     5     6   ar
     8     6     7    1
     9     5     8    1
    10     8     9    1
    11     9    10    1
    12    10    11    1
    13    11    28    1
    14    28    29    1
    15    29    30   ar
    16    30    31   ar
    17    31    32   ar
    18    32    33   ar
    19    33    34   ar
    20    34    35    1
    21    11    12    2
    22    12    14    1
    23    14    15   ar
    24    15    16   ar
    25    16    20    1
    26    20    21    1
    27    16    17   ar
    28    17    22    1
    29    22    23    1
    30    17    18   ar
    31    18    24    1
    32    24    25    1
    33    18    19   ar
    34     6     1   ar
    35    34    29   ar
    36    19    14   ar
    37    12     4    1
    38     7    13    1
@<TRIPOS>MOLECULE
*****
 35 38 0 0 0
SMALL
GASTEIGER

@<TRIPOS>ATOM
      1 C          50.3412   17.5402  -25.2676 C.ar    1  UNL1        0.1718
      2 C          50.9131   16.2582  -25.2837 C.ar    1  UNL1        0.0400
      3 C          50.1265   15.1380  -25.5375 C.ar    1  UNL1        0.0030
      4 C          48.7456   15.2639  -25.7490 C.ar    1  UNL1       -0.0015
      5 C          48.1434   16.5450  -25.6630 C.ar    1  UNL1        0.0145
      6 C          48.9629   17.6890  -25.4812 C.ar    1  UNL1        0.1636
      7 O          48.4517   18.9896  -25.5233 O.3     1  UNL1       -0.5031
      8 C          46.6362   16.6440  -25.7594 C.3     1  UNL1        0.0299
      9 C          46.1468   16.4460  -27.2015 C.3     1  UNL1        0.0091
     10 C          46.8215   15.2726  -27.9394 C.3     1  UNL1        0.0227
     11 C          47.0055   14.0434  -27.0643 C.2     1  UNL1       -0.0398
     12 C          47.9471   14.0423  -26.0760 C.2     1  UNL1       -0.0076
     13 H          47.5214   19.2205  -25.8428 H       1  UNL1        0.2923
     14 C          48.1949   12.8370  -25.2554 C.ar    1  UNL1        0.0056
     15 C          49.2231   11.9517  -25.5878 C.ar    1  UNL1        0.0402
     16 C          49.4525   10.7934  -24.8201 C.ar    1  UNL1        0.1754
     17 C          48.6202   10.5292  -23.7002 C.ar    1  UNL1        0.2061
     18 C          47.5961   11.4316  -23.3648 C.ar    1  UNL1        0.1754
     19 C          47.3998   12.5893  -24.1353 C.ar    1  UNL1        0.0402
     20 O          50.4838    9.9023  -25.1557 O.3     1  UNL1       -0.4683
     21 C          51.8451   10.0429  -24.7617 C.3     1  UNL1        0.2526
     22 O          48.7502    9.3905  -22.8820 O.3     1  UNL1       -0.4654
     23 C          49.5544    9.2728  -21.7138 C.3     1  UNL1        0.2528
     24 O          46.7851   11.1348  -22.2574 O.3     1  UNL1       -0.4683
     25 C          46.6752   11.9501  -21.0949 C.3     1  UNL1        0.2526
     26 C          52.4311   18.6976  -24.5186 C.3     1  UNL1        0.2526
     27 O          51.1111   18.6948  -25.0529 O.3     1  UNL1       -0.4684
     28 C          46.1771   12.8060  -27.3906 C.3     1  UNL1        0.0488
     29 C          46.1600   12.4768  -28.8715 C.ar    1  UNL1       -0.0119
     30 C          45.6068   13.4030  -29.7760 C.ar    1  UNL1       -0.0035
     31 C          45.5313   13.1114  -31.1391 C.ar    1  UNL1       -0.0003
     32 C          46.0320   11.9042  -31.6242 C.ar    1  UNL1        0.0005
     33 C          46.6307   10.9960  -30.7506 C.ar    1  UNL1        0.0064
     34 C          46.7155   11.2767  -29.3811 C.ar    1  UNL1        0.0309
     35 BR         47.6302    9.9969  -28.2800 Br      1  UNL1       -0.0493
@<TRIPOS>BOND
     1    26    27    1
     2    27     1    1
     3     1     2   ar
     4     2     3   ar
     5     3     4   ar
     6     4     5   ar
     7     5     6   ar
     8     6     7    1
     9     5     8    1
    10     8     9    1
    11     9    10    1
    12    10    11    1
    13    11    28    1
    14    28    29    1
    15    29    30   ar
    16    30    31   ar
    17    31    32   ar
    18    32    33   ar
    19    33    34   ar
    20    34    35    1
    21    11    12    2
    22    12    14    1
    23    14    15   ar
    24    15    16   ar
    25    16    20    1
    26    20    21    1
    27    16    17   ar
    28    17    22    1
    29    22    23    1
    30    17    18   ar
    31    18    24    1
    32    24    25    1
    33    18    19   ar
    34     6     1   ar
    35    34    29   ar
    36    19    14   ar
    37    12     4    1
    38     7    13    1
@<TRIPOS>MOLECULE
*****
 35 38 0 0 0
SMALL
GASTEIGER

@<TRIPOS>ATOM
      1 C          50.3060   17.5343  -25.2801 C.ar    1  UNL1        0.1718
      2 C          50.8739   16.2506  -25.2998 C.ar    1  UNL1        0.0400
      3 C          50.0851   15.1342  -25.5630 C.ar    1  UNL1        0.0030
      4 C          48.7056   15.2655  -25.7807 C.ar    1  UNL1       -0.0015
      5 C          48.1071   16.5481  -25.6913 C.ar    1  UNL1        0.0145
      6 C          48.9292   17.6885  -25.4998 C.ar    1  UNL1        0.1636
      7 O          48.4223   18.9910  -25.5380 O.3     1  UNL1       -0.5031
      8 C          46.6006   16.6523  -25.7947 C.3     1  UNL1        0.0299
      9 C          46.1178   16.4629  -27.2402 C.3     1  UNL1        0.0091
     10 C          46.7924   15.2911  -27.9805 C.3     1  UNL1        0.0227
     11 C          46.9683   14.0570  -27.1106 C.2     1  UNL1       -0.0398
     12 C          47.9050   14.0480  -26.1177 C.2     1  UNL1       -0.0076
     13 H          47.4943   19.2263  -25.8609 H       1  UNL1        0.2923
     14 C          48.1449   12.8379  -25.3019 C.ar    1  UNL1        0.0056
     15 C          47.3361   12.5542  -24.1989 C.ar    1  UNL1        0.0402
     16 C          47.5708   11.4126  -23.4082 C.ar    1  UNL1        0.1754
     17 C          48.6477   10.5490  -23.7418 C.ar    1  UNL1        0.2061
     18 C          49.4489   10.8347  -24.8608 C.ar    1  UNL1        0.1754
     19 C          49.1825   11.9693  -25.6443 C.ar    1  UNL1        0.0402
     20 O          46.7599   11.1290  -22.2981 O.3     1  UNL1       -0.4683
     21 C          46.6542   11.9433  -21.1346 C.3     1  UNL1        0.2526
     22 O          48.9813    9.3963  -23.0051 O.3     1  UNL1       -0.4654
     23 C          49.6464    9.3564  -21.7475 C.3     1  UNL1        0.2528
     24 O          50.5116    9.9655  -25.1564 O.3     1  UNL1       -0.4683
     25 C          51.0130    9.7188  -26.4664 C.3     1  UNL1        0.2526
     26 C          52.4007   18.6805  -24.5273 C.3     1  UNL1        0.2526
     27 O          51.0784   18.6854  -25.0559 O.3     1  UNL1       -0.4684
     28 C          46.1376   12.8238  -27.4471 C.3     1  UNL1        0.0488
     29 C          46.1332   12.4975  -28.9288 C.ar    1  UNL1       -0.0119
     30 C          45.6015   13.4318  -29.8377 C.ar    1  UNL1       -0.0035
     31 C          45.5379   13.1436  -31.2022 C.ar    1  UNL1       -0.0003
     32 C          46.0295   11.9312  -31.6838 C.ar    1  UNL1        0.0005
     33 C          46.6072   11.0143  -30.8052 C.ar    1  UNL1        0.0064
     34 C          46.6799   11.2916  -29.4343 C.ar    1  UNL1        0.0309
     35 BR         47.5666    9.9989  -28.3254 Br      1  UNL1       -0.0493
@<TRIPOS>BOND
     1    26    27    1
     2    27     1    1
     3     1     2   ar
     4     2     3   ar
     5     3     4   ar
     6     4     5   ar
     7     5     6   ar
     8     6     7    1
     9     5     8    1
    10     8     9    1
    11     9    10    1
    12    10    11    1
    13    11    28    1
    14    28    29    1
    15    29    30   ar
    16    30    31   ar
    17    31    32   ar
    18    32    33   ar
    19    33    34   ar
    20    34    35    1
    21    11    12    2
    22    12    14    1
    23    14    15   ar
    24    15    16   ar
    25    16    20    1
    26    20    21    1
    27    16    17   ar
    28    17    22    1
    29    22    23    1
    30    17    18   ar
    31    18    24    1
    32    24    25    1
    33    18    19   ar
    34     6     1   ar
    35    34    29   ar
    36    19    14   ar
    37    12     4    1
    38     7    13    1
@<TRIPOS>MOLECULE
*****
 35 38 0 0 0
SMALL
GASTEIGER

@<TRIPOS>ATOM
      1 C          48.1583   10.7851  -21.7861 C.ar    1  UNL1        0.1718
      2 C          48.2755   10.3120  -23.1026 C.ar    1  UNL1        0.0400
      3 C          48.3250   11.2034  -24.1708 C.ar    1  UNL1        0.0030
      4 C          48.2259   12.5861  -23.9566 C.ar    1  UNL1       -0.0015
      5 C          48.0338   13.0730  -22.6385 C.ar    1  UNL1        0.0145
      6 C          48.0623   12.1643  -21.5492 C.ar    1  UNL1        0.1636
      7 O          48.0157   12.5902  -20.2184 O.3     1  UNL1       -0.5031
      8 C          47.7939   14.5546  -22.4423 C.3     1  UNL1        0.0299
      9 C          49.0864   15.3654  -22.6165 C.3     1  UNL1        0.0091
     10 C          49.9322   14.9471  -23.8355 C.3     1  UNL1        0.0227
     11 C          49.0954   14.6486  -25.0690 C.2     1  UNL1       -0.0398
     12 C          48.3420   13.5117  -25.1256 C.2     1  UNL1       -0.0076
     13 H          48.1244   13.5522  -19.9294 H       1  UNL1        0.2923
     14 C          47.5731   13.1620  -26.3396 C.ar    1  UNL1        0.0056
     15 C          47.5184   11.8403  -26.7883 C.ar    1  UNL1        0.0402
     16 C          46.8021   11.5042  -27.9535 C.ar    1  UNL1        0.1754
     17 C          46.1353   12.5291  -28.6758 C.ar    1  UNL1        0.2061
     18 C          46.1846   13.8545  -28.2105 C.ar    1  UNL1        0.1754
     19 C          46.8900   14.1607  -27.0354 C.ar    1  UNL1        0.0402
     20 O          46.7495   10.1765  -28.4060 O.3     1  UNL1       -0.4683
     21 C          47.5749    9.6292  -29.4294 C.3     1  UNL1        0.2526
     22 O          45.4119   12.3038  -29.8628 O.3     1  UNL1       -0.4654
     23 C          45.8473   12.5862  -31.1879 C.3     1  UNL1        0.2528
     24 O          45.5227   14.8448  -28.9543 O.3     1  UNL1       -0.4683
     25 C          45.3029   16.1791  -28.5075 C.3     1  UNL1        0.2526
     26 C          49.3079    9.4390  -20.0156 C.3     1  UNL1        0.2526
     27 O          48.1439    9.9165  -20.6827 O.3     1  UNL1       -0.4684
     28 C          49.2039   15.6042  -26.2518 C.3     1  UNL1        0.0488
     29 C          48.7177   17.0048  -25.9297 C.ar    1  UNL1       -0.0119
     30 C          47.3821   17.1941  -25.5271 C.ar    1  UNL1       -0.0035
     31 C          46.8889   18.4745  -25.2698 C.ar    1  UNL1       -0.0003
     32 C          47.7279   19.5822  -25.3825 C.ar    1  UNL1        0.0005
     33 C          49.0680   19.4096  -25.7299 C.ar    1  UNL1        0.0064
     34 C          49.5767   18.1306  -25.9884 C.ar    1  UNL1        0.0309
     35 BR         51.4521   17.9966  -26.3786 Br      1  UNL1       -0.0493
@<TRIPOS>BOND
     1    26    27    1
     2    27     1    1
     3     1     2   ar
     4     2     3   ar
     5     3     4   ar
     6     4     5   ar
     7     5     6   ar
     8     6     7    1
     9     5     8    1
    10     8     9    1
    11     9    10    1
    12    10    11    1
    13    11    28    1
    14    28    29    1
    15    29    30   ar
    16    30    31   ar
    17    31    32   ar
    18    32    33   ar
    19    33    34   ar
    20    34    35    1
    21    11    12    2
    22    12    14    1
    23    14    15   ar
    24    15    16   ar
    25    16    20    1
    26    20    21    1
    27    16    17   ar
    28    17    22    1
    29    22    23    1
    30    17    18   ar
    31    18    24    1
    32    24    25    1
    33    18    19   ar
    34     6     1   ar
    35    34    29   ar
    36    19    14   ar
    37    12     4    1
    38     7    13    1
@<TRIPOS>MOLECULE
*****
 35 38 0 0 0
SMALL
GASTEIGER

@<TRIPOS>ATOM
      1 C          45.4690   12.0950  -19.4017 C.ar    1  UNL1        0.1718
      2 C          44.9473   12.1201  -20.7047 C.ar    1  UNL1        0.0400
      3 C          45.7574   11.8151  -21.7950 C.ar    1  UNL1        0.0030
      4 C          47.1148   11.5096  -21.6171 C.ar    1  UNL1       -0.0015
      5 C          47.6715   11.5522  -20.3134 C.ar    1  UNL1        0.0145
      6 C          46.8228   11.7875  -19.2010 C.ar    1  UNL1        0.1636
      7 O          47.2794   11.7084  -17.8819 O.3     1  UNL1       -0.5031
      8 C          49.1638   11.3529  -20.1570 C.3     1  UNL1        0.0299
      9 C          49.5610    9.8811  -20.3424 C.3     1  UNL1        0.0091
     10 C          48.8834    9.1929  -21.5439 C.3     1  UNL1        0.0227
     11 C          48.8071   10.0807  -22.7755 C.2     1  UNL1       -0.0398
     12 C          47.9357   11.1309  -22.8085 C.2     1  UNL1       -0.0076
     13 H          48.1762   11.3258  -17.6169 H       1  UNL1        0.2923
     14 C          47.7911   11.9685  -24.0189 C.ar    1  UNL1        0.0056
     15 C          48.3628   13.2419  -24.0727 C.ar    1  UNL1        0.0402
     16 C          48.2136   14.0507  -25.2160 C.ar    1  UNL1        0.1754
     17 C          47.4673   13.5586  -26.3194 C.ar    1  UNL1        0.2061
     18 C          46.9062   12.2712  -26.2624 C.ar    1  UNL1        0.1754
     19 C          47.0853   11.4768  -25.1181 C.ar    1  UNL1        0.0402
     20 O          48.7857   15.3315  -25.2690 O.3     1  UNL1       -0.4683
     21 C          50.0050   15.6546  -25.9299 C.3     1  UNL1        0.2526
     22 O          47.2397   14.2940  -27.4985 O.3     1  UNL1       -0.4654
     23 C          46.2192   15.2632  -27.7099 C.3     1  UNL1        0.2528
     24 O          46.1657   11.8195  -27.3669 O.3     1  UNL1       -0.4683
     25 C          46.6969   11.0324  -28.4283 C.3     1  UNL1        0.2526
     26 C          43.2484   12.3118  -18.2660 C.3     1  UNL1        0.2526
     27 O          44.6716   12.3597  -18.2765 O.3     1  UNL1       -0.4684
     28 C          49.6585    9.7006  -23.9816 C.3     1  UNL1        0.0488
     29 C          50.6317   10.7911  -24.3883 C.ar    1  UNL1       -0.0119
     30 C          51.2618   11.5584  -23.3902 C.ar    1  UNL1       -0.0035
     31 C          52.1256   12.6010  -23.7304 C.ar    1  UNL1       -0.0003
     32 C          52.3958   12.8755  -25.0702 C.ar    1  UNL1        0.0005
     33 C          51.8214   12.0929  -26.0722 C.ar    1  UNL1        0.0064
     34 C          50.9550   11.0422  -25.7451 C.ar    1  UNL1        0.0309
     35 BR         50.2835    9.9774  -27.1951 Br      1  UNL1       -0.0493
@<TRIPOS>BOND
     1    26    27    1
     2    27     1    1
     3     1     2   ar
     4     2     3   ar
     5     3     4   ar
     6     4     5   ar
     7     5     6   ar
     8     6     7    1
     9     5     8    1
    10     8     9    1
    11     9    10    1
    12    10    11    1
    13    11    28    1
    14    28    29    1
    15    29    30   ar
    16    30    31   ar
    17    31    32   ar
    18    32    33   ar
    19    33    34   ar
    20    34    35    1
    21    11    12    2
    22    12    14    1
    23    14    15   ar
    24    15    16   ar
    25    16    20    1
    26    20    21    1
    27    16    17   ar
    28    17    22    1
    29    22    23    1
    30    17    18   ar
    31    18    24    1
    32    24    25    1
    33    18    19   ar
    34     6     1   ar
    35    34    29   ar
    36    19    14   ar
    37    12     4    1
    38     7    13    1
@<TRIPOS>MOLECULE
*****
 35 38 0 0 0
SMALL
GASTEIGER

@<TRIPOS>ATOM
      1 C          45.3648   12.0929  -19.3544 C.ar    1  UNL1        0.1718
      2 C          44.8536   12.1276  -20.6613 C.ar    1  UNL1        0.0400
      3 C          45.6740   11.8370  -21.7477 C.ar    1  UNL1        0.0030
      4 C          47.0315   11.5367  -21.5615 C.ar    1  UNL1       -0.0015
      5 C          47.5774   11.5698  -20.2530 C.ar    1  UNL1        0.0145
      6 C          46.7184   11.7904  -19.1454 C.ar    1  UNL1        0.1636
      7 O          47.1646   11.7013  -17.8234 O.3     1  UNL1       -0.5031
      8 C          49.0693   11.3766  -20.0863 C.3     1  UNL1        0.0299
      9 C          49.4756    9.9086  -20.2821 C.3     1  UNL1        0.0091
     10 C          48.8113    9.2283  -21.4956 C.3     1  UNL1        0.0227
     11 C          48.7404   10.1272  -22.7194 C.2     1  UNL1       -0.0398
     12 C          47.8640   11.1733  -22.7497 C.2     1  UNL1       -0.0076
     13 H          48.0612   11.3207  -17.5547 H       1  UNL1        0.2923
     14 C          47.7250   12.0215  -23.9534 C.ar    1  UNL1        0.0056
     15 C          46.9991   11.5711  -25.0585 C.ar    1  UNL1        0.0402
     16 C          46.8780   12.3673  -26.2139 C.ar    1  UNL1        0.1754
     17 C          47.5090   13.6391  -26.2473 C.ar    1  UNL1        0.2061
     18 C          48.2268   14.0904  -25.1263 C.ar    1  UNL1        0.1754
     19 C          48.3169   13.2853  -23.9791 C.ar    1  UNL1        0.0402
     20 O          46.1510   11.9135  -27.3256 O.3     1  UNL1       -0.4683
     21 C          46.6846   11.1227  -28.3829 C.3     1  UNL1        0.2526
     22 O          47.4687   14.5018  -27.3595 O.3     1  UNL1       -0.4654
     23 C          46.4099   15.3862  -27.7091 C.3     1  UNL1        0.2528
     24 O          48.8469   15.3485  -25.1967 O.3     1  UNL1       -0.4683
     25 C          49.8349   15.8144  -24.2829 C.3     1  UNL1        0.2526
     26 C          43.1367   12.2380  -18.2217 C.3     1  UNL1        0.2526
     27 O          44.5568   12.3431  -18.2333 O.3     1  UNL1       -0.4684
     28 C          49.6035    9.7628  -23.9220 C.3     1  UNL1        0.0488
     29 C          50.5646   10.8675  -24.3193 C.ar    1  UNL1       -0.0119
     30 C          51.1851   11.6340  -23.3147 C.ar    1  UNL1       -0.0035
     31 C          52.0372   12.6891  -23.6460 C.ar    1  UNL1       -0.0003
     32 C          52.3052   12.9772  -24.9834 C.ar    1  UNL1        0.0005
     33 C          51.7404   12.1961  -25.9919 C.ar    1  UNL1        0.0064
     34 C          50.8859   11.1330  -25.6738 C.ar    1  UNL1        0.0309
     35 BR         50.2276   10.0721  -27.1327 Br      1  UNL1       -0.0493
@<TRIPOS>BOND
     1    26    27    1
     2    27     1    1
     3     1     2   ar
     4     2     3   ar
     5     3     4   ar
     6     4     5   ar
     7     5     6   ar
     8     6     7    1
     9     5     8    1
    10     8     9    1
    11     9    10    1
    12    10    11    1
    13    11    28    1
    14    28    29    1
    15    29    30   ar
    16    30    31   ar
    17    31    32   ar
    18    32    33   ar
    19    33    34   ar
    20    34    35    1
    21    11    12    2
    22    12    14    1
    23    14    15   ar
    24    15    16   ar
    25    16    20    1
    26    20    21    1
    27    16    17   ar
    28    17    22    1
    29    22    23    1
    30    17    18   ar
    31    18    24    1
    32    24    25    1
    33    18    19   ar
    34     6     1   ar
    35    34    29   ar
    36    19    14   ar
    37    12     4    1
    38     7    13    1
@<TRIPOS>MOLECULE
*****
 35 38 0 0 0
SMALL
GASTEIGER

@<TRIPOS>ATOM
      1 C          48.1991   10.7592  -21.7890 C.ar    1  UNL1        0.1718
      2 C          48.3466   10.2957  -23.1058 C.ar    1  UNL1        0.0400
      3 C          48.4020   11.1939  -24.1679 C.ar    1  UNL1        0.0030
      4 C          48.2789   12.5737  -23.9478 C.ar    1  UNL1       -0.0015
      5 C          48.0563   13.0501  -22.6307 C.ar    1  UNL1        0.0145
      6 C          48.0788   12.1355  -21.5462 C.ar    1  UNL1        0.1636
      7 O          48.0023   12.5529  -20.2140 O.3     1  UNL1       -0.5031
      8 C          47.7914   14.5269  -22.4305 C.3     1  UNL1        0.0299
      9 C          49.0748   15.3574  -22.5770 C.3     1  UNL1        0.0091
     10 C          49.9482   14.9585  -23.7830 C.3     1  UNL1        0.0227
     11 C          49.1379   14.6552  -25.0329 C.2     1  UNL1       -0.0398
     12 C          48.4023   13.5078  -25.1094 C.2     1  UNL1       -0.0076
     13 H          48.0918   13.5147  -19.9177 H       1  UNL1        0.2923
     14 C          47.6603   13.1540  -26.3389 C.ar    1  UNL1        0.0056
     15 C          46.9417   14.1266  -27.0382 C.ar    1  UNL1        0.0402
     16 C          46.2191   13.7918  -28.1999 C.ar    1  UNL1        0.1754
     17 C          46.2237   12.4464  -28.6542 C.ar    1  UNL1        0.2061
     18 C          46.9597   11.4764  -27.9521 C.ar    1  UNL1        0.1754
     19 C          47.6874   11.8394  -26.8071 C.ar    1  UNL1        0.0402
     20 O          45.4947   14.7685  -28.9011 O.3     1  UNL1       -0.4683
     21 C          45.3575   16.1282  -28.5004 C.3     1  UNL1        0.2526
     22 O          45.5174   12.0030  -29.7889 O.3     1  UNL1       -0.4654
     23 C          45.9001   12.1787  -31.1484 C.3     1  UNL1        0.2528
     24 O          46.9343   10.1535  -28.4229 O.3     1  UNL1       -0.4683
     25 C          48.0030    9.5247  -29.1235 C.3     1  UNL1        0.2526
     26 C          49.3351    9.4375  -19.9917 C.3     1  UNL1        0.2526
     27 O          48.1778    9.8841  -20.6910 O.3     1  UNL1       -0.4684
     28 C          49.2534   15.6191  -26.2083 C.3     1  UNL1        0.0488
     29 C          48.7351   17.0089  -25.8891 C.ar    1  UNL1       -0.0119
     30 C          47.3975   17.1673  -25.4798 C.ar    1  UNL1       -0.0035
     31 C          46.8747   18.4364  -25.2249 C.ar    1  UNL1       -0.0003
     32 C          47.6859   19.5636  -25.3469 C.ar    1  UNL1        0.0005
     33 C          49.0278   19.4222  -25.7011 C.ar    1  UNL1        0.0064
     34 C          49.5661   18.1549  -25.9572 C.ar    1  UNL1        0.0309
     35 BR         51.4420   18.0649  -26.3574 Br      1  UNL1       -0.0493
@<TRIPOS>BOND
     1    26    27    1
     2    27     1    1
     3     1     2   ar
     4     2     3   ar
     5     3     4   ar
     6     4     5   ar
     7     5     6   ar
     8     6     7    1
     9     5     8    1
    10     8     9    1
    11     9    10    1
    12    10    11    1
    13    11    28    1
    14    28    29    1
    15    29    30   ar
    16    30    31   ar
    17    31    32   ar
    18    32    33   ar
    19    33    34   ar
    20    34    35    1
    21    11    12    2
    22    12    14    1
    23    14    15   ar
    24    15    16   ar
    25    16    20    1
    26    20    21    1
    27    16    17   ar
    28    17    22    1
    29    22    23    1
    30    17    18   ar
    31    18    24    1
    32    24    25    1
    33    18    19   ar
    34     6     1   ar
    35    34    29   ar
    36    19    14   ar
    37    12     4    1
    38     7    13    1
@<TRIPOS>MOLECULE
*****
 35 38 0 0 0
SMALL
GASTEIGER

@<TRIPOS>ATOM
      1 C          49.7546   16.9831  -26.3292 C.ar    1  UNL1        0.1718
      2 C          49.0592   16.1843  -27.2506 C.ar    1  UNL1        0.0400
      3 C          48.5849   14.9292  -26.8795 C.ar    1  UNL1        0.0030
      4 C          48.8200   14.4254  -25.5917 C.ar    1  UNL1       -0.0015
      5 C          49.5840   15.1914  -24.6747 C.ar    1  UNL1        0.0145
      6 C          49.9966   16.5004  -25.0346 C.ar    1  UNL1        0.1636
      7 O          50.6328   17.3586  -24.1328 O.3     1  UNL1       -0.5031
      8 C          49.9418   14.5753  -23.3392 C.3     1  UNL1        0.0299
      9 C          48.7340   14.5369  -22.3915 C.3     1  UNL1        0.0091
     10 C          47.4274   14.0605  -23.0564 C.3     1  UNL1        0.0227
     11 C          47.6333   12.8955  -24.0109 C.2     1  UNL1       -0.0398
     12 C          48.2433   13.0978  -25.2153 C.2     1  UNL1       -0.0076
     13 H          50.6973   17.1864  -23.1393 H       1  UNL1        0.2923
     14 C          48.3946   11.9973  -26.1918 C.ar    1  UNL1        0.0056
     15 C          49.5604   11.2283  -26.2187 C.ar    1  UNL1        0.0402
     16 C          49.7171   10.1903  -27.1577 C.ar    1  UNL1        0.1754
     17 C          48.6740    9.9341  -28.0867 C.ar    1  UNL1        0.2061
     18 C          47.4988   10.7041  -28.0446 C.ar    1  UNL1        0.1754
     19 C          47.3592   11.7211  -27.0862 C.ar    1  UNL1        0.0402
     20 O          50.8897    9.4194  -27.1867 O.3     1  UNL1       -0.4683
     21 C          52.1549    9.8745  -27.6559 C.3     1  UNL1        0.2526
     22 O          48.7394    8.9370  -29.0788 O.3     1  UNL1       -0.4654
     23 C          49.3507    7.6576  -28.9566 C.3     1  UNL1        0.2528
     24 O          46.4914   10.4309  -28.9841 O.3     1  UNL1       -0.4683
     25 C          46.3855   11.0553  -30.2597 C.3     1  UNL1        0.2526
     26 C          49.4168   19.2792  -27.2684 C.3     1  UNL1        0.2526
     27 O          50.2134   18.2690  -26.6578 O.3     1  UNL1       -0.4684
     28 C          47.0586   11.5400  -23.6154 C.3     1  UNL1        0.0488
     29 C          47.9233   10.7984  -22.6133 C.ar    1  UNL1       -0.0119
     30 C          49.0639   10.1086  -23.0661 C.ar    1  UNL1       -0.0035
     31 C          49.8542    9.3763  -22.1785 C.ar    1  UNL1       -0.0003
     32 C          49.5350    9.3443  -20.8218 C.ar    1  UNL1        0.0005
     33 C          48.4385   10.0638  -20.3461 C.ar    1  UNL1        0.0064
     34 C          47.6385   10.8047  -21.2250 C.ar    1  UNL1        0.0309
     35 BR         46.2035   11.8228  -20.4558 Br      1  UNL1       -0.0493
@<TRIPOS>BOND
     1    26    27    1
     2    27     1    1
     3     1     2   ar
     4     2     3   ar
     5     3     4   ar
     6     4     5   ar
     7     5     6   ar
     8     6     7    1
     9     5     8    1
    10     8     9    1
    11     9    10    1
    12    10    11    1
    13    11    28    1
    14    28    29    1
    15    29    30   ar
    16    30    31   ar
    17    31    32   ar
    18    32    33   ar
    19    33    34   ar
    20    34    35    1
    21    11    12    2
    22    12    14    1
    23    14    15   ar
    24    15    16   ar
    25    16    20    1
    26    20    21    1
    27    16    17   ar
    28    17    22    1
    29    22    23    1
    30    17    18   ar
    31    18    24    1
    32    24    25    1
    33    18    19   ar
    34     6     1   ar
    35    34    29   ar
    36    19    14   ar
    37    12     4    1
    38     7    13    1
