@<TRIPOS>MOLECULE
*****
 35 39 0 0 0
SMALL
GASTEIGER

@<TRIPOS>ATOM
      1 C         -25.9556   -5.4517  -14.8183 C.2     1  UNL1        0.2491
      2 O         -24.9472   -5.7284  -15.5240 O.2     1  UNL1       -0.2699
      3 N         -25.9626   -5.8038  -13.4203 N.am    1  UNL1       -0.2760
      4 C         -27.1898   -6.3203  -12.7935 C.3     1  UNL1        0.0954
      5 C         -26.8650   -7.3118  -11.6618 C.3     1  UNL1        0.0399
      6 C         -25.6541   -8.2177  -12.0130 C.3     1  UNL1        0.0645
      7 C         -24.3875   -7.3428  -12.2973 C.3     1  UNL1        0.0399
      8 C         -24.7037   -5.8843  -12.6725 C.3     1  UNL1        0.0954
      9 C         -26.0055   -9.0839  -13.2790 C.3     1  UNL1        0.0477
     10 C         -25.0820  -10.2570  -13.4014 C.ar    1  UNL1        0.0220
     11 C         -24.8020  -11.0731  -14.4724 C.ar    1  UNL1        0.0923
     12 N         -24.0377  -12.1004  -14.0234 N.ar    1  UNL1       -0.2534
     13 N         -23.8576  -11.9824  -12.7105 N.ar    1  UNL1       -0.1651
     14 C         -24.4937  -10.8599  -12.3339 C.ar    1  UNL1        0.1515
     15 C         -24.6470  -10.3235  -10.9917 C.2     1  UNL1        0.2650
     16 O         -24.1847  -10.9265   -9.9876 O.2     1  UNL1       -0.2684
     17 N         -25.3683   -9.0900  -10.8471 N.am    1  UNL1       -0.3023
     18 H         -25.5210   -8.7222   -9.8803 H       1  UNL1        0.1497
     19 C         -28.8962   -2.0379  -18.9735 C.ar    1  UNL1        0.2249
     20 C         -30.1902   -2.1508  -18.4641 C.ar    1  UNL1        0.0577
     21 C         -30.4168   -2.9075  -17.3136 C.ar    1  UNL1        0.0060
     22 C         -29.3454   -3.5545  -16.6673 C.ar    1  UNL1        0.0140
     23 C         -29.5208   -4.3405  -15.5017 C.ar    1  UNL1       -0.0202
     24 C         -30.8771   -4.5360  -14.8732 C.3     1  UNL1        0.0311
     25 C         -28.4016   -4.9548  -14.9128 C.ar    1  UNL1        0.0004
     26 C         -27.1174   -4.7920  -15.4544 C.ar    1  UNL1        0.0548
     27 C         -26.9531   -4.0284  -16.6173 C.ar    1  UNL1        0.0237
     28 C         -28.0502   -3.4086  -17.2194 C.ar    1  UNL1        0.0842
     29 N         -27.8656   -2.6653  -18.3435 N.ar    1  UNL1       -0.2117
     30 C         -27.7012   -1.6300  -21.1028 C.3     1  UNL1        0.2542
     31 O         -28.6754   -1.2798  -20.1270 O.3     1  UNL1       -0.4561
     32 C         -23.5407  -13.2294  -14.8352 C.3     1  UNL1        0.0867
     33 C         -22.0846  -13.5731  -14.4535 C.3     1  UNL1        0.0244
     34 C         -24.4260  -14.4643  -14.5870 C.3     1  UNL1        0.0244
     35 C         -23.5816  -12.8513  -16.3287 C.3     1  UNL1        0.0244
@<TRIPOS>BOND
     1    30    31    1
     2    31    19    1
     3    19    20   ar
     4    20    21   ar
     5    21    22   ar
     6    22    23   ar
     7    23    24    1
     8    23    25   ar
     9    25    26   ar
    10    26     1    1
    11     1     2    2
    12     1     3   am
    13     3     4    1
    14     4     5    1
    15     5     6    1
    16     6     7    1
    17     7     8    1
    18     6     9    1
    19     9    10    1
    20    10    11   ar
    21    11    12   ar
    22    12    32    1
    23    32    33    1
    24    32    34    1
    25    32    35    1
    26    12    13   ar
    27    13    14   ar
    28    14    15    1
    29    15    16    2
    30    15    17   am
    31    26    27   ar
    32    27    28   ar
    33    28    29   ar
    34    29    19   ar
    35    28    22   ar
    36     8     3    1
    37    14    10   ar
    38    17     6    1
    39    17    18    1
@<TRIPOS>MOLECULE
*****
 35 39 0 0 0
SMALL
GASTEIGER

@<TRIPOS>ATOM
      1 C         -26.2943   -5.1257  -15.1910 C.2     1  UNL1        0.2491
      2 O         -25.3774   -5.4988  -15.9729 O.2     1  UNL1       -0.2699
      3 N         -26.1715   -5.3832  -13.7778 N.am    1  UNL1       -0.2760
      4 C         -27.3481   -5.7949  -12.9958 C.3     1  UNL1        0.0954
      5 C         -26.9507   -6.7240  -11.8347 C.3     1  UNL1        0.0399
      6 C         -25.8229   -7.7108  -12.2404 C.3     1  UNL1        0.0645
      7 C         -24.5562   -6.9214  -12.7120 C.3     1  UNL1        0.0399
      8 C         -24.8464   -5.4769  -13.1565 C.3     1  UNL1        0.0954
      9 C         -26.3407   -8.6405  -13.3997 C.3     1  UNL1        0.0477
     10 C         -25.4863   -9.8639  -13.5305 C.ar    1  UNL1        0.0220
     11 C         -25.3542  -10.7624  -14.5634 C.ar    1  UNL1        0.0923
     12 N         -24.5925  -11.7946  -14.1215 N.ar    1  UNL1       -0.2534
     13 N         -24.2723  -11.5989  -12.8450 N.ar    1  UNL1       -0.1651
     14 C         -24.8169  -10.4234  -12.4873 C.ar    1  UNL1        0.1515
     15 C         -24.8071   -9.7920  -11.1781 C.2     1  UNL1        0.2650
     16 O         -24.2695  -10.3493  -10.1851 O.2     1  UNL1       -0.2684
     17 N         -25.4556   -8.5170  -11.0499 N.am    1  UNL1       -0.3023
     18 H         -25.4913   -8.0786  -10.1013 H       1  UNL1        0.1497
     19 C         -32.0701   -3.0763  -15.2740 C.ar    1  UNL1        0.2249
     20 C         -32.0673   -2.4835  -16.5370 C.ar    1  UNL1        0.0577
     21 C         -30.9087   -2.5179  -17.3143 C.ar    1  UNL1        0.0060
     22 C         -29.7466   -3.1483  -16.8284 C.ar    1  UNL1        0.0140
     23 C         -28.5423   -3.2053  -17.5725 C.ar    1  UNL1       -0.0202
     24 C         -28.4269   -2.5896  -18.9437 C.3     1  UNL1        0.0311
     25 C         -27.4237   -3.8537  -17.0200 C.ar    1  UNL1        0.0004
     26 C         -27.4863   -4.4522  -15.7524 C.ar    1  UNL1        0.0548
     27 C         -28.6745   -4.3768  -15.0141 C.ar    1  UNL1        0.0237
     28 C         -29.7983   -3.7383  -15.5427 C.ar    1  UNL1        0.0842
     29 N         -30.9437   -3.6843  -14.8111 N.ar    1  UNL1       -0.2117
     30 C         -33.3749   -3.7701  -13.2879 C.3     1  UNL1        0.2542
     31 O         -33.2330   -3.0377  -14.4992 O.3     1  UNL1       -0.4561
     32 C         -24.2315  -12.9985  -14.8966 C.3     1  UNL1        0.0867
     33 C         -22.7828  -13.4315  -14.5838 C.3     1  UNL1        0.0244
     34 C         -25.1864  -14.1482  -14.5269 C.3     1  UNL1        0.0244
     35 C         -24.3399  -12.6961  -16.4040 C.3     1  UNL1        0.0244
@<TRIPOS>BOND
     1    30    31    1
     2    31    19    1
     3    19    20   ar
     4    20    21   ar
     5    21    22   ar
     6    22    23   ar
     7    23    24    1
     8    23    25   ar
     9    25    26   ar
    10    26     1    1
    11     1     2    2
    12     1     3   am
    13     3     4    1
    14     4     5    1
    15     5     6    1
    16     6     7    1
    17     7     8    1
    18     6     9    1
    19     9    10    1
    20    10    11   ar
    21    11    12   ar
    22    12    32    1
    23    32    33    1
    24    32    34    1
    25    32    35    1
    26    12    13   ar
    27    13    14   ar
    28    14    15    1
    29    15    16    2
    30    15    17   am
    31    26    27   ar
    32    27    28   ar
    33    28    29   ar
    34    29    19   ar
    35    28    22   ar
    36     8     3    1
    37    14    10   ar
    38    17     6    1
    39    17    18    1
@<TRIPOS>MOLECULE
*****
 35 39 0 0 0
SMALL
GASTEIGER

@<TRIPOS>ATOM
      1 C         -21.6349   -8.7739   -9.3432 C.2     1  UNL1        0.2491
      2 O         -22.7049   -9.3944   -9.0952 O.2     1  UNL1       -0.2699
      3 N         -21.5243   -8.0054  -10.5579 N.am    1  UNL1       -0.2760
      4 C         -20.2658   -8.0038  -11.3205 C.3     1  UNL1        0.0954
      5 C         -20.5260   -7.8406  -12.8288 C.3     1  UNL1        0.0399
      6 C         -21.7872   -8.6207  -13.2884 C.3     1  UNL1        0.0645
      7 C         -23.0468   -8.1256  -12.5018 C.3     1  UNL1        0.0399
      8 C         -22.7201   -7.4207  -11.1735 C.3     1  UNL1        0.0954
      9 C         -21.5651  -10.1582  -13.0370 C.3     1  UNL1        0.0477
     10 C         -22.5291  -10.9790  -13.8375 C.ar    1  UNL1        0.0220
     11 C         -22.9189  -12.2913  -13.7055 C.ar    1  UNL1        0.0923
     12 N         -23.6735  -12.6115  -14.7867 N.ar    1  UNL1       -0.2534
     13 N         -23.7427  -11.5671  -15.6081 N.ar    1  UNL1       -0.1651
     14 C         -23.0459  -10.5746  -15.0287 C.ar    1  UNL1        0.1515
     15 C         -22.7684   -9.2482  -15.5544 C.2     1  UNL1        0.2650
     16 O         -23.1648   -8.8997  -16.6977 O.2     1  UNL1       -0.2684
     17 N         -22.0024   -8.3539  -14.7322 N.am    1  UNL1       -0.3023
     18 H         -21.7609   -7.4147  -15.1229 H       1  UNL1        0.1497
     19 C         -18.2781   -7.2584   -4.4439 C.ar    1  UNL1        0.2249
     20 C         -17.2776   -8.2232   -4.5650 C.ar    1  UNL1        0.0577
     21 C         -17.3212   -9.1358   -5.6200 C.ar    1  UNL1        0.0060
     22 C         -18.3689   -9.0844   -6.5600 C.ar    1  UNL1        0.0140
     23 C         -18.4651   -9.9907   -7.6447 C.ar    1  UNL1       -0.0202
     24 C         -17.4433  -11.0772   -7.8640 C.3     1  UNL1        0.0311
     25 C         -19.5409   -9.8753   -8.5427 C.ar    1  UNL1        0.0004
     26 C         -20.5100   -8.8727   -8.3868 C.ar    1  UNL1        0.0548
     27 C         -20.4192   -7.9909   -7.3020 C.ar    1  UNL1        0.0237
     28 C         -19.3594   -8.0863   -6.3976 C.ar    1  UNL1        0.0842
     29 N         -19.2873   -7.2143   -5.3563 N.ar    1  UNL1       -0.2117
     30 C         -19.2906   -6.2014   -2.4474 C.3     1  UNL1        0.2542
     31 O         -18.2302   -6.3477   -3.3845 O.3     1  UNL1       -0.4561
     32 C         -24.2673  -13.9340  -15.0675 C.3     1  UNL1        0.0867
     33 C         -23.2301  -15.0546  -14.8384 C.3     1  UNL1        0.0244
     34 C         -25.4658  -14.1643  -14.1289 C.3     1  UNL1        0.0244
     35 C         -24.7367  -13.9905  -16.5344 C.3     1  UNL1        0.0244
@<TRIPOS>BOND
     1    30    31    1
     2    31    19    1
     3    19    20   ar
     4    20    21   ar
     5    21    22   ar
     6    22    23   ar
     7    23    24    1
     8    23    25   ar
     9    25    26   ar
    10    26     1    1
    11     1     2    2
    12     1     3   am
    13     3     4    1
    14     4     5    1
    15     5     6    1
    16     6     7    1
    17     7     8    1
    18     6     9    1
    19     9    10    1
    20    10    11   ar
    21    11    12   ar
    22    12    32    1
    23    32    33    1
    24    32    34    1
    25    32    35    1
    26    12    13   ar
    27    13    14   ar
    28    14    15    1
    29    15    16    2
    30    15    17   am
    31    26    27   ar
    32    27    28   ar
    33    28    29   ar
    34    29    19   ar
    35    28    22   ar
    36     8     3    1
    37    14    10   ar
    38    17     6    1
    39    17    18    1
