@<TRIPOS>MOLECULE
*****
 46 51 0 0 0
SMALL
GASTEIGER

@<TRIPOS>ATOM
      1 C         -65.8797  -54.2676  -23.3115 C.ar    1  UNL1        0.1318
      2 C         -64.7968  -53.5896  -22.7307 C.ar    1  UNL1        0.0356
      3 C         -64.1264  -52.6094  -23.4633 C.ar    1  UNL1        0.0191
      4 C         -64.5357  -52.2977  -24.7650 C.ar    1  UNL1        0.0702
      5 C         -65.5959  -53.0269  -25.3265 C.ar    1  UNL1        0.1149
      6 N         -66.2319  -53.9804  -24.5956 N.ar    1  UNL1       -0.2279
      7 C         -68.9447  -55.9837  -22.1405 C.3     1  UNL1        0.0235
      8 C         -67.7683  -55.9561  -23.1594 C.3     1  UNL1        0.0922
      9 N         -66.5813  -55.2999  -22.5937 N.pl3   1  UNL1       -0.2932
     10 C         -65.9976  -55.8428  -21.3582 C.3     1  UNL1        0.0923
     11 C         -67.0598  -56.5572  -20.5054 C.3     1  UNL1        0.0252
     12 C         -68.4200  -55.8540  -20.6666 C.3     1  UNL1        0.0471
     13 C         -71.2032  -56.8803  -22.9759 C.3     1  UNL1        0.0001
     14 C         -69.8365  -57.2326  -22.3829 C.3     1  UNL1        0.0018
     15 C         -69.4090  -56.3074  -19.5709 C.3     1  UNL1        0.2054
     16 O         -69.4411  -55.3777  -18.4861 O.3     1  UNL1       -0.4755
     17 C         -68.9663  -55.6181  -17.1866 C.ar    1  UNL1        0.1388
     18 C         -69.7745  -56.1536  -16.1669 C.ar    1  UNL1        0.0369
     19 C         -69.2430  -56.3784  -14.8958 C.ar    1  UNL1        0.0033
     20 C         -67.9098  -56.0646  -14.6231 C.ar    1  UNL1        0.0066
     21 C         -67.0909  -55.5113  -15.6229 C.ar    1  UNL1        0.0785
     22 C         -67.6323  -55.2992  -16.9043 C.ar    1  UNL1        0.0433
     23 C         -65.6716  -55.1744  -15.3533 C.2     1  UNL1        0.3381
     24 O         -65.3810  -54.0653  -14.8310 O.2     1  UNL1       -0.2451
     25 O         -64.6369  -56.0613  -15.6486 O.3     1  UNL1       -0.4771
     26 H         -64.8029  -57.0054  -15.9718 H       1  UNL1        0.2954
     27 N         -63.8177  -51.3037  -25.5146 N.am    1  UNL1       -0.2766
     28 C         -64.0058  -49.8860  -25.3606 C.2     1  UNL1        0.2839
     29 O         -64.8940  -49.4398  -24.5862 O.2     1  UNL1       -0.2665
     30 H         -63.0791  -51.6444  -26.1679 H       1  UNL1        0.1553
     31 C         -63.1879  -48.9214  -26.1162 C.ar    1  UNL1        0.1946
     32 O         -62.2295  -48.2109  -25.5480 O.2     1  UNL1       -0.4492
     33 C         -61.6939  -47.4476  -26.4691 C.ar    1  UNL1        0.1452
     34 C         -60.6579  -46.5333  -26.3130 C.ar    1  UNL1        0.0375
     35 C         -60.2360  -45.8143  -27.4452 C.ar    1  UNL1        0.0031
     36 C         -60.8516  -46.0195  -28.7099 C.ar    1  UNL1        0.0002
     37 C         -61.9018  -46.9617  -28.8252 C.ar    1  UNL1        0.0028
     38 C         -62.2952  -47.6549  -27.6805 C.ar    1  UNL1        0.0337
     39 C         -63.2606  -48.6212  -27.4822 C.ar    1  UNL1        0.0202
     40 C         -64.1465  -49.2276  -28.5279 C.3     1  UNL1        0.0345
     41 C         -60.3978  -45.2546  -29.8991 C.ar    1  UNL1        0.0000
     42 C         -59.0582  -45.3250  -30.3270 C.ar    1  UNL1        0.0000
     43 C         -58.6338  -44.6038  -31.4473 C.ar    1  UNL1        0.0000
     44 C         -59.5386  -43.8070  -32.1522 C.ar    1  UNL1        0.0000
     45 C         -60.8701  -43.7294  -31.7383 C.ar    1  UNL1        0.0000
     46 C         -61.3000  -44.4476  -30.6182 C.ar    1  UNL1        0.0000
@<TRIPOS>BOND
     1    13    14    1
     2    14     7    1
     3     7     8    1
     4     8     9    1
     5     9     1    1
     6     1     2   ar
     7     2     3   ar
     8     3     4   ar
     9     4    27    1
    10    27    28   am
    11    28    29    2
    12    28    31    1
    13    31    32   ar
    14    32    33   ar
    15    33    34   ar
    16    34    35   ar
    17    35    36   ar
    18    36    41    1
    19    41    42   ar
    20    42    43   ar
    21    43    44   ar
    22    44    45   ar
    23    45    46   ar
    24    36    37   ar
    25    37    38   ar
    26    38    39   ar
    27    39    40    1
    28     4     5   ar
    29     5     6   ar
    30     9    10    1
    31    10    11    1
    32    11    12    1
    33    12    15    1
    34    15    16    1
    35    16    17    1
    36    17    18   ar
    37    18    19   ar
    38    19    20   ar
    39    20    21   ar
    40    21    23    1
    41    23    24    2
    42    23    25    1
    43    21    22   ar
    44    12     7    1
    45    22    17   ar
    46     6     1   ar
    47    39    31   ar
    48    38    33   ar
    49    46    41   ar
    50    27    30    1
    51    25    26    1
@<TRIPOS>MOLECULE
*****
 46 51 0 0 0
SMALL
GASTEIGER

@<TRIPOS>ATOM
      1 C         -65.6002  -54.0639  -23.0056 C.ar    1  UNL1        0.1318
      2 C         -64.3184  -53.6303  -22.6335 C.ar    1  UNL1        0.0356
      3 C         -63.6710  -52.6606  -23.4001 C.ar    1  UNL1        0.0191
      4 C         -64.2984  -52.1173  -24.5272 C.ar    1  UNL1        0.0702
      5 C         -65.5627  -52.6071  -24.8914 C.ar    1  UNL1        0.1149
      6 N         -66.1729  -53.5551  -24.1319 N.ar    1  UNL1       -0.2279
      7 C         -68.6301  -55.9020  -21.9324 C.3     1  UNL1        0.0235
      8 C         -67.3710  -55.8751  -22.8472 C.3     1  UNL1        0.0922
      9 N         -66.2895  -55.0783  -22.2512 N.pl3   1  UNL1       -0.2932
     10 C         -65.7835  -55.4581  -20.9240 C.3     1  UNL1        0.0923
     11 C         -66.8656  -56.1731  -20.0970 C.3     1  UNL1        0.0252
     12 C         -68.2518  -55.5970  -20.4397 C.3     1  UNL1        0.0471
     13 C         -70.8063  -57.0272  -22.7076 C.3     1  UNL1        0.0001
     14 C         -69.4059  -57.2343  -22.1250 C.3     1  UNL1        0.0018
     15 C         -69.3017  -56.0249  -19.3914 C.3     1  UNL1        0.2054
     16 O         -70.4634  -55.1949  -19.4542 O.3     1  UNL1       -0.4755
     17 C         -71.2162  -54.7544  -18.3536 C.ar    1  UNL1        0.1388
     18 C         -71.3184  -55.4883  -17.1574 C.ar    1  UNL1        0.0369
     19 C         -72.0756  -54.9942  -16.0939 C.ar    1  UNL1        0.0033
     20 C         -72.7453  -53.7743  -16.2115 C.ar    1  UNL1        0.0066
     21 C         -72.6712  -53.0350  -17.4049 C.ar    1  UNL1        0.0785
     22 C         -71.8960  -53.5355  -18.4673 C.ar    1  UNL1        0.0433
     23 C         -73.3729  -51.7358  -17.5478 C.2     1  UNL1        0.3381
     24 O         -74.1601  -51.5538  -18.5145 O.2     1  UNL1       -0.2451
     25 O         -73.1995  -50.7019  -16.6283 O.3     1  UNL1       -0.4771
     26 H         -72.6657  -50.8131  -15.7762 H       1  UNL1        0.2954
     27 N         -63.6067  -51.1384  -25.3201 N.am    1  UNL1       -0.2766
     28 C         -63.9023  -49.7308  -25.3014 C.2     1  UNL1        0.2839
     29 O         -64.8652  -49.2893  -24.6192 O.2     1  UNL1       -0.2665
     30 H         -62.8075  -51.4762  -25.8994 H       1  UNL1        0.1553
     31 C         -63.1088  -48.7741  -26.0922 C.ar    1  UNL1        0.1946
     32 O         -62.1741  -48.0137  -25.5495 O.2     1  UNL1       -0.4492
     33 C         -61.6561  -47.2730  -26.4986 C.ar    1  UNL1        0.1452
     34 C         -60.6478  -46.3235  -26.3756 C.ar    1  UNL1        0.0375
     35 C         -60.2411  -45.6387  -27.5343 C.ar    1  UNL1        0.0031
     36 C         -60.8441  -45.9125  -28.7921 C.ar    1  UNL1        0.0002
     37 C         -61.8661  -46.8887  -28.8733 C.ar    1  UNL1        0.0028
     38 C         -62.2451  -47.5463  -27.7030 C.ar    1  UNL1        0.0337
     39 C         -63.1832  -48.5314  -27.4695 C.ar    1  UNL1        0.0202
     40 C         -64.0459  -49.2050  -28.4933 C.3     1  UNL1        0.0345
     41 C         -60.4066  -45.1833  -30.0095 C.ar    1  UNL1        0.0000
     42 C         -61.2981  -44.3371  -30.6961 C.ar    1  UNL1        0.0000
     43 C         -60.8834  -43.6515  -31.8420 C.ar    1  UNL1        0.0000
     44 C         -59.5776  -43.8010  -32.3144 C.ar    1  UNL1        0.0000
     45 C         -58.6835  -44.6369  -31.6418 C.ar    1  UNL1        0.0000
     46 C         -59.0930  -45.3256  -30.4959 C.ar    1  UNL1        0.0000
@<TRIPOS>BOND
     1    13    14    1
     2    14     7    1
     3     7     8    1
     4     8     9    1
     5     9     1    1
     6     1     2   ar
     7     2     3   ar
     8     3     4   ar
     9     4    27    1
    10    27    28   am
    11    28    29    2
    12    28    31    1
    13    31    32   ar
    14    32    33   ar
    15    33    34   ar
    16    34    35   ar
    17    35    36   ar
    18    36    41    1
    19    41    42   ar
    20    42    43   ar
    21    43    44   ar
    22    44    45   ar
    23    45    46   ar
    24    36    37   ar
    25    37    38   ar
    26    38    39   ar
    27    39    40    1
    28     4     5   ar
    29     5     6   ar
    30     9    10    1
    31    10    11    1
    32    11    12    1
    33    12    15    1
    34    15    16    1
    35    16    17    1
    36    17    18   ar
    37    18    19   ar
    38    19    20   ar
    39    20    21   ar
    40    21    23    1
    41    23    24    2
    42    23    25    1
    43    21    22   ar
    44    12     7    1
    45    22    17   ar
    46     6     1   ar
    47    39    31   ar
    48    38    33   ar
    49    46    41   ar
    50    27    30    1
    51    25    26    1
@<TRIPOS>MOLECULE
*****
 46 51 0 0 0
SMALL
GASTEIGER

@<TRIPOS>ATOM
      1 C         -65.6547  -54.1351  -23.0482 C.ar    1  UNL1        0.1318
      2 C         -64.4242  -53.6168  -22.6159 C.ar    1  UNL1        0.0356
      3 C         -63.7862  -52.6356  -23.3759 C.ar    1  UNL1        0.0191
      4 C         -64.3728  -52.1648  -24.5563 C.ar    1  UNL1        0.0702
      5 C         -65.5833  -52.7378  -24.9776 C.ar    1  UNL1        0.1149
      6 N         -66.1850  -53.6955  -24.2234 N.ar    1  UNL1       -0.2279
      7 C         -68.6764  -55.9091  -21.8512 C.3     1  UNL1        0.0235
      8 C         -67.4886  -55.8791  -22.8567 C.3     1  UNL1        0.0922
      9 N         -66.3312  -55.1636  -22.3014 N.pl3   1  UNL1       -0.2932
     10 C         -65.7459  -55.6418  -21.0403 C.3     1  UNL1        0.0923
     11 C         -66.7949  -56.3601  -20.1744 C.3     1  UNL1        0.0252
     12 C         -68.1754  -55.7088  -20.3770 C.3     1  UNL1        0.0471
     13 C         -70.9132  -56.9047  -22.6311 C.3     1  UNL1        0.0001
     14 C         -69.5235  -57.1949  -22.0584 C.3     1  UNL1        0.0018
     15 C         -69.1630  -56.1551  -19.2772 C.3     1  UNL1        0.2054
     16 O         -69.1479  -55.2511  -18.1706 O.3     1  UNL1       -0.4755
     17 C         -69.0470  -55.6136  -16.8176 C.ar    1  UNL1        0.1388
     18 C         -67.8278  -55.6054  -16.1153 C.ar    1  UNL1        0.0369
     19 C         -67.7921  -55.9683  -14.7678 C.ar    1  UNL1        0.0033
     20 C         -68.9624  -56.3516  -14.1092 C.ar    1  UNL1        0.0066
     21 C         -70.1875  -56.3845  -14.7980 C.ar    1  UNL1        0.0785
     22 C         -70.2156  -56.0058  -16.1530 C.ar    1  UNL1        0.0433
     23 C         -71.4416  -56.7858  -14.1149 C.2     1  UNL1        0.3381
     24 O         -72.5186  -56.8391  -14.7665 O.2     1  UNL1       -0.2451
     25 O         -71.4658  -57.1245  -12.7624 O.3     1  UNL1       -0.4771
     26 H         -70.6257  -57.2035  -12.2045 H       1  UNL1        0.2954
     27 N         -63.6897  -51.1727  -25.3401 N.am    1  UNL1       -0.2766
     28 C         -63.9530  -49.7608  -25.2608 C.2     1  UNL1        0.2839
     29 O         -64.8798  -49.3241  -24.5274 O.2     1  UNL1       -0.2665
     30 H         -62.9204  -51.5061  -25.9609 H       1  UNL1        0.1553
     31 C         -63.1685  -48.7931  -26.0472 C.ar    1  UNL1        0.1946
     32 O         -62.2511  -48.0163  -25.4985 O.2     1  UNL1       -0.4492
     33 C         -61.7372  -47.2694  -26.4450 C.ar    1  UNL1        0.1452
     34 C         -60.7455  -46.3033  -26.3158 C.ar    1  UNL1        0.0375
     35 C         -60.3402  -45.6147  -27.4727 C.ar    1  UNL1        0.0031
     36 C         -60.9279  -45.9012  -28.7349 C.ar    1  UNL1        0.0002
     37 C         -61.9331  -46.8942  -28.8223 C.ar    1  UNL1        0.0028
     38 C         -62.3113  -47.5551  -27.6536 C.ar    1  UNL1        0.0337
     39 C         -63.2351  -48.5549  -27.4257 C.ar    1  UNL1        0.0202
     40 C         -64.0780  -49.2448  -28.4551 C.3     1  UNL1        0.0345
     41 C         -60.4920  -45.1678  -29.9502 C.ar    1  UNL1        0.0000
     42 C         -59.1684  -45.2795  -30.4175 C.ar    1  UNL1        0.0000
     43 C         -58.7608  -44.5880  -31.5624 C.ar    1  UNL1        0.0000
     44 C         -59.6666  -43.7798  -32.2530 C.ar    1  UNL1        0.0000
     45 C         -60.9823  -43.6613  -31.8001 C.ar    1  UNL1        0.0000
     46 C         -61.3953  -44.3499  -30.6553 C.ar    1  UNL1        0.0000
@<TRIPOS>BOND
     1    13    14    1
     2    14     7    1
     3     7     8    1
     4     8     9    1
     5     9     1    1
     6     1     2   ar
     7     2     3   ar
     8     3     4   ar
     9     4    27    1
    10    27    28   am
    11    28    29    2
    12    28    31    1
    13    31    32   ar
    14    32    33   ar
    15    33    34   ar
    16    34    35   ar
    17    35    36   ar
    18    36    41    1
    19    41    42   ar
    20    42    43   ar
    21    43    44   ar
    22    44    45   ar
    23    45    46   ar
    24    36    37   ar
    25    37    38   ar
    26    38    39   ar
    27    39    40    1
    28     4     5   ar
    29     5     6   ar
    30     9    10    1
    31    10    11    1
    32    11    12    1
    33    12    15    1
    34    15    16    1
    35    16    17    1
    36    17    18   ar
    37    18    19   ar
    38    19    20   ar
    39    20    21   ar
    40    21    23    1
    41    23    24    2
    42    23    25    1
    43    21    22   ar
    44    12     7    1
    45    22    17   ar
    46     6     1   ar
    47    39    31   ar
    48    38    33   ar
    49    46    41   ar
    50    27    30    1
    51    25    26    1
@<TRIPOS>MOLECULE
*****
 46 51 0 0 0
SMALL
GASTEIGER

@<TRIPOS>ATOM
      1 C         -64.7027  -52.7347  -23.6024 C.ar    1  UNL1        0.1318
      2 C         -63.3427  -52.4436  -23.4149 C.ar    1  UNL1        0.0356
      3 C         -62.8528  -51.1869  -23.7725 C.ar    1  UNL1        0.0191
      4 C         -63.7127  -50.2200  -24.3061 C.ar    1  UNL1        0.0702
      5 C         -65.0576  -50.5630  -24.5176 C.ar    1  UNL1        0.1149
      6 N         -65.5120  -51.7949  -24.1656 N.ar    1  UNL1       -0.2279
      7 C         -67.4769  -55.1296  -23.0742 C.3     1  UNL1        0.0235
      8 C         -66.3533  -54.6165  -24.0214 C.3     1  UNL1        0.0922
      9 N         -65.2390  -54.0278  -23.2654 N.pl3   1  UNL1       -0.2932
     10 C         -64.5443  -54.8596  -22.2718 C.3     1  UNL1        0.0923
     11 C         -65.4734  -55.9468  -21.7054 C.3     1  UNL1        0.0252
     12 C         -66.9174  -55.4168  -21.6359 C.3     1  UNL1        0.0471
     13 C         -68.2351  -56.2747  -25.2460 C.3     1  UNL1        0.0001
     14 C         -68.2106  -56.3391  -23.7167 C.3     1  UNL1        0.0018
     15 C         -67.7980  -56.3287  -20.7543 C.3     1  UNL1        0.2054
     16 O         -68.5832  -55.5616  -19.8392 O.3     1  UNL1       -0.4755
     17 C         -68.5596  -55.6800  -18.4401 C.ar    1  UNL1        0.1388
     18 C         -69.6959  -56.0249  -17.6854 C.ar    1  UNL1        0.0369
     19 C         -69.6084  -56.1357  -16.2966 C.ar    1  UNL1        0.0033
     20 C         -68.3969  -55.8955  -15.6447 C.ar    1  UNL1        0.0066
     21 C         -67.2546  -55.5315  -16.3789 C.ar    1  UNL1        0.0785
     22 C         -67.3497  -55.4337  -17.7795 C.ar    1  UNL1        0.0433
     23 C         -65.9582  -55.2755  -15.7048 C.2     1  UNL1        0.3381
     24 O         -65.8993  -54.4466  -14.7578 O.2     1  UNL1       -0.2451
     25 O         -64.7913  -55.9408  -16.0792 O.3     1  UNL1       -0.4771
     26 H         -64.7844  -56.6905  -16.7582 H       1  UNL1        0.2954
     27 N         -63.1863  -48.9398  -24.6929 N.am    1  UNL1       -0.2766
     28 C         -63.3699  -48.3520  -25.9928 C.2     1  UNL1        0.2839
     29 O         -63.9587  -48.9908  -26.9054 O.2     1  UNL1       -0.2665
     30 H         -62.6890  -48.3902  -23.9587 H       1  UNL1        0.1553
     31 C         -62.8574  -47.0055  -26.3004 C.ar    1  UNL1        0.1946
     32 O         -62.0587  -46.3492  -25.4772 O.2     1  UNL1       -0.4492
     33 C         -61.7832  -45.1896  -26.0225 C.ar    1  UNL1        0.1452
     34 C         -60.9855  -44.1773  -25.5004 C.ar    1  UNL1        0.0375
     35 C         -60.8240  -43.0058  -26.2608 C.ar    1  UNL1        0.0031
     36 C         -61.4576  -42.8646  -27.5254 C.ar    1  UNL1        0.0002
     37 C         -62.2596  -43.9208  -28.0209 C.ar    1  UNL1        0.0028
     38 C         -62.3988  -45.0669  -27.2382 C.ar    1  UNL1        0.0337
     39 C         -63.0916  -46.2416  -27.4506 C.ar    1  UNL1        0.0202
     40 C         -63.8771  -46.6076  -28.6733 C.3     1  UNL1        0.0345
     41 C         -61.2800  -41.6229  -28.3201 C.ar    1  UNL1        0.0000
     42 C         -62.2691  -41.2096  -29.2330 C.ar    1  UNL1        0.0000
     43 C         -62.0993  -40.0398  -29.9798 C.ar    1  UNL1        0.0000
     44 C         -60.9442  -39.2702  -29.8243 C.ar    1  UNL1        0.0000
     45 C         -59.9561  -39.6690  -28.9216 C.ar    1  UNL1        0.0000
     46 C         -60.1202  -40.8384  -28.1727 C.ar    1  UNL1        0.0000
@<TRIPOS>BOND
     1    13    14    1
     2    14     7    1
     3     7     8    1
     4     8     9    1
     5     9     1    1
     6     1     2   ar
     7     2     3   ar
     8     3     4   ar
     9     4    27    1
    10    27    28   am
    11    28    29    2
    12    28    31    1
    13    31    32   ar
    14    32    33   ar
    15    33    34   ar
    16    34    35   ar
    17    35    36   ar
    18    36    41    1
    19    41    42   ar
    20    42    43   ar
    21    43    44   ar
    22    44    45   ar
    23    45    46   ar
    24    36    37   ar
    25    37    38   ar
    26    38    39   ar
    27    39    40    1
    28     4     5   ar
    29     5     6   ar
    30     9    10    1
    31    10    11    1
    32    11    12    1
    33    12    15    1
    34    15    16    1
    35    16    17    1
    36    17    18   ar
    37    18    19   ar
    38    19    20   ar
    39    20    21   ar
    40    21    23    1
    41    23    24    2
    42    23    25    1
    43    21    22   ar
    44    12     7    1
    45    22    17   ar
    46     6     1   ar
    47    39    31   ar
    48    38    33   ar
    49    46    41   ar
    50    27    30    1
    51    25    26    1
@<TRIPOS>MOLECULE
*****
 46 51 0 0 0
SMALL
GASTEIGER

@<TRIPOS>ATOM
      1 C         -64.6372  -52.6857  -23.6366 C.ar    1  UNL1        0.1318
      2 C         -63.2830  -52.3877  -23.4201 C.ar    1  UNL1        0.0356
      3 C         -62.7889  -51.1332  -23.7799 C.ar    1  UNL1        0.0191
      4 C         -63.6390  -50.1754  -24.3446 C.ar    1  UNL1        0.0702
      5 C         -64.9773  -50.5256  -24.5843 C.ar    1  UNL1        0.1149
      6 N         -65.4359  -51.7550  -24.2294 N.ar    1  UNL1       -0.2279
      7 C         -67.4130  -55.0096  -22.8588 C.3     1  UNL1        0.0235
      8 C         -66.4078  -54.4813  -23.9233 C.3     1  UNL1        0.0922
      9 N         -65.1772  -53.9768  -23.2981 N.pl3   1  UNL1       -0.2932
     10 C         -64.3899  -54.8889  -22.4555 C.3     1  UNL1        0.0923
     11 C         -65.2787  -55.9744  -21.8249 C.3     1  UNL1        0.0252
     12 C         -66.6760  -55.3996  -21.5287 C.3     1  UNL1        0.0471
     13 C         -69.6529  -55.6733  -23.9289 C.3     1  UNL1        0.0001
     14 C         -68.2779  -56.1532  -23.4572 C.3     1  UNL1        0.0018
     15 C         -67.4667  -56.3303  -20.5838 C.3     1  UNL1        0.2054
     16 O         -68.2928  -55.5803  -19.6909 O.3     1  UNL1       -0.4755
     17 C         -69.6950  -55.5153  -19.7313 C.ar    1  UNL1        0.1388
     18 C         -70.4855  -56.4951  -20.3597 C.ar    1  UNL1        0.0369
     19 C         -71.8767  -56.3800  -20.3596 C.ar    1  UNL1        0.0033
     20 C         -72.4942  -55.2881  -19.7457 C.ar    1  UNL1        0.0066
     21 C         -71.7214  -54.2889  -19.1287 C.ar    1  UNL1        0.0785
     22 C         -70.3203  -54.4194  -19.1238 C.ar    1  UNL1        0.0433
     23 C         -72.3591  -53.1234  -18.4688 C.2     1  UNL1        0.3381
     24 O         -72.8403  -53.2469  -17.3109 O.2     1  UNL1       -0.2451
     25 O         -72.4313  -51.8764  -19.0888 O.3     1  UNL1       -0.4771
     26 H         -71.9772  -51.6784  -19.9707 H       1  UNL1        0.2954
     27 N         -63.1078  -48.8977  -24.7331 N.am    1  UNL1       -0.2766
     28 C         -63.4029  -48.2479  -25.9820 C.2     1  UNL1        0.2839
     29 O         -64.1067  -48.8262  -26.8524 O.2     1  UNL1       -0.2665
     30 H         -62.5168  -48.3976  -24.0339 H       1  UNL1        0.1553
     31 C         -62.8747  -46.9070  -26.2876 C.ar    1  UNL1        0.1946
     32 O         -62.0673  -46.2618  -25.4641 O.2     1  UNL1       -0.4492
     33 C         -61.7787  -45.1045  -26.0075 C.ar    1  UNL1        0.1452
     34 C         -60.9685  -44.1028  -25.4843 C.ar    1  UNL1        0.0375
     35 C         -60.7939  -42.9318  -26.2428 C.ar    1  UNL1        0.0031
     36 C         -61.4272  -42.7807  -27.5064 C.ar    1  UNL1        0.0002
     37 C         -62.2422  -43.8263  -28.0029 C.ar    1  UNL1        0.0028
     38 C         -62.3942  -44.9722  -27.2222 C.ar    1  UNL1        0.0337
     39 C         -63.1012  -46.1381  -27.4361 C.ar    1  UNL1        0.0202
     40 C         -63.8923  -46.4924  -28.6586 C.3     1  UNL1        0.0345
     41 C         -61.2356  -41.5396  -28.2989 C.ar    1  UNL1        0.0000
     42 C         -62.2124  -41.1228  -29.2234 C.ar    1  UNL1        0.0000
     43 C         -62.0296  -39.9536  -29.9682 C.ar    1  UNL1        0.0000
     44 C         -60.8737  -39.1882  -29.7991 C.ar    1  UNL1        0.0000
     45 C         -59.8977  -39.5906  -28.8847 C.ar    1  UNL1        0.0000
     46 C         -60.0748  -40.7594  -28.1379 C.ar    1  UNL1        0.0000
@<TRIPOS>BOND
     1    13    14    1
     2    14     7    1
     3     7     8    1
     4     8     9    1
     5     9     1    1
     6     1     2   ar
     7     2     3   ar
     8     3     4   ar
     9     4    27    1
    10    27    28   am
    11    28    29    2
    12    28    31    1
    13    31    32   ar
    14    32    33   ar
    15    33    34   ar
    16    34    35   ar
    17    35    36   ar
    18    36    41    1
    19    41    42   ar
    20    42    43   ar
    21    43    44   ar
    22    44    45   ar
    23    45    46   ar
    24    36    37   ar
    25    37    38   ar
    26    38    39   ar
    27    39    40    1
    28     4     5   ar
    29     5     6   ar
    30     9    10    1
    31    10    11    1
    32    11    12    1
    33    12    15    1
    34    15    16    1
    35    16    17    1
    36    17    18   ar
    37    18    19   ar
    38    19    20   ar
    39    20    21   ar
    40    21    23    1
    41    23    24    2
    42    23    25    1
    43    21    22   ar
    44    12     7    1
    45    22    17   ar
    46     6     1   ar
    47    39    31   ar
    48    38    33   ar
    49    46    41   ar
    50    27    30    1
    51    25    26    1
@<TRIPOS>MOLECULE
*****
 46 51 0 0 0
SMALL
GASTEIGER

@<TRIPOS>ATOM
      1 C         -61.3195  -42.6307  -22.4753 C.ar    1  UNL1        0.1318
      2 C         -61.0933  -42.1791  -21.1659 C.ar    1  UNL1        0.0356
      3 C         -61.9349  -41.2105  -20.6176 C.ar    1  UNL1        0.0191
      4 C         -63.0025  -40.6988  -21.3642 C.ar    1  UNL1        0.0702
      5 C         -63.1708  -41.1445  -22.6848 C.ar    1  UNL1        0.1149
      6 N         -62.3363  -42.0859  -23.1998 N.ar    1  UNL1       -0.2279
      7 C         -60.6765  -45.7260  -24.4031 C.3     1  UNL1        0.0235
      8 C         -60.7486  -44.1711  -24.4098 C.3     1  UNL1        0.0922
      9 N         -60.4588  -43.6130  -23.0816 N.pl3   1  UNL1       -0.2932
     10 C         -59.1686  -43.9281  -22.4510 C.3     1  UNL1        0.0923
     11 C         -58.6226  -45.2801  -22.9409 C.3     1  UNL1        0.0252
     12 C         -59.7892  -46.2464  -23.2173 C.3     1  UNL1        0.0471
     13 C         -61.4044  -46.7624  -26.6388 C.3     1  UNL1        0.0001
     14 C         -60.2332  -46.2495  -25.7971 C.3     1  UNL1        0.0018
     15 C         -59.2818  -47.6978  -23.3593 C.3     1  UNL1        0.2054
     16 O         -60.0159  -48.5873  -22.5154 O.3     1  UNL1       -0.4755
     17 C         -60.9724  -49.5216  -22.9445 C.ar    1  UNL1        0.1388
     18 C         -60.9279  -50.8799  -22.5799 C.ar    1  UNL1        0.0369
     19 C         -61.9130  -51.7599  -23.0314 C.ar    1  UNL1        0.0033
     20 C         -62.9434  -51.3026  -23.8556 C.ar    1  UNL1        0.0066
     21 C         -62.9953  -49.9532  -24.2465 C.ar    1  UNL1        0.0785
     22 C         -62.0045  -49.0712  -23.7769 C.ar    1  UNL1        0.0433
     23 C         -64.0836  -49.4480  -25.1188 C.2     1  UNL1        0.3381
     24 O         -63.8931  -49.3458  -26.3600 O.2     1  UNL1       -0.2451
     25 O         -65.3307  -49.0921  -24.6064 O.3     1  UNL1       -0.4771
     26 H         -65.5874  -49.2446  -23.6399 H       1  UNL1        0.2954
     27 N         -63.8437  -39.6830  -20.7932 N.am    1  UNL1       -0.2766
     28 C         -63.4387  -38.3165  -20.5983 C.2     1  UNL1        0.2839
     29 O         -62.2605  -37.9558  -20.8612 O.2     1  UNL1       -0.2665
     30 H         -64.8237  -39.9545  -20.5606 H       1  UNL1        0.1553
     31 C         -64.3758  -37.3116  -20.0668 C.ar    1  UNL1        0.1946
     32 O         -63.9630  -36.2163  -19.4536 O.2     1  UNL1       -0.4492
     33 C         -65.0218  -35.5322  -19.0948 C.ar    1  UNL1        0.1452
     34 C         -65.0553  -34.3192  -18.4158 C.ar    1  UNL1        0.0375
     35 C         -66.3121  -33.7573  -18.1302 C.ar    1  UNL1        0.0031
     36 C         -67.5102  -34.4118  -18.5262 C.ar    1  UNL1        0.0002
     37 C         -67.4308  -35.6446  -19.2177 C.ar    1  UNL1        0.0028
     38 C         -66.1671  -36.1729  -19.4817 C.ar    1  UNL1        0.0337
     39 C         -65.7747  -37.3260  -20.1309 C.ar    1  UNL1        0.0202
     40 C         -66.6712  -38.3311  -20.7883 C.3     1  UNL1        0.0345
     41 C         -68.8321  -33.8091  -18.2193 C.ar    1  UNL1        0.0000
     42 C         -70.0120  -34.3612  -18.7538 C.ar    1  UNL1        0.0000
     43 C         -71.2555  -33.7917  -18.4630 C.ar    1  UNL1        0.0000
     44 C         -71.3362  -32.6685  -17.6370 C.ar    1  UNL1        0.0000
     45 C         -70.1733  -32.1119  -17.1001 C.ar    1  UNL1        0.0000
     46 C         -68.9270  -32.6766  -17.3882 C.ar    1  UNL1        0.0000
@<TRIPOS>BOND
     1    13    14    1
     2    14     7    1
     3     7     8    1
     4     8     9    1
     5     9     1    1
     6     1     2   ar
     7     2     3   ar
     8     3     4   ar
     9     4    27    1
    10    27    28   am
    11    28    29    2
    12    28    31    1
    13    31    32   ar
    14    32    33   ar
    15    33    34   ar
    16    34    35   ar
    17    35    36   ar
    18    36    41    1
    19    41    42   ar
    20    42    43   ar
    21    43    44   ar
    22    44    45   ar
    23    45    46   ar
    24    36    37   ar
    25    37    38   ar
    26    38    39   ar
    27    39    40    1
    28     4     5   ar
    29     5     6   ar
    30     9    10    1
    31    10    11    1
    32    11    12    1
    33    12    15    1
    34    15    16    1
    35    16    17    1
    36    17    18   ar
    37    18    19   ar
    38    19    20   ar
    39    20    21   ar
    40    21    23    1
    41    23    24    2
    42    23    25    1
    43    21    22   ar
    44    12     7    1
    45    22    17   ar
    46     6     1   ar
    47    39    31   ar
    48    38    33   ar
    49    46    41   ar
    50    27    30    1
    51    25    26    1
@<TRIPOS>MOLECULE
*****
 46 51 0 0 0
SMALL
GASTEIGER

@<TRIPOS>ATOM
      1 C         -61.3099  -43.5340  -21.1765 C.ar    1  UNL1        0.1318
      2 C         -62.4850  -43.1830  -21.8587 C.ar    1  UNL1        0.0356
      3 C         -63.2284  -42.0837  -21.4271 C.ar    1  UNL1        0.0191
      4 C         -62.8012  -41.3308  -20.3273 C.ar    1  UNL1        0.0702
      5 C         -61.6436  -41.7384  -19.6454 C.ar    1  UNL1        0.1149
      6 N         -60.9373  -42.8151  -20.0812 N.ar    1  UNL1       -0.2279
      7 C         -59.0486  -45.3468  -23.4811 C.3     1  UNL1        0.0235
      8 C         -59.1927  -44.5189  -22.1709 C.3     1  UNL1        0.0922
      9 N         -60.5292  -44.6747  -21.5798 N.pl3   1  UNL1       -0.2932
     10 C         -60.9899  -46.0251  -21.2253 C.3     1  UNL1        0.0923
     11 C         -60.3232  -47.0930  -22.1092 C.3     1  UNL1        0.0252
     12 C         -60.0823  -46.5277  -23.5210 C.3     1  UNL1        0.0471
     13 C         -56.7609  -45.7366  -22.3779 C.3     1  UNL1        0.0001
     14 C         -57.5736  -45.7954  -23.6738 C.3     1  UNL1        0.0018
     15 C         -59.7550  -47.6587  -24.5200 C.3     1  UNL1        0.2054
     16 O         -60.9242  -48.0804  -25.2251 O.3     1  UNL1       -0.4755
     17 C         -61.8368  -49.0550  -24.7898 C.ar    1  UNL1        0.1388
     18 C         -63.2011  -49.0288  -25.1330 C.ar    1  UNL1        0.0369
     19 C         -64.0585  -50.0313  -24.6764 C.ar    1  UNL1        0.0033
     20 C         -63.5725  -51.0613  -23.8682 C.ar    1  UNL1        0.0066
     21 C         -62.2165  -51.0952  -23.4987 C.ar    1  UNL1        0.0785
     22 C         -61.3575  -50.0868  -23.9733 C.ar    1  UNL1        0.0433
     23 C         -61.6810  -52.1827  -22.6437 C.2     1  UNL1        0.3381
     24 O         -60.4766  -52.1521  -22.2749 O.2     1  UNL1       -0.2451
     25 O         -62.4798  -53.2430  -22.2169 O.3     1  UNL1       -0.4771
     26 H         -63.4762  -53.2789  -22.3878 H       1  UNL1        0.2954
     27 N         -63.5925  -40.2174  -19.8805 N.am    1  UNL1       -0.2766
     28 C         -63.3798  -38.8577  -20.2987 C.2     1  UNL1        0.2839
     29 O         -62.4079  -38.5633  -21.0445 O.2     1  UNL1       -0.2665
     30 H         -64.4016  -40.4306  -19.2574 H       1  UNL1        0.1553
     31 C         -64.2712  -37.7736  -19.8511 C.ar    1  UNL1        0.1946
     32 O         -63.8168  -36.6912  -19.2443 O.2     1  UNL1       -0.4492
     33 C         -64.8426  -35.9239  -18.9675 C.ar    1  UNL1        0.1452
     34 C         -64.8279  -34.6909  -18.3248 C.ar    1  UNL1        0.0375
     35 C         -66.0555  -34.0338  -18.1294 C.ar    1  UNL1        0.0031
     36 C         -67.2727  -34.6149  -18.5779 C.ar    1  UNL1        0.0002
     37 C         -67.2425  -35.8712  -19.2299 C.ar    1  UNL1        0.0028
     38 C         -66.0069  -36.4946  -19.4042 C.ar    1  UNL1        0.0337
     39 C         -65.6617  -37.6920  -19.9975 C.ar    1  UNL1        0.0202
     40 C         -66.5888  -38.6519  -20.6795 C.3     1  UNL1        0.0345
     41 C         -68.5635  -33.9119  -18.3663 C.ar    1  UNL1        0.0000
     42 C         -68.6309  -32.7713  -17.5435 C.ar    1  UNL1        0.0000
     43 C         -69.8476  -32.1112  -17.3462 C.ar    1  UNL1        0.0000
     44 C         -71.0079  -32.5794  -17.9667 C.ar    1  UNL1        0.0000
     45 C         -70.9541  -33.7093  -18.7858 C.ar    1  UNL1        0.0000
     46 C         -69.7403  -34.3739  -18.9859 C.ar    1  UNL1        0.0000
@<TRIPOS>BOND
     1    13    14    1
     2    14     7    1
     3     7     8    1
     4     8     9    1
     5     9     1    1
     6     1     2   ar
     7     2     3   ar
     8     3     4   ar
     9     4    27    1
    10    27    28   am
    11    28    29    2
    12    28    31    1
    13    31    32   ar
    14    32    33   ar
    15    33    34   ar
    16    34    35   ar
    17    35    36   ar
    18    36    41    1
    19    41    42   ar
    20    42    43   ar
    21    43    44   ar
    22    44    45   ar
    23    45    46   ar
    24    36    37   ar
    25    37    38   ar
    26    38    39   ar
    27    39    40    1
    28     4     5   ar
    29     5     6   ar
    30     9    10    1
    31    10    11    1
    32    11    12    1
    33    12    15    1
    34    15    16    1
    35    16    17    1
    36    17    18   ar
    37    18    19   ar
    38    19    20   ar
    39    20    21   ar
    40    21    23    1
    41    23    24    2
    42    23    25    1
    43    21    22   ar
    44    12     7    1
    45    22    17   ar
    46     6     1   ar
    47    39    31   ar
    48    38    33   ar
    49    46    41   ar
    50    27    30    1
    51    25    26    1
