@<TRIPOS>MOLECULE
*****
 52 57 0 0 0
SMALL
GASTEIGER

@<TRIPOS>ATOM
      1 C          60.1097   87.5017    9.4998 C.ar    1  UNL1        0.0502
      2 C          59.3955   86.2940    9.4178 C.ar    1  UNL1        0.0148
      3 C          59.4960   85.3389   10.4317 C.ar    1  UNL1        0.0080
      4 C          60.3029   85.5734   11.5560 C.ar    1  UNL1        0.0808
      5 C          61.0412   86.7690   11.6297 C.ar    1  UNL1        0.1457
      6 F          61.8868   87.0050   12.6647 F       1  UNL1       -0.2040
      7 C          60.9426   87.7216   10.6107 C.ar    1  UNL1        0.0443
      8 N          60.0407   90.3165    6.2717 N.pl3   1  UNL1       -0.2897
      9 C          58.8745   89.4401    6.4525 C.3     1  UNL1        0.1136
     10 C          59.2665   88.1746    7.2213 C.3     1  UNL1        0.1123
     11 N          59.9987   88.4949    8.4565 N.pl3   1  UNL1       -0.3040
     12 C          60.5110   89.8555    8.6727 C.3     1  UNL1        0.1123
     13 C          61.0232   90.4573    7.3599 C.3     1  UNL1        0.1136
     14 C          61.4143   92.0750    3.2269 C.ar    1  UNL1       -0.0143
     15 C          61.3367   91.2619    4.3753 C.ar    1  UNL1        0.0300
     16 C          60.1356   91.1426    5.0890 C.ar    1  UNL1        0.1315
     17 N          59.0413   91.8164    4.6503 N.ar    1  UNL1       -0.2292
     18 C          59.0643   92.6077    3.5498 C.ar    1  UNL1        0.1038
     19 C          60.2452   92.7679    2.8003 C.ar    1  UNL1        0.0867
     20 C          60.2306   93.6634    1.5743 C.3     1  UNL1        0.4197
     21 F          60.7855   94.8920    1.8854 F       1  UNL1       -0.1658
     22 F          60.9598   93.1218    0.5292 F       1  UNL1       -0.1658
     23 F          58.9295   93.8373    1.1373 F       1  UNL1       -0.1658
     24 C          63.7089   91.0589    2.9372 C.3     1  UNL1        0.0047
     25 C          62.7497   92.1690    2.4886 C.3     1  UNL1        0.0225
     26 C          63.3869   93.5535    2.6678 C.3     1  UNL1        0.0047
     27 C          60.3398   84.5737   12.6458 C.2     1  UNL1        0.2483
     28 O          59.2815   84.3138   13.2813 O.2     1  UNL1       -0.2701
     29 N          61.5789   83.9574   13.0320 N.am    1  UNL1       -0.2945
     30 H          62.4536   84.2929   12.5695 H       1  UNL1        0.1501
     31 C          61.7132   83.1852   14.2739 C.3     1  UNL1        0.1535
     32 C          61.1805   81.7828   14.1013 C.2     1  UNL1        0.2443
     33 O          61.8375   80.7989   14.5397 O.2     1  UNL1       -0.2730
     34 N          59.8789   81.5853   13.5262 N.am    1  UNL1       -0.2825
     35 H          59.2502   82.4168   13.4490 H       1  UNL1        0.1549
     36 C          59.3437   80.3003   13.1667 C.ar    1  UNL1        0.0535
     37 C          59.0968   80.0097   11.8181 C.ar    1  UNL1        0.0353
     38 C          58.5970   78.7551   11.4609 C.ar    1  UNL1        0.1002
     39 N          58.3674   77.8157   12.4159 N.ar    1  UNL1       -0.2422
     40 C          58.6156   78.0606   13.7296 C.ar    1  UNL1        0.1002
     41 C          59.1146   79.3028   14.1298 C.ar    1  UNL1        0.0353
     42 C          63.1795   83.1723   14.7528 C.3     1  UNL1        0.0569
     43 C          63.7343   84.5547   14.9677 C.ar    1  UNL1       -0.0017
     44 C          64.9778   85.0215   14.5512 C.ar    1  UNL1        0.0681
     45 N          65.0964   86.3443   14.8077 N.ar    1  UNL1       -0.3523
     46 C          63.9368   86.7187   15.3753 C.ar    1  UNL1        0.0563
     47 C          63.5717   88.0008   15.7844 C.ar    1  UNL1        0.0170
     48 C          62.2864   88.1769   16.3294 C.ar    1  UNL1        0.0015
     49 C          61.4065   87.0794   16.4558 C.ar    1  UNL1        0.0001
     50 C          61.8038   85.7968   16.0385 C.ar    1  UNL1        0.0012
     51 C          63.0805   85.6540   15.4930 C.ar    1  UNL1        0.0131
     52 H          65.9160   86.9524   14.5865 H       1  UNL1        0.1660
@<TRIPOS>BOND
     1    24    25    1
     2    25    26    1
     3    25    14    1
     4    14    15   ar
     5    15    16   ar
     6    16     8    1
     7     8     9    1
     8     9    10    1
     9    10    11    1
    10    11     1    1
    11     1     2   ar
    12     2     3   ar
    13     3     4   ar
    14     4    27    1
    15    27    28    2
    16    27    29   am
    17    29    31    1
    18    31    42    1
    19    42    43    1
    20    43    44   ar
    21    44    45   ar
    22    45    46   ar
    23    46    47   ar
    24    47    48   ar
    25    48    49   ar
    26    49    50   ar
    27    50    51   ar
    28    31    32    1
    29    32    33    2
    30    32    34   am
    31    34    36    1
    32    36    37   ar
    33    37    38   ar
    34    38    39   ar
    35    39    40   ar
    36    40    41   ar
    37     4     5   ar
    38     5     6    1
    39     5     7   ar
    40    11    12    1
    41    12    13    1
    42    16    17   ar
    43    17    18   ar
    44    18    19   ar
    45    19    20    1
    46    20    21    1
    47    20    22    1
    48    20    23    1
    49    19    14   ar
    50    13     8    1
    51     7     1   ar
    52    51    43   ar
    53    41    36   ar
    54    51    46   ar
    55    29    30    1
    56    45    52    1
    57    34    35    1
@<TRIPOS>MOLECULE
*****
 52 57 0 0 0
SMALL
GASTEIGER

@<TRIPOS>ATOM
      1 C          59.7574   89.0018    7.7421 C.ar    1  UNL1        0.0502
      2 C          60.4173   89.3414    8.9357 C.ar    1  UNL1        0.0148
      3 C          60.4391   88.4531   10.0130 C.ar    1  UNL1        0.0080
      4 C          59.8123   87.2008    9.9186 C.ar    1  UNL1        0.0808
      5 C          59.1271   86.8672    8.7357 C.ar    1  UNL1        0.1457
      6 F          58.4491   85.6965    8.6278 F       1  UNL1       -0.2040
      7 C          59.1026   87.7606    7.6602 C.ar    1  UNL1        0.0443
      8 N          59.7766   91.4610    4.2349 N.pl3   1  UNL1       -0.2897
      9 C          58.5440   91.4019    5.0335 C.3     1  UNL1        0.1136
     10 C          58.5001   90.1137    5.8610 C.3     1  UNL1        0.1123
     11 N          59.7428   89.9157    6.6233 N.pl3   1  UNL1       -0.3040
     12 C          60.9269   90.7316    6.3190 C.3     1  UNL1        0.1123
     13 C          61.0431   90.9779    4.8111 C.3     1  UNL1        0.1136
     14 C          60.9213   93.1780    1.0740 C.ar    1  UNL1       -0.0143
     15 C          60.9512   92.5275    2.3237 C.ar    1  UNL1        0.0300
     16 C          59.7634   92.1250    2.9507 C.ar    1  UNL1        0.1315
     17 N          58.5796   92.3630    2.3294 N.ar    1  UNL1       -0.2292
     18 C          58.4987   92.9818    1.1260 C.ar    1  UNL1        0.1038
     19 C          59.6595   93.4120    0.4558 C.ar    1  UNL1        0.0867
     20 C          59.5272   94.1019   -0.8902 C.3     1  UNL1        0.4197
     21 F          60.6394   94.8911   -1.1231 F       1  UNL1       -0.1658
     22 F          59.4276   93.1929   -1.9300 F       1  UNL1       -0.1658
     23 F          58.3880   94.8869   -0.9036 F       1  UNL1       -0.1658
     24 C          62.5915   92.7004   -0.7601 C.3     1  UNL1        0.0047
     25 C          62.2468   93.5958    0.4372 C.3     1  UNL1        0.0225
     26 C          63.3826   93.5971    1.4692 C.3     1  UNL1        0.0047
     27 C          59.9068   86.2531   11.0505 C.2     1  UNL1        0.2483
     28 O          58.8499   85.8554   11.6127 O.2     1  UNL1       -0.2701
     29 N          61.1874   85.8449   11.5584 N.am    1  UNL1       -0.2945
     30 H          62.0378   86.2948   11.1509 H       1  UNL1        0.1501
     31 C          61.3313   85.1416   12.8395 C.3     1  UNL1        0.1535
     32 C          60.9575   83.6848   12.7039 C.2     1  UNL1        0.2443
     33 O          61.8551   82.7981   12.7186 O.2     1  UNL1       -0.2730
     34 N          59.5713   83.3104   12.6587 N.am    1  UNL1       -0.2825
     35 H          58.8648   84.0268   12.9422 H       1  UNL1        0.1549
     36 C          59.1047   81.9817   12.3690 C.ar    1  UNL1        0.0535
     37 C          58.4956   81.7194   11.1344 C.ar    1  UNL1        0.0353
     38 C          58.0598   80.4255   10.8390 C.ar    1  UNL1        0.1002
     39 N          58.2412   79.4230   11.7387 N.ar    1  UNL1       -0.2422
     40 C          58.8462   79.6419   12.9360 C.ar    1  UNL1        0.1002
     41 C          59.2958   80.9215   13.2715 C.ar    1  UNL1        0.0353
     42 C          62.7619   85.3035   13.3934 C.3     1  UNL1        0.0569
     43 C          62.9133   86.5175   14.2698 C.ar    1  UNL1       -0.0017
     44 C          63.0166   86.5287   15.6579 C.ar    1  UNL1        0.0681
     45 N          63.2610   87.7821   16.1038 N.ar    1  UNL1       -0.3523
     46 C          63.3204   88.5612   15.0100 C.ar    1  UNL1        0.0563
     47 C          63.5864   89.9291   14.9606 C.ar    1  UNL1        0.0170
     48 C          63.6329   90.5455   13.6965 C.ar    1  UNL1        0.0015
     49 C          63.4110   89.7904   12.5238 C.ar    1  UNL1        0.0001
     50 C          63.1407   88.4128   12.6048 C.ar    1  UNL1        0.0012
     51 C          63.1101   87.8268   13.8710 C.ar    1  UNL1        0.0131
     52 H          63.3982   88.0763   17.0963 H       1  UNL1        0.1660
@<TRIPOS>BOND
     1    24    25    1
     2    25    26    1
     3    25    14    1
     4    14    15   ar
     5    15    16   ar
     6    16     8    1
     7     8     9    1
     8     9    10    1
     9    10    11    1
    10    11     1    1
    11     1     2   ar
    12     2     3   ar
    13     3     4   ar
    14     4    27    1
    15    27    28    2
    16    27    29   am
    17    29    31    1
    18    31    42    1
    19    42    43    1
    20    43    44   ar
    21    44    45   ar
    22    45    46   ar
    23    46    47   ar
    24    47    48   ar
    25    48    49   ar
    26    49    50   ar
    27    50    51   ar
    28    31    32    1
    29    32    33    2
    30    32    34   am
    31    34    36    1
    32    36    37   ar
    33    37    38   ar
    34    38    39   ar
    35    39    40   ar
    36    40    41   ar
    37     4     5   ar
    38     5     6    1
    39     5     7   ar
    40    11    12    1
    41    12    13    1
    42    16    17   ar
    43    17    18   ar
    44    18    19   ar
    45    19    20    1
    46    20    21    1
    47    20    22    1
    48    20    23    1
    49    19    14   ar
    50    13     8    1
    51     7     1   ar
    52    51    43   ar
    53    41    36   ar
    54    51    46   ar
    55    29    30    1
    56    45    52    1
    57    34    35    1
@<TRIPOS>MOLECULE
*****
 52 57 0 0 0
SMALL
GASTEIGER

@<TRIPOS>ATOM
      1 C          60.4136   87.4128    9.7534 C.ar    1  UNL1        0.0502
      2 C          60.6925   87.8621   11.0556 C.ar    1  UNL1        0.0148
      3 C          60.9136   86.9500   12.0898 C.ar    1  UNL1        0.0080
      4 C          60.8728   85.5687   11.8443 C.ar    1  UNL1        0.0808
      5 C          60.5670   85.1138   10.5483 C.ar    1  UNL1        0.1457
      6 F          60.4487   83.7880   10.2833 F       1  UNL1       -0.2040
      7 C          60.3411   86.0292    9.5157 C.ar    1  UNL1        0.0443
      8 N          60.0515   90.1237    6.4566 N.pl3   1  UNL1       -0.2897
      9 C          59.0492   89.0569    6.5903 C.3     1  UNL1        0.1136
     10 C          59.6092   87.8923    7.4127 C.3     1  UNL1        0.1123
     11 N          60.1947   88.3554    8.6805 N.pl3   1  UNL1       -0.3040
     12 C          60.4445   89.7882    8.8922 C.3     1  UNL1        0.1123
     13 C          60.9238   90.4524    7.5971 C.3     1  UNL1        0.1136
     14 C          61.2523   91.9014    3.3506 C.ar    1  UNL1       -0.0143
     15 C          61.2463   91.1021    4.5111 C.ar    1  UNL1        0.0300
     16 C          60.0732   90.9364    5.2611 C.ar    1  UNL1        0.1315
     17 N          58.9360   91.5514    4.8459 N.ar    1  UNL1       -0.2292
     18 C          58.8898   92.3271    3.7351 C.ar    1  UNL1        0.1038
     19 C          60.0398   92.5322    2.9494 C.ar    1  UNL1        0.0867
     20 C          59.9476   93.4084    1.7129 C.3     1  UNL1        0.4197
     21 F          58.6822   93.3095    1.1623 F       1  UNL1       -0.1658
     22 F          60.1792   94.7419    2.0053 F       1  UNL1       -0.1658
     23 F          60.8921   93.0083    0.7845 F       1  UNL1       -0.1658
     24 C          63.5784   90.9817    2.9969 C.3     1  UNL1        0.0047
     25 C          62.5600   92.0478    2.5724 C.3     1  UNL1        0.0225
     26 C          63.1429   93.4590    2.7267 C.3     1  UNL1        0.0047
     27 C          61.1755   84.6257   12.9431 C.2     1  UNL1        0.2483
     28 O          60.4584   84.6362   13.9809 O.2     1  UNL1       -0.2701
     29 N          62.3176   83.7571   12.8685 N.am    1  UNL1       -0.2945
     30 H          62.9601   83.8681   12.0521 H       1  UNL1        0.1501
     31 C          62.8147   83.0186   14.0364 C.3     1  UNL1        0.1535
     32 C          62.8705   83.9065   15.2565 C.2     1  UNL1        0.2443
     33 O          62.7172   83.4105   16.4065 O.2     1  UNL1       -0.2730
     34 N          63.1977   85.2973   15.1061 N.am    1  UNL1       -0.2825
     35 H          63.6023   85.6056   14.1930 H       1  UNL1        0.1549
     36 C          63.1196   86.2626   16.1687 C.ar    1  UNL1        0.0535
     37 C          63.3168   87.6202   15.8819 C.ar    1  UNL1        0.0353
     38 C          63.2209   88.5648   16.9066 C.ar    1  UNL1        0.1002
     39 N          62.9213   88.1698   18.1721 N.ar    1  UNL1       -0.2422
     40 C          62.7052   86.8631   18.4775 C.ar    1  UNL1        0.1002
     41 C          62.7926   85.8861   17.4826 C.ar    1  UNL1        0.0353
     42 C          61.9551   81.7642   14.2955 C.3     1  UNL1        0.0569
     43 C          61.5797   81.0435   13.0288 C.ar    1  UNL1       -0.0017
     44 C          62.3464   80.0950   12.3577 C.ar    1  UNL1        0.0681
     45 N          61.6498   79.5691   11.3244 N.ar    1  UNL1       -0.3523
     46 C          60.4480   80.1710   11.3410 C.ar    1  UNL1        0.0563
     47 C          59.3718   79.9325   10.4870 C.ar    1  UNL1        0.0170
     48 C          58.1859   80.6581   10.7039 C.ar    1  UNL1        0.0015
     49 C          58.1045   81.5982   11.7548 C.ar    1  UNL1        0.0001
     50 C          59.2077   81.8207   12.5978 C.ar    1  UNL1        0.0012
     51 C          60.3673   81.0798   12.3649 C.ar    1  UNL1        0.0131
     52 H          61.9756   78.8287   10.6641 H       1  UNL1        0.1660
@<TRIPOS>BOND
     1    24    25    1
     2    25    26    1
     3    25    14    1
     4    14    15   ar
     5    15    16   ar
     6    16     8    1
     7     8     9    1
     8     9    10    1
     9    10    11    1
    10    11     1    1
    11     1     2   ar
    12     2     3   ar
    13     3     4   ar
    14     4    27    1
    15    27    28    2
    16    27    29   am
    17    29    31    1
    18    31    42    1
    19    42    43    1
    20    43    44   ar
    21    44    45   ar
    22    45    46   ar
    23    46    47   ar
    24    47    48   ar
    25    48    49   ar
    26    49    50   ar
    27    50    51   ar
    28    31    32    1
    29    32    33    2
    30    32    34   am
    31    34    36    1
    32    36    37   ar
    33    37    38   ar
    34    38    39   ar
    35    39    40   ar
    36    40    41   ar
    37     4     5   ar
    38     5     6    1
    39     5     7   ar
    40    11    12    1
    41    12    13    1
    42    16    17   ar
    43    17    18   ar
    44    18    19   ar
    45    19    20    1
    46    20    21    1
    47    20    22    1
    48    20    23    1
    49    19    14   ar
    50    13     8    1
    51     7     1   ar
    52    51    43   ar
    53    41    36   ar
    54    51    46   ar
    55    29    30    1
    56    45    52    1
    57    34    35    1
@<TRIPOS>MOLECULE
*****
 52 57 0 0 0
SMALL
GASTEIGER

@<TRIPOS>ATOM
      1 C          61.4424   87.4455   13.6404 C.ar    1  UNL1        0.0502
      2 C          60.6060   86.8951   14.6268 C.ar    1  UNL1        0.0148
      3 C          59.7222   85.8605   14.3124 C.ar    1  UNL1        0.0080
      4 C          59.6620   85.3444   13.0085 C.ar    1  UNL1        0.0808
      5 C          60.4777   85.9105   12.0114 C.ar    1  UNL1        0.1457
      6 F          60.4008   85.4888   10.7236 F       1  UNL1       -0.2040
      7 C          61.3583   86.9496   12.3277 C.ar    1  UNL1        0.0443
      8 N          64.3996   90.3735   14.6555 N.pl3   1  UNL1       -0.2897
      9 C          63.7914   90.4368   13.3188 C.3     1  UNL1        0.1136
     10 C          63.2303   89.0692   12.9175 C.3     1  UNL1        0.1123
     11 N          62.3644   88.5089   13.9667 N.pl3   1  UNL1       -0.3040
     12 C          62.3567   89.1090   15.3083 C.3     1  UNL1        0.1123
     13 C          63.7649   89.5620   15.7081 C.3     1  UNL1        0.1136
     14 C          67.6825   92.2166   14.3806 C.ar    1  UNL1       -0.0143
     15 C          66.5864   91.3907   14.0610 C.ar    1  UNL1        0.0300
     16 C          65.5289   91.2210   14.9662 C.ar    1  UNL1        0.1315
     17 N          65.5716   91.8745   16.1557 N.ar    1  UNL1       -0.2292
     18 C          66.6017   92.6823   16.5079 C.ar    1  UNL1        0.1038
     19 C          67.6915   92.8828   15.6397 C.ar    1  UNL1        0.0867
     20 C          68.8263   93.7946   16.0708 C.3     1  UNL1        0.4197
     21 F          69.7523   93.0747   16.8046 F       1  UNL1       -0.1658
     22 F          69.4845   94.3498   14.9864 F       1  UNL1       -0.1658
     23 F          68.3274   94.8312   16.8393 F       1  UNL1       -0.1658
     24 C          68.3276   91.9867   11.9490 C.3     1  UNL1        0.0047
     25 C          68.8079   92.3640   13.3565 C.3     1  UNL1        0.0225
     26 C          70.0368   91.5379   13.7592 C.3     1  UNL1        0.0047
     27 C          58.7645   84.2049   12.7183 C.2     1  UNL1        0.2483
     28 O          57.5168   84.3600   12.8206 O.2     1  UNL1       -0.2701
     29 N          59.3032   82.9122   12.3967 N.am    1  UNL1       -0.2945
     30 H          60.3398   82.7912   12.4479 H       1  UNL1        0.1501
     31 C          58.4719   81.7018   12.3802 C.3     1  UNL1        0.1535
     32 C          58.2377   81.2234   10.9672 C.2     1  UNL1        0.2443
     33 O          57.5692   80.1739   10.7581 O.2     1  UNL1       -0.2730
     34 N          58.6942   82.0224    9.8640 N.am    1  UNL1       -0.2825
     35 H          58.9748   83.0097   10.0620 H       1  UNL1        0.1549
     36 C          58.6717   81.5905    8.4929 C.ar    1  UNL1        0.0535
     37 C          59.8104   80.9870    7.9420 C.ar    1  UNL1        0.0353
     38 C          59.7870   80.5459    6.6168 C.ar    1  UNL1        0.1002
     39 N          58.6593   80.6868    5.8712 N.ar    1  UNL1       -0.2422
     40 C          57.5332   81.2498    6.3832 C.ar    1  UNL1        0.1002
     41 C          57.5144   81.7054    7.7039 C.ar    1  UNL1        0.0353
     42 C          59.1029   80.5944   13.2491 C.3     1  UNL1        0.0569
     43 C          60.5910   80.4797   13.0564 C.ar    1  UNL1       -0.0017
     44 C          61.2483   79.6222   12.1786 C.ar    1  UNL1        0.0681
     45 N          62.5778   79.8711   12.1813 N.ar    1  UNL1       -0.3523
     46 C          62.7654   80.8824   13.0467 C.ar    1  UNL1        0.0563
     47 C          63.9687   81.5130   13.3613 C.ar    1  UNL1        0.0170
     48 C          63.9327   82.5802   14.2777 C.ar    1  UNL1        0.0015
     49 C          62.7097   82.9859   14.8557 C.ar    1  UNL1        0.0001
     50 C          61.5122   82.3283   14.5226 C.ar    1  UNL1        0.0012
     51 C          61.5770   81.2798   13.6039 C.ar    1  UNL1        0.0131
     52 H          63.3048   79.3882   11.6080 H       1  UNL1        0.1660
@<TRIPOS>BOND
     1    24    25    1
     2    25    26    1
     3    25    14    1
     4    14    15   ar
     5    15    16   ar
     6    16     8    1
     7     8     9    1
     8     9    10    1
     9    10    11    1
    10    11     1    1
    11     1     2   ar
    12     2     3   ar
    13     3     4   ar
    14     4    27    1
    15    27    28    2
    16    27    29   am
    17    29    31    1
    18    31    42    1
    19    42    43    1
    20    43    44   ar
    21    44    45   ar
    22    45    46   ar
    23    46    47   ar
    24    47    48   ar
    25    48    49   ar
    26    49    50   ar
    27    50    51   ar
    28    31    32    1
    29    32    33    2
    30    32    34   am
    31    34    36    1
    32    36    37   ar
    33    37    38   ar
    34    38    39   ar
    35    39    40   ar
    36    40    41   ar
    37     4     5   ar
    38     5     6    1
    39     5     7   ar
    40    11    12    1
    41    12    13    1
    42    16    17   ar
    43    17    18   ar
    44    18    19   ar
    45    19    20    1
    46    20    21    1
    47    20    22    1
    48    20    23    1
    49    19    14   ar
    50    13     8    1
    51     7     1   ar
    52    51    43   ar
    53    41    36   ar
    54    51    46   ar
    55    29    30    1
    56    45    52    1
    57    34    35    1
@<TRIPOS>MOLECULE
*****
 52 57 0 0 0
SMALL
GASTEIGER

@<TRIPOS>ATOM
      1 C          61.6093   87.5847   11.5131 C.ar    1  UNL1        0.0502
      2 C          60.5965   86.8645   12.1696 C.ar    1  UNL1        0.0148
      3 C          59.8173   85.9385   11.4728 C.ar    1  UNL1        0.0080
      4 C          60.0397   85.7022   10.1072 C.ar    1  UNL1        0.0808
      5 C          61.0341   86.4405    9.4393 C.ar    1  UNL1        0.1457
      6 F          61.2350   86.2938    8.1050 F       1  UNL1       -0.2040
      7 C          61.8097   87.3707   10.1383 C.ar    1  UNL1        0.0443
      8 N          64.2781   90.2348   13.5632 N.pl3   1  UNL1       -0.2897
      9 C          63.4336   90.7902   12.4959 C.3     1  UNL1        0.1136
     10 C          62.9990   89.6881   11.5251 C.3     1  UNL1        0.1123
     11 N          62.4228   88.5356   12.2351 N.pl3   1  UNL1       -0.3040
     12 C          62.5786   88.4199   13.6920 C.3     1  UNL1        0.1123
     13 C          63.9617   88.9130   14.1305 C.3     1  UNL1        0.1136
     14 C          67.5107   92.1272   14.0312 C.ar    1  UNL1       -0.0143
     15 C          66.5025   91.3343   13.4477 C.ar    1  UNL1        0.0300
     16 C          65.3199   91.0506   14.1457 C.ar    1  UNL1        0.1315
     17 N          65.1551   91.5613   15.3931 N.ar    1  UNL1       -0.2292
     18 C          66.0934   92.3319   15.9959 C.ar    1  UNL1        0.1038
     19 C          67.3013   92.6422   15.3428 C.ar    1  UNL1        0.0867
     20 C          68.3276   93.5078   16.0516 C.3     1  UNL1        0.4197
     21 F          69.2699   92.7054   16.6700 F       1  UNL1       -0.1658
     22 F          68.9948   94.3441   15.1725 F       1  UNL1       -0.1658
     23 F          67.6992   94.3004   16.9955 F       1  UNL1       -0.1658
     24 C          68.5457   92.1671   11.7272 C.3     1  UNL1        0.0047
     25 C          68.7798   92.4033   13.2249 C.3     1  UNL1        0.0225
     26 C          69.9572   91.5632   13.7378 C.3     1  UNL1        0.0047
     27 C          59.2441   84.6689    9.4091 C.2     1  UNL1        0.2483
     28 O          57.9851   84.7091    9.4762 O.2     1  UNL1       -0.2701
     29 N          59.8922   83.5852    8.7234 N.am    1  UNL1       -0.2945
     30 H          60.9320   83.5150    8.7988 H       1  UNL1        0.1501
     31 C          59.1567   82.3997    8.2653 C.3     1  UNL1        0.1535
     32 C          60.0105   81.1584    8.3669 C.2     1  UNL1        0.2443
     33 O          59.9431   80.2702    7.4733 O.2     1  UNL1       -0.2730
     34 N          60.9688   81.0429    9.4309 N.am    1  UNL1       -0.2825
     35 H          61.2036   81.9074    9.9697 H       1  UNL1        0.1549
     36 C          61.7129   79.8468    9.7186 C.ar    1  UNL1        0.0535
     37 C          62.8448   79.5385    8.9519 C.ar    1  UNL1        0.0353
     38 C          63.5840   78.3889    9.2408 C.ar    1  UNL1        0.1002
     39 N          63.2158   77.5828   10.2714 N.ar    1  UNL1       -0.2422
     40 C          62.1349   77.8657   11.0453 C.ar    1  UNL1        0.1002
     41 C          61.3675   79.0050   10.7897 C.ar    1  UNL1        0.0353
     42 C          57.8383   82.2384    9.0498 C.3     1  UNL1        0.0569
     43 C          57.9025   81.1406   10.0772 C.ar    1  UNL1       -0.0017
     44 C          57.5122   79.8164    9.8992 C.ar    1  UNL1        0.0681
     45 N          57.8203   79.0816   10.9922 N.ar    1  UNL1       -0.3523
     46 C          58.4082   79.9276   11.8558 C.ar    1  UNL1        0.0563
     47 C          58.9319   79.6238   13.1119 C.ar    1  UNL1        0.0170
     48 C          59.5365   80.6637   13.8420 C.ar    1  UNL1        0.0015
     49 C          59.5997   81.9698   13.3083 C.ar    1  UNL1        0.0001
     50 C          59.0591   82.2474   12.0403 C.ar    1  UNL1        0.0012
     51 C          58.4742   81.1946   11.3351 C.ar    1  UNL1        0.0131
     52 H          57.6542   78.0592   11.1246 H       1  UNL1        0.1660
@<TRIPOS>BOND
     1    24    25    1
     2    25    26    1
     3    25    14    1
     4    14    15   ar
     5    15    16   ar
     6    16     8    1
     7     8     9    1
     8     9    10    1
     9    10    11    1
    10    11     1    1
    11     1     2   ar
    12     2     3   ar
    13     3     4   ar
    14     4    27    1
    15    27    28    2
    16    27    29   am
    17    29    31    1
    18    31    42    1
    19    42    43    1
    20    43    44   ar
    21    44    45   ar
    22    45    46   ar
    23    46    47   ar
    24    47    48   ar
    25    48    49   ar
    26    49    50   ar
    27    50    51   ar
    28    31    32    1
    29    32    33    2
    30    32    34   am
    31    34    36    1
    32    36    37   ar
    33    37    38   ar
    34    38    39   ar
    35    39    40   ar
    36    40    41   ar
    37     4     5   ar
    38     5     6    1
    39     5     7   ar
    40    11    12    1
    41    12    13    1
    42    16    17   ar
    43    17    18   ar
    44    18    19   ar
    45    19    20    1
    46    20    21    1
    47    20    22    1
    48    20    23    1
    49    19    14   ar
    50    13     8    1
    51     7     1   ar
    52    51    43   ar
    53    41    36   ar
    54    51    46   ar
    55    29    30    1
    56    45    52    1
    57    34    35    1
