@<TRIPOS>MOLECULE
*****
 50 55 0 0 0
SMALL
GASTEIGER

@<TRIPOS>ATOM
      1 C          61.8729   82.2884    9.4542 C.3     1  UNL1        0.1535
      2 N          61.8682   83.5537   10.2053 N.am    1  UNL1       -0.2945
      3 C          62.8238   83.8326   11.2412 C.2     1  UNL1        0.2483
      4 O          63.5633   82.9045   11.6702 O.2     1  UNL1       -0.2701
      5 H          61.0818   84.2272   10.0733 H       1  UNL1        0.1501
      6 C          62.9463   85.1890   11.8346 C.ar    1  UNL1        0.0808
      7 C          62.4461   86.2965   11.1265 C.ar    1  UNL1        0.0080
      8 C          62.5248   87.5832   11.6645 C.ar    1  UNL1        0.0148
      9 C          63.0913   87.7908   12.9299 C.ar    1  UNL1        0.0502
     10 C          63.5893   86.6902   13.6432 C.ar    1  UNL1        0.0443
     11 C          63.5177   85.4008   13.1080 C.ar    1  UNL1        0.1457
     12 F          63.9702   84.3689   13.8629 F       1  UNL1       -0.2040
     13 N          63.1754   89.1174   13.4837 N.pl3   1  UNL1       -0.3040
     14 C          63.6218   90.2326   12.6327 C.3     1  UNL1        0.1122
     15 C          63.8843   91.4962   13.4599 C.3     1  UNL1        0.1122
     16 N          64.6012   91.1421   14.6933 N.pl3   1  UNL1       -0.3040
     17 C          64.0775   90.0725   15.5590 C.3     1  UNL1        0.1122
     18 C          62.8902   89.3556   14.9059 C.3     1  UNL1        0.1122
     19 C          65.8497   91.7787   15.0267 C.ar    1  UNL1        0.0488
     20 C          65.9496   92.5961   16.1645 C.ar    1  UNL1        0.0154
     21 C          67.1567   93.2247   16.4797 C.ar    1  UNL1        0.0135
     22 C          68.2781   93.0499   15.6626 C.ar    1  UNL1        0.0683
     23 CL         69.7797   93.8581   16.0917 Cl      1  UNL1       -0.0814
     24 C          68.1873   92.2397   14.5186 C.ar    1  UNL1        0.0694
     25 CL         69.5730   91.9934   13.4642 Cl      1  UNL1       -0.0813
     26 C          66.9764   91.6112   14.2041 C.ar    1  UNL1        0.0268
     27 C          61.2978   81.1566   10.2750 C.2     1  UNL1        0.2443
     28 O          61.8763   80.0353   10.2950 O.2     1  UNL1       -0.2730
     29 N          60.1608   81.3990   11.1193 N.am    1  UNL1       -0.2825
     30 H          59.8498   82.3893   11.2429 H       1  UNL1        0.1549
     31 C          59.5687   80.3993   11.9651 C.ar    1  UNL1        0.0535
     32 C          59.5776   80.5226   13.3643 C.ar    1  UNL1        0.0353
     33 C          58.9976   79.5211   14.1471 C.ar    1  UNL1        0.1002
     34 N          58.4411   78.4301   13.5574 N.ar    1  UNL1       -0.2422
     35 C          58.4344   78.2766   12.2069 C.ar    1  UNL1        0.1002
     36 C          59.0055   79.2534   11.3878 C.ar    1  UNL1        0.0353
     37 C          61.1356   82.4282    8.1014 C.3     1  UNL1        0.0569
     38 C          58.6231   83.1579    8.3234 C.ar    1  UNL1        0.0878
     39 N          57.9381   84.3205    8.4491 N.ar    1  UNL1       -0.3511
     40 C          58.8437   85.3044    8.3304 C.ar    1  UNL1        0.0564
     41 C          58.6055   86.6772    8.3847 C.ar    1  UNL1        0.0170
     42 C          59.7022   87.5430    8.2269 C.ar    1  UNL1        0.0015
     43 C          60.9964   87.0236    8.0102 C.ar    1  UNL1        0.0001
     44 C          61.2063   85.6342    7.9560 C.ar    1  UNL1        0.0012
     45 C          60.1022   84.7966    8.1339 C.ar    1  UNL1        0.0132
     46 C          59.9922   83.4155    8.1416 C.ar    1  UNL1       -0.0002
     47 H          56.9092   84.4375    8.5868 H       1  UNL1        0.1660
     48 C          57.7878   81.0455    7.0898 C.3     1  UNL1        0.0788
     49 C          57.9642   81.8337    8.3484 C.2     1  UNL1        0.1886
     50 O          57.5911   81.3299    9.4405 O.2     1  UNL1       -0.2898
@<TRIPOS>BOND
     1    48    49    1
     2    49    50    2
     3    49    38    1
     4    38    39   ar
     5    39    40   ar
     6    40    41   ar
     7    41    42   ar
     8    42    43   ar
     9    43    44   ar
    10    44    45   ar
    11    45    46   ar
    12    46    37    1
    13    37     1    1
    14     1     2    1
    15     2     3   am
    16     3     4    2
    17     3     6    1
    18     6     7   ar
    19     7     8   ar
    20     8     9   ar
    21     9    13    1
    22    13    14    1
    23    14    15    1
    24    15    16    1
    25    16    19    1
    26    19    20   ar
    27    20    21   ar
    28    21    22   ar
    29    22    23    1
    30    22    24   ar
    31    24    25    1
    32    24    26   ar
    33    16    17    1
    34    17    18    1
    35     9    10   ar
    36    10    11   ar
    37    11    12    1
    38     1    27    1
    39    27    28    2
    40    27    29   am
    41    29    31    1
    42    31    32   ar
    43    32    33   ar
    44    33    34   ar
    45    34    35   ar
    46    35    36   ar
    47    46    38   ar
    48    11     6   ar
    49    36    31   ar
    50    45    40   ar
    51    18    13    1
    52    26    19   ar
    53    39    47    1
    54     2     5    1
    55    29    30    1
@<TRIPOS>MOLECULE
*****
 50 55 0 0 0
SMALL
GASTEIGER

@<TRIPOS>ATOM
      1 C          59.5868   83.4528    8.2343 C.3     1  UNL1        0.1535
      2 N          60.3632   84.6022    8.7251 N.am    1  UNL1       -0.2945
      3 C          60.2078   85.9212    8.1773 C.2     1  UNL1        0.2483
      4 O          59.5447   86.0784    7.1153 O.2     1  UNL1       -0.2701
      5 H          61.1365   84.4463    9.4087 H       1  UNL1        0.1501
      6 C          60.8301   87.1049    8.8243 C.ar    1  UNL1        0.0808
      7 C          60.1461   88.3337    8.8119 C.ar    1  UNL1        0.0080
      8 C          60.6919   89.4614    9.4297 C.ar    1  UNL1        0.0148
      9 C          61.9272   89.3829   10.0879 C.ar    1  UNL1        0.0502
     10 C          62.6135   88.1596   10.1069 C.ar    1  UNL1        0.0443
     11 C          62.0747   87.0288    9.4863 C.ar    1  UNL1        0.1457
     12 F          62.7587   85.8614    9.5789 F       1  UNL1       -0.2040
     13 N          62.4917   90.5459   10.7224 N.pl3   1  UNL1       -0.3040
     14 C          63.4157   91.4083    9.9676 C.3     1  UNL1        0.1122
     15 C          64.0955   92.4338   10.8820 C.3     1  UNL1        0.1122
     16 N          64.5075   91.7853   12.1352 N.pl3   1  UNL1       -0.3040
     17 C          63.5301   90.9954   12.9024 C.3     1  UNL1        0.1122
     18 C          62.2121   90.8391   12.1354 C.3     1  UNL1        0.1122
     19 C          65.8751   91.8524   12.5828 C.ar    1  UNL1        0.0488
     20 C          66.9284   91.8488   11.6536 C.ar    1  UNL1        0.0154
     21 C          68.2550   91.8995   12.0885 C.ar    1  UNL1        0.0135
     22 C          68.5485   91.9503   13.4550 C.ar    1  UNL1        0.0683
     23 CL         70.2306   92.0125   13.9636 Cl      1  UNL1       -0.0814
     24 C          67.5027   91.9477   14.3929 C.ar    1  UNL1        0.0694
     25 CL         67.8278   92.0103   16.1200 Cl      1  UNL1       -0.0813
     26 C          66.1739   91.8961   13.9549 C.ar    1  UNL1        0.0268
     27 C          60.2271   82.1427    8.6330 C.2     1  UNL1        0.2443
     28 O          60.2006   81.1611    7.8404 O.2     1  UNL1       -0.2730
     29 N          60.9633   82.0585    9.8641 N.am    1  UNL1       -0.2825
     30 H          61.1481   82.9479   10.3813 H       1  UNL1        0.1549
     31 C          61.6393   80.8709   10.3087 C.ar    1  UNL1        0.0535
     32 C          62.0423   79.8737    9.4051 C.ar    1  UNL1        0.0353
     33 C          62.6888   78.7316    9.8841 C.ar    1  UNL1        0.1002
     34 N          62.9135   78.5823   11.2163 N.ar    1  UNL1       -0.2422
     35 C          62.5184   79.5228   12.1145 C.ar    1  UNL1        0.1002
     36 C          61.8670   80.6788   11.6779 C.ar    1  UNL1        0.0353
     37 C          58.1141   83.5204    8.7030 C.3     1  UNL1        0.0569
     38 C          57.9303   82.1609   10.9419 C.ar    1  UNL1        0.0878
     39 N          57.9180   82.4371   12.2686 N.ar    1  UNL1       -0.3511
     40 C          57.9116   83.7755   12.3733 C.ar    1  UNL1        0.0564
     41 C          57.8911   84.5267   13.5479 C.ar    1  UNL1        0.0170
     42 C          57.8783   85.9282   13.4336 C.ar    1  UNL1        0.0015
     43 C          57.8758   86.5407   12.1622 C.ar    1  UNL1        0.0001
     44 C          57.8927   85.7575   10.9943 C.ar    1  UNL1        0.0012
     45 C          57.9233   84.3679   11.1368 C.ar    1  UNL1        0.0132
     46 C          57.9523   83.3513   10.1960 C.ar    1  UNL1       -0.0002
     47 H          57.8940   81.7528   13.0576 H       1  UNL1        0.1660
     48 C          58.3297   79.6263   11.2544 C.3     1  UNL1        0.0788
     49 C          57.8912   80.7808   10.4110 C.2     1  UNL1        0.1886
     50 O          57.4368   80.5557    9.2584 O.2     1  UNL1       -0.2898
@<TRIPOS>BOND
     1    48    49    1
     2    49    50    2
     3    49    38    1
     4    38    39   ar
     5    39    40   ar
     6    40    41   ar
     7    41    42   ar
     8    42    43   ar
     9    43    44   ar
    10    44    45   ar
    11    45    46   ar
    12    46    37    1
    13    37     1    1
    14     1     2    1
    15     2     3   am
    16     3     4    2
    17     3     6    1
    18     6     7   ar
    19     7     8   ar
    20     8     9   ar
    21     9    13    1
    22    13    14    1
    23    14    15    1
    24    15    16    1
    25    16    19    1
    26    19    20   ar
    27    20    21   ar
    28    21    22   ar
    29    22    23    1
    30    22    24   ar
    31    24    25    1
    32    24    26   ar
    33    16    17    1
    34    17    18    1
    35     9    10   ar
    36    10    11   ar
    37    11    12    1
    38     1    27    1
    39    27    28    2
    40    27    29   am
    41    29    31    1
    42    31    32   ar
    43    32    33   ar
    44    33    34   ar
    45    34    35   ar
    46    35    36   ar
    47    46    38   ar
    48    11     6   ar
    49    36    31   ar
    50    45    40   ar
    51    18    13    1
    52    26    19   ar
    53    39    47    1
    54     2     5    1
    55    29    30    1
@<TRIPOS>MOLECULE
*****
 50 55 0 0 0
SMALL
GASTEIGER

@<TRIPOS>ATOM
      1 C          64.3693   90.5376   15.0330 C.3     1  UNL1        0.1535
      2 N          64.1543   89.1766   14.5167 N.am    1  UNL1       -0.2945
      3 C          63.5805   88.1342   15.3218 C.2     1  UNL1        0.2483
      4 O          63.4393   88.3144   16.5627 O.2     1  UNL1       -0.2701
      5 H          64.5333   88.9162   13.5797 H       1  UNL1        0.1501
      6 C          63.1679   86.8370   14.7269 C.ar    1  UNL1        0.0808
      7 C          62.6555   85.8293   15.5636 C.ar    1  UNL1        0.0080
      8 C          62.2375   84.6058   15.0349 C.ar    1  UNL1        0.0148
      9 C          62.3075   84.3669   13.6553 C.ar    1  UNL1        0.0502
     10 C          62.8145   85.3688   12.8144 C.ar    1  UNL1        0.0443
     11 C          63.2388   86.5935   13.3381 C.ar    1  UNL1        0.1457
     12 F          63.6738   87.5430   12.4728 F       1  UNL1       -0.2040
     13 N          61.8795   83.1046   13.1100 N.pl3   1  UNL1       -0.3040
     14 C          62.6077   82.5213   11.9713 C.3     1  UNL1        0.1122
     15 C          61.8561   81.3217   11.3831 C.3     1  UNL1        0.1122
     16 N          60.4213   81.6292   11.2957 N.pl3   1  UNL1       -0.3040
     17 C          59.7114   82.1368   12.4814 C.3     1  UNL1        0.1122
     18 C          60.6820   82.4302   13.6312 C.3     1  UNL1        0.1122
     19 C          59.7186   81.5097   10.0438 C.ar    1  UNL1        0.0488
     20 C          58.5566   80.7260    9.9527 C.ar    1  UNL1        0.0154
     21 C          57.8833   80.5987    8.7352 C.ar    1  UNL1        0.0135
     22 C          58.3621   81.2477    7.5926 C.ar    1  UNL1        0.0683
     23 CL         57.4876   81.0630    6.0782 Cl      1  UNL1       -0.0814
     24 C          59.5271   82.0286    7.6713 C.ar    1  UNL1        0.0694
     25 CL         60.1631   82.8610    6.2589 Cl      1  UNL1       -0.0813
     26 C          60.2007   82.1541    8.8923 C.ar    1  UNL1        0.0268
     27 C          65.8371   90.8992   15.0431 C.2     1  UNL1        0.2443
     28 O          66.7059   90.0150   14.8068 O.2     1  UNL1       -0.2730
     29 N          66.2285   92.2721   15.2067 N.am    1  UNL1       -0.2825
     30 H          65.4771   92.9982   15.1773 H       1  UNL1        0.1549
     31 C          67.5943   92.7188   15.1898 C.ar    1  UNL1        0.0535
     32 C          68.0479   93.7262   16.0572 C.ar    1  UNL1        0.0353
     33 C          69.3827   94.1347   15.9990 C.ar    1  UNL1        0.1002
     34 N          70.2312   93.5694   15.1000 N.ar    1  UNL1       -0.2422
     35 C          69.8147   92.6055   14.2369 C.ar    1  UNL1        0.1002
     36 C          68.4878   92.1696   14.2605 C.ar    1  UNL1        0.0353
     37 C          63.5423   91.5811   14.2455 C.3     1  UNL1        0.0569
     38 C          64.3301   91.6939   11.7433 C.ar    1  UNL1        0.0878
     39 N          63.9949   91.0985   10.5728 N.ar    1  UNL1       -0.3511
     40 C          62.9183   90.3398   10.8326 C.ar    1  UNL1        0.0564
     41 C          62.2128   89.5445    9.9303 C.ar    1  UNL1        0.0170
     42 C          61.1001   88.8314   10.4106 C.ar    1  UNL1        0.0015
     43 C          60.7153   88.9359   11.7644 C.ar    1  UNL1        0.0001
     44 C          61.4434   89.7490   12.6510 C.ar    1  UNL1        0.0012
     45 C          62.5551   90.4324   12.1516 C.ar    1  UNL1        0.0132
     46 C          63.4577   91.2854   12.7658 C.ar    1  UNL1       -0.0002
     47 H          64.4602   91.2186    9.6453 H       1  UNL1        0.1660
     48 C          66.6025   92.6035   10.9124 C.3     1  UNL1        0.0788
     49 C          65.4474   92.6563   11.8607 C.2     1  UNL1        0.1886
     50 O          65.4130   93.5673   12.7294 O.2     1  UNL1       -0.2898
@<TRIPOS>BOND
     1    48    49    1
     2    49    50    2
     3    49    38    1
     4    38    39   ar
     5    39    40   ar
     6    40    41   ar
     7    41    42   ar
     8    42    43   ar
     9    43    44   ar
    10    44    45   ar
    11    45    46   ar
    12    46    37    1
    13    37     1    1
    14     1     2    1
    15     2     3   am
    16     3     4    2
    17     3     6    1
    18     6     7   ar
    19     7     8   ar
    20     8     9   ar
    21     9    13    1
    22    13    14    1
    23    14    15    1
    24    15    16    1
    25    16    19    1
    26    19    20   ar
    27    20    21   ar
    28    21    22   ar
    29    22    23    1
    30    22    24   ar
    31    24    25    1
    32    24    26   ar
    33    16    17    1
    34    17    18    1
    35     9    10   ar
    36    10    11   ar
    37    11    12    1
    38     1    27    1
    39    27    28    2
    40    27    29   am
    41    29    31    1
    42    31    32   ar
    43    32    33   ar
    44    33    34   ar
    45    34    35   ar
    46    35    36   ar
    47    46    38   ar
    48    11     6   ar
    49    36    31   ar
    50    45    40   ar
    51    18    13    1
    52    26    19   ar
    53    39    47    1
    54     2     5    1
    55    29    30    1
@<TRIPOS>MOLECULE
*****
 50 55 0 0 0
SMALL
GASTEIGER

@<TRIPOS>ATOM
      1 C          59.0592   83.8670    8.8281 C.3     1  UNL1        0.1535
      2 N          59.8246   84.9918    9.3884 N.am    1  UNL1       -0.2945
      3 C          60.3701   86.0333    8.5627 C.2     1  UNL1        0.2483
      4 O          60.3782   85.8918    7.3089 O.2     1  UNL1       -0.2701
      5 H          60.0871   84.9827   10.3986 H       1  UNL1        0.1501
      6 C          60.9454   87.2679    9.1558 C.ar    1  UNL1        0.0808
      7 C          61.9833   87.1582   10.0986 C.ar    1  UNL1        0.0080
      8 C          62.5622   88.2989   10.6598 C.ar    1  UNL1        0.0148
      9 C          62.1274   89.5764   10.2799 C.ar    1  UNL1        0.0502
     10 C          61.0948   89.6933    9.3377 C.ar    1  UNL1        0.0443
     11 C          60.5083   88.5555    8.7761 C.ar    1  UNL1        0.1457
     12 F          59.5483   88.7294    7.8340 F       1  UNL1       -0.2040
     13 N          62.7218   90.7527   10.8604 N.pl3   1  UNL1       -0.3040
     14 C          63.7129   91.5212   10.0896 C.3     1  UNL1        0.1122
     15 C          64.4053   92.5739   10.9627 C.3     1  UNL1        0.1122
     16 N          64.7390   91.9923   12.2708 N.pl3   1  UNL1       -0.3040
     17 C          63.6975   91.2993   13.0471 C.3     1  UNL1        0.1122
     18 C          62.4033   91.1512   12.2389 C.3     1  UNL1        0.1122
     19 C          66.0905   92.0282   12.7683 C.ar    1  UNL1        0.0488
     20 C          67.1769   91.9611   11.8807 C.ar    1  UNL1        0.0154
     21 C          68.4874   91.9815   12.3644 C.ar    1  UNL1        0.0135
     22 C          68.7312   92.0649   13.7390 C.ar    1  UNL1        0.0683
     23 CL         70.3944   92.0874   14.3097 Cl      1  UNL1       -0.0814
     24 C          67.6517   92.1258   14.6359 C.ar    1  UNL1        0.0694
     25 CL         67.9141   92.2311   16.3715 Cl      1  UNL1       -0.0813
     26 C          66.3392   92.1044   14.1490 C.ar    1  UNL1        0.0268
     27 C          59.9096   82.6225    8.7135 C.2     1  UNL1        0.2443
     28 O          59.8906   81.9415    7.6512 O.2     1  UNL1       -0.2730
     29 N          60.8227   82.2872    9.7712 N.am    1  UNL1       -0.2825
     30 H          60.9684   82.9924   10.5288 H       1  UNL1        0.1549
     31 C          61.6996   81.1492    9.7360 C.ar    1  UNL1        0.0535
     32 C          61.2341   79.8747    9.3726 C.ar    1  UNL1        0.0353
     33 C          62.1214   78.7955    9.3611 C.ar    1  UNL1        0.1002
     34 N          63.4220   78.9772    9.7120 N.ar    1  UNL1       -0.2422
     35 C          63.8950   80.1957   10.0850 C.ar    1  UNL1        0.1002
     36 C          63.0410   81.3006   10.1120 C.ar    1  UNL1        0.0353
     37 C          57.7740   83.5922    9.6441 C.3     1  UNL1        0.0569
     38 C          58.0645   83.8609   12.2398 C.ar    1  UNL1        0.0878
     39 N          58.2017   83.0407   13.3100 N.ar    1  UNL1       -0.3511
     40 C          58.2925   81.7947   12.8186 C.ar    1  UNL1        0.0564
     41 C          58.4524   80.6146   13.5440 C.ar    1  UNL1        0.0170
     42 C          58.5350   79.4071   12.8280 C.ar    1  UNL1        0.0015
     43 C          58.4673   79.4070   11.4184 C.ar    1  UNL1        0.0001
     44 C          58.3099   80.6132   10.7128 C.ar    1  UNL1        0.0012
     45 C          58.2125   81.7963   11.4497 C.ar    1  UNL1        0.0132
     46 C          58.0485   83.1128   11.0507 C.ar    1  UNL1       -0.0002
     47 H          58.2519   83.3161   14.3164 H       1  UNL1        0.1660
     48 C          57.1687   85.9614   13.4509 C.3     1  UNL1        0.0788
     49 C          57.9814   85.3326   12.3645 C.2     1  UNL1        0.1886
     50 O          58.6389   86.0744   11.5879 O.2     1  UNL1       -0.2898
@<TRIPOS>BOND
     1    48    49    1
     2    49    50    2
     3    49    38    1
     4    38    39   ar
     5    39    40   ar
     6    40    41   ar
     7    41    42   ar
     8    42    43   ar
     9    43    44   ar
    10    44    45   ar
    11    45    46   ar
    12    46    37    1
    13    37     1    1
    14     1     2    1
    15     2     3   am
    16     3     4    2
    17     3     6    1
    18     6     7   ar
    19     7     8   ar
    20     8     9   ar
    21     9    13    1
    22    13    14    1
    23    14    15    1
    24    15    16    1
    25    16    19    1
    26    19    20   ar
    27    20    21   ar
    28    21    22   ar
    29    22    23    1
    30    22    24   ar
    31    24    25    1
    32    24    26   ar
    33    16    17    1
    34    17    18    1
    35     9    10   ar
    36    10    11   ar
    37    11    12    1
    38     1    27    1
    39    27    28    2
    40    27    29   am
    41    29    31    1
    42    31    32   ar
    43    32    33   ar
    44    33    34   ar
    45    34    35   ar
    46    35    36   ar
    47    46    38   ar
    48    11     6   ar
    49    36    31   ar
    50    45    40   ar
    51    18    13    1
    52    26    19   ar
    53    39    47    1
    54     2     5    1
    55    29    30    1
@<TRIPOS>MOLECULE
*****
 50 55 0 0 0
SMALL
GASTEIGER

@<TRIPOS>ATOM
      1 C          61.5948   81.6882    9.8815 C.3     1  UNL1        0.1535
      2 N          61.8158   82.8970   10.6908 N.am    1  UNL1       -0.2945
      3 C          62.8433   83.8510   10.3772 C.2     1  UNL1        0.2483
      4 O          63.7166   83.5617    9.5137 O.2     1  UNL1       -0.2701
      5 H          61.2967   83.0171   11.5884 H       1  UNL1        0.1501
      6 C          62.9123   85.1662   11.0646 C.ar    1  UNL1        0.0808
      7 C          62.4793   86.3196   10.3862 C.ar    1  UNL1        0.0080
      8 C          62.5097   87.5691   11.0100 C.ar    1  UNL1        0.0148
      9 C          62.9590   87.6922   12.3322 C.ar    1  UNL1        0.0502
     10 C          63.3894   86.5454   13.0160 C.ar    1  UNL1        0.0443
     11 C          63.3658   85.2931   12.3954 C.ar    1  UNL1        0.1457
     12 F          63.7470   84.2124   13.1209 F       1  UNL1       -0.2040
     13 N          62.9934   88.9805   12.9749 N.pl3   1  UNL1       -0.3040
     14 C          63.4394   90.1595   12.2145 C.3     1  UNL1        0.1122
     15 C          63.6449   91.3706   13.1316 C.3     1  UNL1        0.1122
     16 N          64.3308   90.9509   14.3620 N.pl3   1  UNL1       -0.3040
     17 C          63.8060   89.8146   15.1374 C.3     1  UNL1        0.1122
     18 C          62.6577   89.1169   14.3994 C.3     1  UNL1        0.1122
     19 C          65.5524   91.5912   14.7779 C.ar    1  UNL1        0.0488
     20 C          65.5877   92.3607   15.9524 C.ar    1  UNL1        0.0154
     21 C          66.7688   92.9933   16.3479 C.ar    1  UNL1        0.0135
     22 C          67.9284   92.8701   15.5757 C.ar    1  UNL1        0.0683
     23 CL         69.3955   93.6816   16.1058 Cl      1  UNL1       -0.0814
     24 C          67.9022   92.1081   14.3958 C.ar    1  UNL1        0.0694
     25 CL         69.3375   91.9276   13.3959 Cl      1  UNL1       -0.0813
     26 C          66.7172   91.4757   14.0009 C.ar    1  UNL1        0.0268
     27 C          61.0319   80.5601   10.7157 C.2     1  UNL1        0.2443
     28 O          61.5036   79.3953   10.6012 O.2     1  UNL1       -0.2730
     29 N          60.0422   80.8443   11.7179 N.am    1  UNL1       -0.2825
     30 H          59.8415   81.8476   11.9317 H       1  UNL1        0.1549
     31 C          59.4778   79.8474   12.5857 C.ar    1  UNL1        0.0535
     32 C          58.9614   78.6424   12.0813 C.ar    1  UNL1        0.0353
     33 C          58.4143   77.7061   12.9621 C.ar    1  UNL1        0.1002
     34 N          58.3711   77.9668   14.2955 N.ar    1  UNL1       -0.2422
     35 C          58.8472   79.1320   14.8086 C.ar    1  UNL1        0.1002
     36 C          59.4006   80.0959   13.9626 C.ar    1  UNL1        0.0353
     37 C          60.6951   81.9808    8.6576 C.3     1  UNL1        0.0569
     38 C          60.2545   84.3910    7.7134 C.ar    1  UNL1        0.0878
     39 N          59.4442   85.4363    8.0090 N.ar    1  UNL1       -0.3511
     40 C          58.8012   85.1046    9.1398 C.ar    1  UNL1        0.0564
     41 C          57.8664   85.8739    9.8319 C.ar    1  UNL1        0.0170
     42 C          57.3152   85.3388   11.0096 C.ar    1  UNL1        0.0015
     43 C          57.7136   84.0656   11.4700 C.ar    1  UNL1        0.0001
     44 C          58.6616   83.3138   10.7534 C.ar    1  UNL1        0.0012
     45 C          59.1799   83.8615    9.5772 C.ar    1  UNL1        0.0132
     46 C          60.1032   83.3713    8.6680 C.ar    1  UNL1       -0.0002
     47 H          59.3502   86.3333    7.4820 H       1  UNL1        0.1660
     48 C          62.5931   84.8361    6.7062 C.3     1  UNL1        0.0788
     49 C          61.1730   84.3929    6.5538 C.2     1  UNL1        0.1886
     50 O          60.7834   83.9697    5.4336 O.2     1  UNL1       -0.2898
@<TRIPOS>BOND
     1    48    49    1
     2    49    50    2
     3    49    38    1
     4    38    39   ar
     5    39    40   ar
     6    40    41   ar
     7    41    42   ar
     8    42    43   ar
     9    43    44   ar
    10    44    45   ar
    11    45    46   ar
    12    46    37    1
    13    37     1    1
    14     1     2    1
    15     2     3   am
    16     3     4    2
    17     3     6    1
    18     6     7   ar
    19     7     8   ar
    20     8     9   ar
    21     9    13    1
    22    13    14    1
    23    14    15    1
    24    15    16    1
    25    16    19    1
    26    19    20   ar
    27    20    21   ar
    28    21    22   ar
    29    22    23    1
    30    22    24   ar
    31    24    25    1
    32    24    26   ar
    33    16    17    1
    34    17    18    1
    35     9    10   ar
    36    10    11   ar
    37    11    12    1
    38     1    27    1
    39    27    28    2
    40    27    29   am
    41    29    31    1
    42    31    32   ar
    43    32    33   ar
    44    33    34   ar
    45    34    35   ar
    46    35    36   ar
    47    46    38   ar
    48    11     6   ar
    49    36    31   ar
    50    45    40   ar
    51    18    13    1
    52    26    19   ar
    53    39    47    1
    54     2     5    1
    55    29    30    1
@<TRIPOS>MOLECULE
*****
 50 55 0 0 0
SMALL
GASTEIGER

@<TRIPOS>ATOM
      1 C          59.2359   82.1847   12.9596 C.3     1  UNL1        0.1535
      2 N          59.9222   83.4232   13.3597 N.am    1  UNL1       -0.2945
      3 C          60.5750   84.2785   12.4077 C.2     1  UNL1        0.2483
      4 O          60.7498   83.8728   11.2258 O.2     1  UNL1       -0.2701
      5 H          60.0478   83.6370   14.3736 H       1  UNL1        0.1501
      6 C          61.0687   85.6262   12.7911 C.ar    1  UNL1        0.0808
      7 C          60.2259   86.4854   13.5187 C.ar    1  UNL1        0.0080
      8 C          60.6655   87.7508   13.9146 C.ar    1  UNL1        0.0148
      9 C          61.9636   88.1807   13.6058 C.ar    1  UNL1        0.0502
     10 C          62.8108   87.3276   12.8830 C.ar    1  UNL1        0.0443
     11 C          62.3749   86.0620   12.4799 C.ar    1  UNL1        0.1457
     12 F          63.2531   85.2610   11.8268 F       1  UNL1       -0.2040
     13 N          62.4164   89.4863   14.0110 N.pl3   1  UNL1       -0.3040
     14 C          62.9045   90.4333   12.9951 C.3     1  UNL1        0.1122
     15 C          63.5686   91.6538   13.6424 C.3     1  UNL1        0.1122
     16 N          64.4241   91.2208   14.7567 N.pl3   1  UNL1       -0.3040
     17 C          63.8736   90.3356   15.7964 C.3     1  UNL1        0.1122
     18 C          62.4639   89.8554   15.4330 C.3     1  UNL1        0.1122
     19 C          65.8150   91.5926   14.8033 C.ar    1  UNL1        0.0488
     20 C          66.3647   92.1444   15.9722 C.ar    1  UNL1        0.0154
     21 C          67.7102   92.5181   16.0126 C.ar    1  UNL1        0.0135
     22 C          68.5235   92.3504   14.8873 C.ar    1  UNL1        0.0683
     23 CL         70.2120   92.8333   14.9766 Cl      1  UNL1       -0.0814
     24 C          67.9821   91.8056   13.7111 C.ar    1  UNL1        0.0694
     25 CL         68.9696   91.5779   12.2739 Cl      1  UNL1       -0.0813
     26 C          66.6333   91.4325   13.6726 C.ar    1  UNL1        0.0268
     27 C          58.7445   82.2617   11.5320 C.2     1  UNL1        0.2443
     28 O          57.7036   82.9205   11.2583 O.2     1  UNL1       -0.2730
     29 N          59.5308   81.6811   10.4787 N.am    1  UNL1       -0.2825
     30 H          60.4895   81.3410   10.7192 H       1  UNL1        0.1549
     31 C          59.1679   81.7380    9.0894 C.ar    1  UNL1        0.0535
     32 C          57.9862   81.1454    8.6145 C.ar    1  UNL1        0.0353
     33 C          57.6785   81.2183    7.2536 C.ar    1  UNL1        0.1002
     34 N          58.5244   81.8471    6.3952 N.ar    1  UNL1       -0.2422
     35 C          59.6830   82.4134    6.8246 C.ar    1  UNL1        0.1002
     36 C          60.0293   82.3614    8.1768 C.ar    1  UNL1        0.0353
     37 C          60.1330   80.9430   13.1754 C.3     1  UNL1        0.0569
     38 C          62.3161   80.7441   11.7300 C.ar    1  UNL1        0.0878
     39 N          63.5513   81.3017   11.7220 N.ar    1  UNL1       -0.3511
     40 C          63.6221   82.0729   12.8186 C.ar    1  UNL1        0.0564
     41 C          64.7081   82.8406   13.2378 C.ar    1  UNL1        0.0170
     42 C          64.5755   83.5737   14.4304 C.ar    1  UNL1        0.0015
     43 C          63.3779   83.5157   15.1747 C.ar    1  UNL1        0.0001
     44 C          62.3002   82.7295   14.7296 C.ar    1  UNL1        0.0012
     45 C          62.4523   82.0255   13.5323 C.ar    1  UNL1        0.0132
     46 C          61.5870   81.1898   12.8451 C.ar    1  UNL1       -0.0002
     47 H          64.3104   81.1490   11.0207 H       1  UNL1        0.1660
     48 C          62.7847   79.3543    9.6016 C.3     1  UNL1        0.0788
     49 C          61.8654   79.7817   10.7010 C.2     1  UNL1        0.1886
     50 O          60.7174   79.2690   10.7695 O.2     1  UNL1       -0.2898
@<TRIPOS>BOND
     1    48    49    1
     2    49    50    2
     3    49    38    1
     4    38    39   ar
     5    39    40   ar
     6    40    41   ar
     7    41    42   ar
     8    42    43   ar
     9    43    44   ar
    10    44    45   ar
    11    45    46   ar
    12    46    37    1
    13    37     1    1
    14     1     2    1
    15     2     3   am
    16     3     4    2
    17     3     6    1
    18     6     7   ar
    19     7     8   ar
    20     8     9   ar
    21     9    13    1
    22    13    14    1
    23    14    15    1
    24    15    16    1
    25    16    19    1
    26    19    20   ar
    27    20    21   ar
    28    21    22   ar
    29    22    23    1
    30    22    24   ar
    31    24    25    1
    32    24    26   ar
    33    16    17    1
    34    17    18    1
    35     9    10   ar
    36    10    11   ar
    37    11    12    1
    38     1    27    1
    39    27    28    2
    40    27    29   am
    41    29    31    1
    42    31    32   ar
    43    32    33   ar
    44    33    34   ar
    45    34    35   ar
    46    35    36   ar
    47    46    38   ar
    48    11     6   ar
    49    36    31   ar
    50    45    40   ar
    51    18    13    1
    52    26    19   ar
    53    39    47    1
    54     2     5    1
    55    29    30    1
@<TRIPOS>MOLECULE
*****
 50 55 0 0 0
SMALL
GASTEIGER

@<TRIPOS>ATOM
      1 C          61.6334   82.6189    9.1309 C.3     1  UNL1        0.1535
      2 N          61.9440   83.7142   10.0630 N.am    1  UNL1       -0.2945
      3 C          62.5807   84.9281    9.6329 C.2     1  UNL1        0.2483
      4 O          63.0760   84.9927    8.4741 O.2     1  UNL1       -0.2701
      5 H          61.8108   83.5704   11.0883 H       1  UNL1        0.1501
      6 C          62.6875   86.1054   10.5326 C.ar    1  UNL1        0.0808
      7 C          63.0868   85.9158   11.8678 C.ar    1  UNL1        0.0080
      8 C          63.2189   87.0028   12.7352 C.ar    1  UNL1        0.0148
      9 C          62.9698   88.3064   12.2836 C.ar    1  UNL1        0.0502
     10 C          62.5741   88.5031   10.9522 C.ar    1  UNL1        0.0443
     11 C          62.4357   87.4189   10.0807 C.ar    1  UNL1        0.1457
     12 F          62.0984   87.6732    8.7919 F       1  UNL1       -0.2040
     13 N          63.1028   89.4271   13.1781 N.pl3   1  UNL1       -0.3040
     14 C          63.3748   90.7658   12.6295 C.3     1  UNL1        0.1122
     15 C          63.7293   91.7626   13.7388 C.3     1  UNL1        0.1122
     16 N          64.6443   91.1307   14.7002 N.pl3   1  UNL1       -0.3040
     17 C          64.2971   89.8258   15.2870 C.3     1  UNL1        0.1122
     18 C          63.0420   89.2354   14.6342 C.3     1  UNL1        0.1122
     19 C          65.9111   91.7385   15.0183 C.ar    1  UNL1        0.0488
     20 C          66.0587   92.5051   16.1859 C.ar    1  UNL1        0.0154
     21 C          67.2833   93.1062   16.4869 C.ar    1  UNL1        0.0135
     22 C          68.3749   92.9541   15.6259 C.ar    1  UNL1        0.0683
     23 CL         69.8998   93.7264   16.0385 Cl      1  UNL1       -0.0814
     24 C          68.2362   92.1948   14.4522 C.ar    1  UNL1        0.0694
     25 CL         69.5831   91.9786   13.3425 Cl      1  UNL1       -0.0813
     26 C          67.0077   91.5940   14.1521 C.ar    1  UNL1        0.0268
     27 C          61.0914   81.4103    9.8596 C.2     1  UNL1        0.2443
     28 O          61.5764   80.2676    9.6328 O.2     1  UNL1       -0.2730
     29 N          60.1068   81.5863   10.8912 N.am    1  UNL1       -0.2825
     30 H          59.8956   82.5625   11.1996 H       1  UNL1        0.1549
     31 C          59.5620   80.5053   11.6656 C.ar    1  UNL1        0.0535
     32 C          58.9407   79.4041   11.0536 C.ar    1  UNL1        0.0353
     33 C          58.4174   78.3804   11.8474 C.ar    1  UNL1        0.1002
     34 N          58.4984   78.4576   13.2021 N.ar    1  UNL1       -0.2422
     35 C          59.0782   79.5198   13.8210 C.ar    1  UNL1        0.1002
     36 C          59.6120   80.5658   13.0647 C.ar    1  UNL1        0.0353
     37 C          60.6653   83.0795    8.0157 C.3     1  UNL1        0.0569
     38 C          58.0796   82.6465    8.1612 C.ar    1  UNL1        0.0878
     39 N          57.0478   83.0687    8.9318 N.ar    1  UNL1       -0.3511
     40 C          57.5476   84.0148    9.7426 C.ar    1  UNL1        0.0564
     41 C          56.8561   84.7453   10.7084 C.ar    1  UNL1        0.0170
     42 C          57.5724   85.7025   11.4485 C.ar    1  UNL1        0.0015
     43 C          58.9460   85.9135   11.2027 C.ar    1  UNL1        0.0001
     44 C          59.6166   85.1648   10.2193 C.ar    1  UNL1        0.0012
     45 C          58.8852   84.2078    9.5110 C.ar    1  UNL1        0.0132
     46 C          59.2584   83.3275    8.5085 C.ar    1  UNL1       -0.0002
     47 H          56.0551   82.7458    8.8930 H       1  UNL1        0.1660
     48 C          58.0162   80.1734    7.4122 C.3     1  UNL1        0.0788
     49 C          57.9208   81.6320    7.0964 C.2     1  UNL1        0.1886
     50 O          57.6497   81.9841    5.9182 O.2     1  UNL1       -0.2898
@<TRIPOS>BOND
     1    48    49    1
     2    49    50    2
     3    49    38    1
     4    38    39   ar
     5    39    40   ar
     6    40    41   ar
     7    41    42   ar
     8    42    43   ar
     9    43    44   ar
    10    44    45   ar
    11    45    46   ar
    12    46    37    1
    13    37     1    1
    14     1     2    1
    15     2     3   am
    16     3     4    2
    17     3     6    1
    18     6     7   ar
    19     7     8   ar
    20     8     9   ar
    21     9    13    1
    22    13    14    1
    23    14    15    1
    24    15    16    1
    25    16    19    1
    26    19    20   ar
    27    20    21   ar
    28    21    22   ar
    29    22    23    1
    30    22    24   ar
    31    24    25    1
    32    24    26   ar
    33    16    17    1
    34    17    18    1
    35     9    10   ar
    36    10    11   ar
    37    11    12    1
    38     1    27    1
    39    27    28    2
    40    27    29   am
    41    29    31    1
    42    31    32   ar
    43    32    33   ar
    44    33    34   ar
    45    34    35   ar
    46    35    36   ar
    47    46    38   ar
    48    11     6   ar
    49    36    31   ar
    50    45    40   ar
    51    18    13    1
    52    26    19   ar
    53    39    47    1
    54     2     5    1
    55    29    30    1
