@<TRIPOS>MOLECULE
*****
 60 64 0 0 0
SMALL
GASTEIGER

@<TRIPOS>ATOM
      1 C         -20.6340   -8.3423   -9.4835 C.ar    1  UNL1        0.1605
      2 C         -20.3211   -7.3004   -8.5804 C.ar    1  UNL1        0.0887
      3 C         -20.7706   -5.9991   -8.8552 C.ar    1  UNL1        0.0108
      4 C         -21.4372   -5.7149  -10.0476 C.ar    1  UNL1        0.0392
      5 C         -21.6566   -6.7190  -10.9921 C.ar    1  UNL1        0.1628
      6 C         -21.2989   -8.0513  -10.6871 C.ar    1  UNL1        0.1331
      7 C         -19.4975   -7.5334   -7.3732 C.2     1  UNL1        0.2487
      8 O         -18.3441   -7.0289   -7.3130 O.2     1  UNL1       -0.2700
      9 N         -19.9892   -8.3665   -6.3046 N.am    1  UNL1       -0.3039
     10 H         -20.8921   -8.8660   -6.4745 H       1  UNL1        0.1496
     11 C         -19.2941   -8.6048   -5.0238 C.3     1  UNL1        0.0572
     12 C         -18.6872   -7.2925   -4.4906 C.3     1  UNL1        0.0196
     13 C         -20.3136   -9.1255   -3.9894 C.3     1  UNL1        0.0196
     14 C         -18.1939   -9.6692   -5.2034 C.3     1  UNL1        0.0196
     15 C         -19.0960  -10.2690   -9.6308 C.3     1  UNL1        0.2525
     16 O         -20.3155   -9.6753   -9.2009 O.3     1  UNL1       -0.4699
     17 N         -21.6397   -9.1223  -11.5748 N.pl3   1  UNL1       -0.2090
     18 H         -20.9021   -9.4980  -12.2094 H       1  UNL1        0.1740
     19 S         -23.0006  -10.1456  -11.2545 S.O2    1  UNL1        0.0746
     20 O         -24.2149   -9.3118  -10.9600 O.2     1  UNL1       -0.1499
     21 O         -22.7151  -11.0095  -10.0570 O.2     1  UNL1       -0.1499
     22 C         -23.2931  -11.1579  -12.6724 C.ar    1  UNL1        0.1356
     23 C         -24.5065  -11.0413  -13.3625 C.ar    1  UNL1        0.0207
     24 C         -24.7914  -11.8721  -14.4478 C.ar    1  UNL1       -0.0028
     25 C         -23.8598  -12.8421  -14.8711 C.ar    1  UNL1       -0.0216
     26 C         -22.6410  -12.9468  -14.1837 C.ar    1  UNL1        0.0085
     27 C         -22.3515  -12.1169  -13.0949 C.ar    1  UNL1        0.0762
     28 CL        -20.7974  -12.3168  -12.2926 Cl      1  UNL1       -0.0809
     29 C         -24.0990  -13.7929  -16.0322 C.3     1  UNL1        0.0224
     30 C         -23.6876  -15.2453  -15.8335 C.3     1  UNL1        0.0047
     31 C         -25.1636  -14.8667  -15.8535 C.3     1  UNL1        0.0047
     32 O         -22.2229   -6.3667  -12.2266 O.3     1  UNL1       -0.4512
     33 C         -23.5670   -6.5938  -12.5596 C.ar    1  UNL1        0.1580
     34 C         -24.6077   -6.0264  -11.8037 C.ar    1  UNL1        0.0677
     35 C         -25.9336   -6.1559  -12.2168 C.ar    1  UNL1        0.1398
     36 F         -26.9126   -5.5483  -11.4998 F       1  UNL1       -0.2044
     37 C         -26.2410   -6.8639  -13.3912 C.ar    1  UNL1        0.0175
     38 C         -25.2082   -7.4991  -14.1009 C.ar    1  UNL1        0.0130
     39 C         -23.8800   -7.3853  -13.6734 C.ar    1  UNL1        0.0919
     40 CL        -22.6046   -8.1561  -14.6038 Cl      1  UNL1       -0.0791
     41 C         -27.6393   -6.8353  -13.9474 C.3     1  UNL1        0.1382
     42 C         -27.8952   -5.4919  -14.5540 C.2     1  UNL1        0.3234
     43 O         -27.0167   -4.9578  -15.2848 O.2     1  UNL1       -0.2497
     44 O         -29.0753   -4.8100  -14.2410 O.3     1  UNL1       -0.4215
     45 C         -30.1717   -4.6949  -15.1467 C.3     1  UNL1        0.3207
     46 O         -29.9728   -3.5253  -15.9319 O.3     1  UNL1       -0.3070
     47 C         -31.1461   -3.1817  -16.6421 C.3     1  UNL1        0.2456
     48 C         -32.2216   -2.6181  -15.6747 C.3     1  UNL1        0.1781
     49 O         -33.5018   -2.8809  -16.1910 O.3     1  UNL1       -0.3790
     50 C         -32.0984   -3.2511  -14.2650 C.3     1  UNL1        0.1733
     51 O         -31.3502   -2.4320  -13.3976 O.3     1  UNL1       -0.3793
     52 C         -31.4952   -4.6708  -14.3275 C.3     1  UNL1        0.2106
     53 O         -32.4194   -5.5490  -14.9207 O.3     1  UNL1       -0.3766
     54 H         -33.6401   -2.2542  -16.9487 H       1  UNL1        0.2106
     55 H         -30.4636   -2.2687  -13.8102 H       1  UNL1        0.2105
     56 H         -33.1155   -5.7421  -14.2392 H       1  UNL1        0.2107
     57 C         -30.7990   -2.1658  -17.6914 C.2     1  UNL1        0.3439
     58 O         -29.6894   -2.2231  -18.2870 O.2     1  UNL1       -0.2475
     59 O         -31.7010   -1.1535  -18.0044 O.3     1  UNL1       -0.4785
     60 H         -31.4853   -0.4683  -18.7188 H       1  UNL1        0.2951
@<TRIPOS>BOND
     1    15    16    1
     2    16     1    1
     3     1     2   ar
     4     2     7    1
     5     7     8    2
     6     7     9   am
     7     9    11    1
     8    11    12    1
     9    11    13    1
    10    11    14    1
    11     2     3   ar
    12     3     4   ar
    13     4     5   ar
    14     5    32    1
    15    32    33    1
    16    33    34   ar
    17    34    35   ar
    18    35    36    1
    19    35    37   ar
    20    37    41    1
    21    41    42    1
    22    42    43    2
    23    42    44    1
    24    44    45    1
    25    45    46    1
    26    46    47    1
    27    47    57    1
    28    57    58    2
    29    57    59    1
    30    47    48    1
    31    48    49    1
    32    48    50    1
    33    50    51    1
    34    50    52    1
    35    52    53    1
    36    37    38   ar
    37    38    39   ar
    38    39    40    1
    39     5     6   ar
    40     6    17    1
    41    17    19    1
    42    19    20    2
    43    19    21    2
    44    19    22    1
    45    22    23   ar
    46    23    24   ar
    47    24    25   ar
    48    25    29    1
    49    29    30    1
    50    30    31    1
    51    25    26   ar
    52    26    27   ar
    53    27    28    1
    54     6     1   ar
    55    27    22   ar
    56    39    33   ar
    57    31    29    1
    58    52    45    1
    59     9    10    1
    60    59    60    1
    61    49    54    1
    62    51    55    1
    63    53    56    1
    64    17    18    1
@<TRIPOS>MOLECULE
*****
 60 64 0 0 0
SMALL
GASTEIGER

@<TRIPOS>ATOM
      1 C         -19.5653   -9.1037   -8.9771 C.ar    1  UNL1        0.1605
      2 C         -19.6985   -8.0244   -8.0736 C.ar    1  UNL1        0.0887
      3 C         -20.4372   -6.8952   -8.4612 C.ar    1  UNL1        0.0108
      4 C         -20.9564   -6.7949   -9.7524 C.ar    1  UNL1        0.0392
      5 C         -20.7383   -7.8117  -10.6835 C.ar    1  UNL1        0.1628
      6 C         -20.0830   -8.9963  -10.2793 C.ar    1  UNL1        0.1331
      7 C         -19.0468   -8.0322   -6.7449 C.2     1  UNL1        0.2487
      8 O         -19.2566   -7.0726   -5.9552 O.2     1  UNL1       -0.2700
      9 N         -18.1465   -9.0973   -6.3806 N.am    1  UNL1       -0.3039
     10 H         -17.9075   -9.7881   -7.1284 H       1  UNL1        0.1496
     11 C         -17.5036   -9.2528   -5.0604 C.3     1  UNL1        0.0572
     12 C         -16.5564  -10.4685   -5.0649 C.3     1  UNL1        0.0196
     13 C         -16.6726   -7.9892   -4.7554 C.3     1  UNL1        0.0196
     14 C         -18.5726   -9.4113   -3.9614 C.3     1  UNL1        0.0196
     15 C         -17.7949  -10.7994   -9.2760 C.3     1  UNL1        0.2525
     16 O         -18.9435  -10.2996   -8.6012 O.3     1  UNL1       -0.4699
     17 N         -19.9708  -10.1115  -11.1710 N.pl3   1  UNL1       -0.2090
     18 H         -19.0323  -10.3456  -11.5613 H       1  UNL1        0.1740
     19 S         -21.1648  -11.3669  -11.1815 S.O2    1  UNL1        0.0746
     20 O         -22.1836  -11.1187  -10.1060 O.2     1  UNL1       -0.1499
     21 O         -20.5082  -12.6939  -10.9175 O.2     1  UNL1       -0.1499
     22 C         -21.9503  -11.3870  -12.7637 C.ar    1  UNL1        0.1356
     23 C         -21.1643  -11.4524  -13.9213 C.ar    1  UNL1        0.0207
     24 C         -21.7537  -11.4059  -15.1861 C.ar    1  UNL1       -0.0028
     25 C         -23.1529  -11.2959  -15.3205 C.ar    1  UNL1       -0.0216
     26 C         -23.9366  -11.2427  -14.1578 C.ar    1  UNL1        0.0085
     27 C         -23.3502  -11.2880  -12.8881 C.ar    1  UNL1        0.0762
     28 CL        -24.4101  -11.2170  -11.4844 Cl      1  UNL1       -0.0809
     29 C         -23.8700  -11.2251  -16.6585 C.3     1  UNL1        0.0224
     30 C         -23.3422  -10.2213  -17.6744 C.3     1  UNL1        0.0047
     31 C         -23.1149  -11.7131  -17.8874 C.3     1  UNL1        0.0047
     32 O         -21.1742   -7.6180  -12.0030 O.3     1  UNL1       -0.4512
     33 C         -22.5136   -7.7337  -12.4053 C.ar    1  UNL1        0.1580
     34 C         -23.5553   -7.7569  -11.4615 C.ar    1  UNL1        0.0677
     35 C         -24.8866   -7.7461  -11.8773 C.ar    1  UNL1        0.1398
     36 F         -25.8711   -7.7096  -10.9440 F       1  UNL1       -0.2044
     37 C         -25.1978   -7.7200  -13.2475 C.ar    1  UNL1        0.0175
     38 C         -24.1574   -7.7791  -14.1897 C.ar    1  UNL1        0.0130
     39 C         -22.8221   -7.8108  -13.7705 C.ar    1  UNL1        0.0919
     40 CL        -21.5406   -7.8429  -14.9718 Cl      1  UNL1       -0.0791
     41 C         -26.6183   -7.5049  -13.6963 C.3     1  UNL1        0.1382
     42 C         -26.8303   -6.0480  -13.9619 C.2     1  UNL1        0.3234
     43 O         -27.0813   -5.2674  -13.0034 O.2     1  UNL1       -0.2497
     44 O         -26.8233   -5.5815  -15.2802 O.3     1  UNL1       -0.4215
     45 C         -27.2380   -4.2655  -15.6427 C.3     1  UNL1        0.3207
     46 O         -28.5983   -4.3306  -16.0543 O.3     1  UNL1       -0.3070
     47 C         -28.9935   -3.1372  -16.7013 C.3     1  UNL1        0.2456
     48 C         -28.3418   -3.0394  -18.1069 C.3     1  UNL1        0.1781
     49 O         -28.1849   -1.6881  -18.4590 O.3     1  UNL1       -0.3790
     50 C         -26.9592   -3.7399  -18.1367 C.3     1  UNL1        0.1733
     51 O         -27.0605   -5.0558  -18.6281 O.3     1  UNL1       -0.3793
     52 C         -26.2834   -3.7283  -16.7488 C.3     1  UNL1        0.2106
     53 O         -25.8964   -2.4158  -16.4249 O.3     1  UNL1       -0.3766
     54 H         -29.0877   -1.3447  -18.6893 H       1  UNL1        0.2106
     55 H         -27.7144   -5.5482  -18.0687 H       1  UNL1        0.2105
     56 H         -25.0837   -2.2124  -16.9581 H       1  UNL1        0.2107
     57 C         -30.4904   -3.1181  -16.8136 C.2     1  UNL1        0.3439
     58 O         -31.1990   -3.6937  -15.9441 O.2     1  UNL1       -0.2475
     59 O         -31.0992   -2.4689  -17.8833 O.3     1  UNL1       -0.4785
     60 H         -32.1084   -2.4377  -17.9656 H       1  UNL1        0.2951
@<TRIPOS>BOND
     1    15    16    1
     2    16     1    1
     3     1     2   ar
     4     2     7    1
     5     7     8    2
     6     7     9   am
     7     9    11    1
     8    11    12    1
     9    11    13    1
    10    11    14    1
    11     2     3   ar
    12     3     4   ar
    13     4     5   ar
    14     5    32    1
    15    32    33    1
    16    33    34   ar
    17    34    35   ar
    18    35    36    1
    19    35    37   ar
    20    37    41    1
    21    41    42    1
    22    42    43    2
    23    42    44    1
    24    44    45    1
    25    45    46    1
    26    46    47    1
    27    47    57    1
    28    57    58    2
    29    57    59    1
    30    47    48    1
    31    48    49    1
    32    48    50    1
    33    50    51    1
    34    50    52    1
    35    52    53    1
    36    37    38   ar
    37    38    39   ar
    38    39    40    1
    39     5     6   ar
    40     6    17    1
    41    17    19    1
    42    19    20    2
    43    19    21    2
    44    19    22    1
    45    22    23   ar
    46    23    24   ar
    47    24    25   ar
    48    25    29    1
    49    29    30    1
    50    30    31    1
    51    25    26   ar
    52    26    27   ar
    53    27    28    1
    54     6     1   ar
    55    27    22   ar
    56    39    33   ar
    57    31    29    1
    58    52    45    1
    59     9    10    1
    60    59    60    1
    61    49    54    1
    62    51    55    1
    63    53    56    1
    64    17    18    1
@<TRIPOS>MOLECULE
*****
 60 64 0 0 0
SMALL
GASTEIGER

@<TRIPOS>ATOM
      1 C         -19.6352   -9.1110   -9.0511 C.ar    1  UNL1        0.1605
      2 C         -19.7980   -8.0282   -8.1566 C.ar    1  UNL1        0.0887
      3 C         -20.5524   -6.9152   -8.5600 C.ar    1  UNL1        0.0108
      4 C         -21.0588   -6.8329   -9.8576 C.ar    1  UNL1        0.0392
      5 C         -20.8121   -7.8517  -10.7792 C.ar    1  UNL1        0.1628
      6 C         -20.1402   -9.0216  -10.3597 C.ar    1  UNL1        0.1331
      7 C         -19.1611   -8.0154   -6.8207 C.2     1  UNL1        0.2487
      8 O         -19.4254   -7.0735   -6.0262 O.2     1  UNL1       -0.2700
      9 N         -18.2145   -9.0389   -6.4544 N.am    1  UNL1       -0.3039
     10 H         -17.9344   -9.7114   -7.2047 H       1  UNL1        0.1496
     11 C         -17.5793   -9.1740   -5.1282 C.3     1  UNL1        0.0572
     12 C         -16.7309   -7.9274   -4.8103 C.3     1  UNL1        0.0196
     13 C         -18.6808   -9.3000   -4.0552 C.3     1  UNL1        0.0196
     14 C         -16.7051  -10.4426   -5.0818 C.3     1  UNL1        0.0196
     15 C         -17.8256  -10.7711   -9.3125 C.3     1  UNL1        0.2525
     16 O         -18.9962  -10.2929   -8.6602 O.3     1  UNL1       -0.4699
     17 N         -19.9980  -10.1404  -11.2425 N.pl3   1  UNL1       -0.2090
     18 H         -19.0502  -10.3631  -11.6168 H       1  UNL1        0.1740
     19 S         -21.1732  -11.4133  -11.2633 S.O2    1  UNL1        0.0746
     20 O         -22.1917  -11.1926  -10.1815 O.2     1  UNL1       -0.1499
     21 O         -20.4960  -12.7333  -11.0169 O.2     1  UNL1       -0.1499
     22 C         -21.9641  -11.4269  -12.8429 C.ar    1  UNL1        0.1356
     23 C         -21.1900  -11.5928  -13.9985 C.ar    1  UNL1        0.0207
     24 C         -21.7790  -11.5443  -15.2634 C.ar    1  UNL1       -0.0028
     25 C         -23.1661  -11.3310  -15.3998 C.ar    1  UNL1       -0.0216
     26 C         -23.9387  -11.1772  -14.2387 C.ar    1  UNL1        0.0085
     27 C         -23.3526  -11.2241  -12.9689 C.ar    1  UNL1        0.0762
     28 CL        -24.3983  -11.0230  -11.5672 Cl      1  UNL1       -0.0809
     29 C         -23.8807  -11.2509  -16.7386 C.3     1  UNL1        0.0224
     30 C         -23.3738  -10.2153  -17.7330 C.3     1  UNL1        0.0047
     31 C         -23.1108  -11.6969  -17.9742 C.3     1  UNL1        0.0047
     32 O         -21.2366   -7.6746  -12.1048 O.3     1  UNL1       -0.4512
     33 C         -22.5838   -7.6757  -12.4975 C.ar    1  UNL1        0.1580
     34 C         -23.6167   -7.5943  -11.5472 C.ar    1  UNL1        0.0677
     35 C         -24.9447   -7.4703  -11.9551 C.ar    1  UNL1        0.1398
     36 F         -25.9154   -7.3347  -11.0165 F       1  UNL1       -0.2044
     37 C         -25.2622   -7.4338  -13.3236 C.ar    1  UNL1        0.0175
     38 C         -24.2379   -7.5971  -14.2712 C.ar    1  UNL1        0.0130
     39 C         -22.9077   -7.7422  -13.8597 C.ar    1  UNL1        0.0919
     40 CL        -21.6428   -7.9033  -15.0681 Cl      1  UNL1       -0.0791
     41 C         -26.6611   -7.0989  -13.7667 C.3     1  UNL1        0.1382
     42 C         -26.8307   -5.6125  -13.7634 C.2     1  UNL1        0.3234
     43 O         -25.8523   -4.8719  -13.4716 O.2     1  UNL1       -0.2497
     44 O         -28.0935   -5.0643  -14.0095 O.3     1  UNL1       -0.4215
     45 C         -28.7154   -5.0868  -15.2933 C.3     1  UNL1        0.3207
     46 O         -28.1354   -4.0540  -16.0813 O.3     1  UNL1       -0.3070
     47 C         -28.8915   -3.8202  -17.2528 C.3     1  UNL1        0.2456
     48 C         -30.2270   -3.1091  -16.9050 C.3     1  UNL1        0.1781
     49 O         -31.2005   -3.4438  -17.8615 O.3     1  UNL1       -0.3790
     50 C         -30.7318   -3.5163  -15.4969 C.3     1  UNL1        0.1733
     51 O         -30.3483   -2.5754  -14.5218 O.3     1  UNL1       -0.3793
     52 C         -30.2529   -4.9308  -15.1058 C.3     1  UNL1        0.2106
     53 O         -30.9124   -5.8867  -15.8986 O.3     1  UNL1       -0.3766
     54 H         -30.9755   -2.9417  -18.6881 H       1  UNL1        0.2106
     55 H         -29.3617   -2.4815  -14.5499 H       1  UNL1        0.2105
     56 H         -31.8370   -5.9691  -15.5456 H       1  UNL1        0.2107
     57 C         -28.0794   -2.9807  -18.1959 C.2     1  UNL1        0.3439
     58 O         -28.5469   -1.8998  -18.6459 O.2     1  UNL1       -0.2475
     59 O         -26.8089   -3.3984  -18.5805 O.3     1  UNL1       -0.4785
     60 H         -26.2448   -2.8363  -19.2067 H       1  UNL1        0.2951
@<TRIPOS>BOND
     1    15    16    1
     2    16     1    1
     3     1     2   ar
     4     2     7    1
     5     7     8    2
     6     7     9   am
     7     9    11    1
     8    11    12    1
     9    11    13    1
    10    11    14    1
    11     2     3   ar
    12     3     4   ar
    13     4     5   ar
    14     5    32    1
    15    32    33    1
    16    33    34   ar
    17    34    35   ar
    18    35    36    1
    19    35    37   ar
    20    37    41    1
    21    41    42    1
    22    42    43    2
    23    42    44    1
    24    44    45    1
    25    45    46    1
    26    46    47    1
    27    47    57    1
    28    57    58    2
    29    57    59    1
    30    47    48    1
    31    48    49    1
    32    48    50    1
    33    50    51    1
    34    50    52    1
    35    52    53    1
    36    37    38   ar
    37    38    39   ar
    38    39    40    1
    39     5     6   ar
    40     6    17    1
    41    17    19    1
    42    19    20    2
    43    19    21    2
    44    19    22    1
    45    22    23   ar
    46    23    24   ar
    47    24    25   ar
    48    25    29    1
    49    29    30    1
    50    30    31    1
    51    25    26   ar
    52    26    27   ar
    53    27    28    1
    54     6     1   ar
    55    27    22   ar
    56    39    33   ar
    57    31    29    1
    58    52    45    1
    59     9    10    1
    60    59    60    1
    61    49    54    1
    62    51    55    1
    63    53    56    1
    64    17    18    1
@<TRIPOS>MOLECULE
*****
 60 64 0 0 0
SMALL
GASTEIGER

@<TRIPOS>ATOM
      1 C         -19.9079   -8.7765   -9.2891 C.ar    1  UNL1        0.1605
      2 C         -20.0241   -7.7795   -8.2932 C.ar    1  UNL1        0.0887
      3 C         -20.7208   -6.5968   -8.5875 C.ar    1  UNL1        0.0108
      4 C         -21.2135   -6.3635   -9.8719 C.ar    1  UNL1        0.0392
      5 C         -21.0100   -7.2983  -10.8883 C.ar    1  UNL1        0.1628
      6 C         -20.3986   -8.5351  -10.5838 C.ar    1  UNL1        0.1331
      7 C         -19.3969   -7.9285   -6.9611 C.2     1  UNL1        0.2487
      8 O         -19.6861   -7.1035   -6.0532 O.2     1  UNL1       -0.2700
      9 N         -18.4317   -8.9722   -6.7221 N.am    1  UNL1       -0.3039
     10 H         -18.1326   -9.5355   -7.5509 H       1  UNL1        0.1496
     11 C         -17.8030   -9.2665   -5.4189 C.3     1  UNL1        0.0572
     12 C         -18.8795   -9.4256   -4.3277 C.3     1  UNL1        0.0196
     13 C         -17.0204  -10.5917   -5.5277 C.3     1  UNL1        0.0196
     14 C         -16.8155   -8.1462   -5.0374 C.3     1  UNL1        0.0196
     15 C         -18.0994  -10.4292   -9.6008 C.3     1  UNL1        0.2525
     16 O         -19.3297  -10.0208   -9.0143 O.3     1  UNL1       -0.4699
     17 N         -20.3047   -9.5680  -11.5715 N.pl3   1  UNL1       -0.2090
     18 H         -19.3820   -9.7408  -12.0263 H       1  UNL1        0.1740
     19 S         -21.4655  -10.8529  -11.6295 S.O2    1  UNL1        0.0746
     20 O         -21.0478  -11.9671  -10.7126 O.2     1  UNL1       -0.1499
     21 O         -21.5518  -11.3959  -13.0293 O.2     1  UNL1       -0.1499
     22 C         -23.0369  -10.2183  -11.1309 C.ar    1  UNL1        0.1356
     23 C         -23.1773   -9.6509   -9.8579 C.ar    1  UNL1        0.0207
     24 C         -24.4210   -9.1989   -9.4127 C.ar    1  UNL1       -0.0028
     25 C         -25.5585   -9.3026  -10.2393 C.ar    1  UNL1       -0.0216
     26 C         -25.4101   -9.8609  -11.5180 C.ar    1  UNL1        0.0085
     27 C         -24.1658  -10.3161  -11.9681 C.ar    1  UNL1        0.0762
     28 CL        -24.0717  -11.0011  -13.5869 Cl      1  UNL1       -0.0809
     29 C         -26.9481   -8.8481   -9.8248 C.3     1  UNL1        0.0224
     30 C         -27.1641   -7.3508   -9.6525 C.3     1  UNL1        0.0047
     31 C         -27.7697   -8.0760  -10.8482 C.3     1  UNL1        0.0047
     32 O         -21.4161   -6.9721  -12.1911 O.3     1  UNL1       -0.4512
     33 C         -22.7573   -6.9339  -12.6019 C.ar    1  UNL1        0.1580
     34 C         -23.7204   -6.2179  -11.8695 C.ar    1  UNL1        0.0677
     35 C         -25.0214   -6.0838  -12.3541 C.ar    1  UNL1        0.1398
     36 F         -25.9143   -5.3381  -11.6553 F       1  UNL1       -0.2044
     37 C         -25.3828   -6.6722  -13.5781 C.ar    1  UNL1        0.0175
     38 C         -24.4424   -7.4552  -14.2683 C.ar    1  UNL1        0.0130
     39 C         -23.1429   -7.6059  -13.7701 C.ar    1  UNL1        0.0919
     40 CL        -21.9760   -8.5571  -14.6756 Cl      1  UNL1       -0.0791
     41 C         -26.7180   -6.3634  -14.2006 C.3     1  UNL1        0.1382
     42 C         -26.6064   -5.0976  -14.9902 C.2     1  UNL1        0.3234
     43 O         -25.7380   -4.2386  -14.6759 O.2     1  UNL1       -0.2497
     44 O         -27.5181   -4.8480  -16.0209 O.3     1  UNL1       -0.4215
     45 C         -28.2317   -3.6192  -16.1485 C.3     1  UNL1        0.3207
     46 O         -29.4803   -3.7643  -15.4822 O.3     1  UNL1       -0.3070
     47 C         -30.3594   -2.7063  -15.8092 C.3     1  UNL1        0.2456
     48 C         -30.8690   -2.8544  -17.2682 C.3     1  UNL1        0.1781
     49 O         -31.1704   -1.5856  -17.7915 O.3     1  UNL1       -0.3790
     50 C         -29.8095   -3.5407  -18.1680 C.3     1  UNL1        0.1733
     51 O         -30.0513   -4.9233  -18.2832 O.3     1  UNL1       -0.3793
     52 C         -28.3749   -3.2800  -17.6610 C.3     1  UNL1        0.2106
     53 O         -28.0429   -1.9286  -17.8629 O.3     1  UNL1       -0.3766
     54 H         -32.0189   -1.2938  -17.3664 H       1  UNL1        0.2106
     55 H         -30.0734   -5.3131  -17.3719 H       1  UNL1        0.2105
     56 H         -27.8522   -1.8176  -18.8312 H       1  UNL1        0.2107
     57 C         -31.5113   -2.7166  -14.8466 C.2     1  UNL1        0.3439
     58 O         -32.4301   -3.5714  -14.9663 O.2     1  UNL1       -0.2475
     59 O         -31.5699   -1.7764  -13.8224 O.3     1  UNL1       -0.4785
     60 H         -32.3349   -1.7789  -13.1583 H       1  UNL1        0.2951
@<TRIPOS>BOND
     1    15    16    1
     2    16     1    1
     3     1     2   ar
     4     2     7    1
     5     7     8    2
     6     7     9   am
     7     9    11    1
     8    11    12    1
     9    11    13    1
    10    11    14    1
    11     2     3   ar
    12     3     4   ar
    13     4     5   ar
    14     5    32    1
    15    32    33    1
    16    33    34   ar
    17    34    35   ar
    18    35    36    1
    19    35    37   ar
    20    37    41    1
    21    41    42    1
    22    42    43    2
    23    42    44    1
    24    44    45    1
    25    45    46    1
    26    46    47    1
    27    47    57    1
    28    57    58    2
    29    57    59    1
    30    47    48    1
    31    48    49    1
    32    48    50    1
    33    50    51    1
    34    50    52    1
    35    52    53    1
    36    37    38   ar
    37    38    39   ar
    38    39    40    1
    39     5     6   ar
    40     6    17    1
    41    17    19    1
    42    19    20    2
    43    19    21    2
    44    19    22    1
    45    22    23   ar
    46    23    24   ar
    47    24    25   ar
    48    25    29    1
    49    29    30    1
    50    30    31    1
    51    25    26   ar
    52    26    27   ar
    53    27    28    1
    54     6     1   ar
    55    27    22   ar
    56    39    33   ar
    57    31    29    1
    58    52    45    1
    59     9    10    1
    60    59    60    1
    61    49    54    1
    62    51    55    1
    63    53    56    1
    64    17    18    1
@<TRIPOS>MOLECULE
*****
 60 64 0 0 0
SMALL
GASTEIGER

@<TRIPOS>ATOM
      1 C         -19.5496   -9.1884   -9.0273 C.ar    1  UNL1        0.1605
      2 C         -19.6490   -8.2362   -7.9868 C.ar    1  UNL1        0.0887
      3 C         -20.2250   -6.9849   -8.2576 C.ar    1  UNL1        0.0108
      4 C         -20.6107   -6.6463   -9.5551 C.ar    1  UNL1        0.0392
      5 C         -20.4182   -7.5431  -10.6072 C.ar    1  UNL1        0.1628
      6 C         -19.9321   -8.8414  -10.3345 C.ar    1  UNL1        0.1331
      7 C         -19.1255   -8.5047   -6.6289 C.2     1  UNL1        0.2487
      8 O         -17.9199   -8.8465   -6.4947 O.2     1  UNL1       -0.2700
      9 N         -19.9961   -8.4247   -5.4828 N.am    1  UNL1       -0.3039
     10 H         -21.0130   -8.2726   -5.6738 H       1  UNL1        0.1496
     11 C         -19.5707   -8.5921   -4.0787 C.3     1  UNL1        0.0572
     12 C         -18.8999   -7.3035   -3.5643 C.3     1  UNL1        0.0196
     13 C         -20.8131   -8.8751   -3.2088 C.3     1  UNL1        0.0196
     14 C         -18.6039   -9.7859   -3.9525 C.3     1  UNL1        0.0196
     15 C         -17.7782  -10.9063   -9.1278 C.3     1  UNL1        0.2525
     16 O         -19.0953  -10.4899   -8.7867 O.3     1  UNL1       -0.4699
     17 N         -19.8585   -9.8280  -11.3702 N.pl3   1  UNL1       -0.2090
     18 H         -18.9337  -10.0166  -11.8144 H       1  UNL1        0.1740
     19 S         -21.0690  -11.0590  -11.5152 S.O2    1  UNL1        0.0746
     20 O         -20.7058  -12.2422  -10.6640 O.2     1  UNL1       -0.1499
     21 O         -21.1621  -11.5130  -12.9459 O.2     1  UNL1       -0.1499
     22 C         -22.6190  -10.3924  -10.9920 C.ar    1  UNL1        0.1356
     23 C         -22.6742   -9.6065   -9.8337 C.ar    1  UNL1        0.0207
     24 C         -23.8942   -9.1191   -9.3610 C.ar    1  UNL1       -0.0028
     25 C         -25.0934   -9.4067  -10.0445 C.ar    1  UNL1       -0.0216
     26 C         -25.0312  -10.1845  -11.2107 C.ar    1  UNL1        0.0085
     27 C         -23.8109  -10.6759  -11.6876 C.ar    1  UNL1        0.0762
     28 CL        -23.8264  -11.6419  -13.1592 Cl      1  UNL1       -0.0809
     29 C         -26.4614   -8.9269   -9.5885 C.3     1  UNL1        0.0224
     30 C         -26.7760   -7.4496   -9.7799 C.3     1  UNL1        0.0047
     31 C         -27.4485   -8.4932  -10.6636 C.3     1  UNL1        0.0047
     32 O         -20.7090   -7.1186  -11.9125 O.3     1  UNL1       -0.4512
     33 C         -22.0006   -7.1170  -12.4610 C.ar    1  UNL1        0.1580
     34 C         -22.3518   -8.0049  -13.4928 C.ar    1  UNL1        0.0677
     35 C         -23.6698   -8.0801  -13.9429 C.ar    1  UNL1        0.1398
     36 F         -23.9919   -8.9876  -14.8992 F       1  UNL1       -0.2044
     37 C         -24.6584   -7.2603  -13.3722 C.ar    1  UNL1        0.0175
     38 C         -24.2905   -6.3166  -12.3986 C.ar    1  UNL1        0.0130
     39 C         -22.9632   -6.2282  -11.9626 C.ar    1  UNL1        0.0919
     40 CL        -22.5401   -5.0668  -10.7142 Cl      1  UNL1       -0.0791
     41 C         -26.1090   -7.4784  -13.7094 C.3     1  UNL1        0.1382
     42 C         -26.7457   -6.1564  -14.0009 C.2     1  UNL1        0.3234
     43 O         -27.4754   -5.6079  -13.1305 O.2     1  UNL1       -0.2497
     44 O         -26.5858   -5.5804  -15.2652 O.3     1  UNL1       -0.4215
     45 C         -27.0909   -4.2894  -15.6021 C.3     1  UNL1        0.3207
     46 O         -28.4542   -4.4358  -15.9819 O.3     1  UNL1       -0.3070
     47 C         -28.9392   -3.2630  -16.6051 C.3     1  UNL1        0.2456
     48 C         -28.3296   -3.1101  -18.0248 C.3     1  UNL1        0.1781
     49 O         -28.2664   -1.7480  -18.3646 O.3     1  UNL1       -0.3790
     50 C         -26.9070   -3.7219  -18.0958 C.3     1  UNL1        0.1733
     51 O         -26.9377   -5.0364  -18.6000 O.3     1  UNL1       -0.3793
     52 C         -26.1993   -3.6819  -16.7244 C.3     1  UNL1        0.2106
     53 O         -25.8875   -2.3511  -16.3944 O.3     1  UNL1       -0.3766
     54 H         -29.1943   -1.4598  -18.5692 H       1  UNL1        0.2106
     55 H         -27.5456   -5.5747  -18.0310 H       1  UNL1        0.2105
     56 H         -25.1024   -2.0915  -16.9444 H       1  UNL1        0.2107
     57 C         -30.4366   -3.3370  -16.6814 C.2     1  UNL1        0.3439
     58 O         -31.0548   -2.7405  -17.6041 O.2     1  UNL1       -0.2475
     59 O         -31.1465   -4.0606  -15.7281 O.3     1  UNL1       -0.4785
     60 H         -32.1562   -4.1292  -15.7739 H       1  UNL1        0.2951
@<TRIPOS>BOND
     1    15    16    1
     2    16     1    1
     3     1     2   ar
     4     2     7    1
     5     7     8    2
     6     7     9   am
     7     9    11    1
     8    11    12    1
     9    11    13    1
    10    11    14    1
    11     2     3   ar
    12     3     4   ar
    13     4     5   ar
    14     5    32    1
    15    32    33    1
    16    33    34   ar
    17    34    35   ar
    18    35    36    1
    19    35    37   ar
    20    37    41    1
    21    41    42    1
    22    42    43    2
    23    42    44    1
    24    44    45    1
    25    45    46    1
    26    46    47    1
    27    47    57    1
    28    57    58    2
    29    57    59    1
    30    47    48    1
    31    48    49    1
    32    48    50    1
    33    50    51    1
    34    50    52    1
    35    52    53    1
    36    37    38   ar
    37    38    39   ar
    38    39    40    1
    39     5     6   ar
    40     6    17    1
    41    17    19    1
    42    19    20    2
    43    19    21    2
    44    19    22    1
    45    22    23   ar
    46    23    24   ar
    47    24    25   ar
    48    25    29    1
    49    29    30    1
    50    30    31    1
    51    25    26   ar
    52    26    27   ar
    53    27    28    1
    54     6     1   ar
    55    27    22   ar
    56    39    33   ar
    57    31    29    1
    58    52    45    1
    59     9    10    1
    60    59    60    1
    61    49    54    1
    62    51    55    1
    63    53    56    1
    64    17    18    1
@<TRIPOS>MOLECULE
*****
 60 64 0 0 0
SMALL
GASTEIGER

@<TRIPOS>ATOM
      1 C         -19.9523   -8.9157   -8.5864 C.ar    1  UNL1        0.1605
      2 C         -18.8869   -9.7321   -8.1421 C.ar    1  UNL1        0.0887
      3 C         -18.4963  -10.8317   -8.9226 C.ar    1  UNL1        0.0108
      4 C         -19.2061  -11.1732  -10.0743 C.ar    1  UNL1        0.0392
      5 C         -20.3245  -10.4332  -10.4616 C.ar    1  UNL1        0.1628
      6 C         -20.6699   -9.2669   -9.7428 C.ar    1  UNL1        0.1331
      7 C         -18.1972   -9.4858   -6.8561 C.2     1  UNL1        0.2487
      8 O         -17.2278  -10.2227   -6.5310 O.2     1  UNL1       -0.2700
      9 N         -18.6602   -8.4500   -5.9670 N.am    1  UNL1       -0.3039
     10 H         -19.5499   -7.9672   -6.2296 H       1  UNL1        0.1496
     11 C         -18.0068   -8.0614   -4.7011 C.3     1  UNL1        0.0572
     12 C         -16.6781   -7.3339   -4.9847 C.3     1  UNL1        0.0196
     13 C         -18.9352   -7.0979   -3.9329 C.3     1  UNL1        0.0196
     14 C         -17.7598   -9.3046   -3.8241 C.3     1  UNL1        0.0196
     15 C         -20.2183   -6.4612   -8.5263 C.3     1  UNL1        0.2525
     16 O         -20.3046   -7.7415   -7.9117 O.3     1  UNL1       -0.4699
     17 N         -21.7235   -8.4109  -10.1993 N.pl3   1  UNL1       -0.2090
     18 H         -21.6338   -7.9673  -11.1391 H       1  UNL1        0.1740
     19 S         -23.3176   -8.5261   -9.5304 S.O2    1  UNL1        0.0746
     20 O         -23.3997   -7.7374   -8.2547 O.2     1  UNL1       -0.1499
     21 O         -23.6359   -9.9633   -9.2223 O.2     1  UNL1       -0.1499
     22 C         -24.4720   -7.8916  -10.7074 C.ar    1  UNL1        0.1356
     23 C         -25.7044   -8.5352  -10.8781 C.ar    1  UNL1        0.0207
     24 C         -26.6102   -8.0946  -11.8450 C.ar    1  UNL1       -0.0028
     25 C         -26.3013   -6.9901  -12.6652 C.ar    1  UNL1       -0.0216
     26 C         -25.0705   -6.3418  -12.4821 C.ar    1  UNL1        0.0085
     27 C         -24.1592   -6.7804  -11.5150 C.ar    1  UNL1        0.0762
     28 CL        -22.6397   -5.9063  -11.3534 Cl      1  UNL1       -0.0809
     29 C         -27.2249   -6.4579  -13.7483 C.3     1  UNL1        0.0224
     30 C         -27.4001   -4.9476  -13.8280 C.3     1  UNL1        0.0047
     31 C         -26.5908   -5.6786  -14.8924 C.3     1  UNL1        0.0047
     32 O         -21.0789  -10.8808  -11.5565 O.3     1  UNL1       -0.4512
     33 C         -21.6783  -10.0233  -12.4916 C.ar    1  UNL1        0.1580
     34 C         -20.9435   -8.9966  -13.1100 C.ar    1  UNL1        0.0677
     35 C         -21.5146   -8.2323  -14.1274 C.ar    1  UNL1        0.1398
     36 F         -20.7629   -7.2872  -14.7466 F       1  UNL1       -0.2044
     37 C         -22.8360   -8.4781  -14.5378 C.ar    1  UNL1        0.0175
     38 C         -23.5955   -9.4491  -13.8639 C.ar    1  UNL1        0.0130
     39 C         -23.0272  -10.2013  -12.8291 C.ar    1  UNL1        0.0919
     40 CL        -23.9881  -11.4372  -12.0318 Cl      1  UNL1       -0.0791
     41 C         -23.3862   -7.7983  -15.7629 C.3     1  UNL1        0.1382
     42 C         -23.0598   -8.6245  -16.9666 C.2     1  UNL1        0.3234
     43 O         -23.5174   -8.2945  -18.0947 O.2     1  UNL1       -0.2497
     44 O         -22.3133   -9.7971  -16.8136 O.3     1  UNL1       -0.4215
     45 C         -22.8557  -11.0990  -17.0286 C.3     1  UNL1        0.3207
     46 O         -23.8103  -11.3525  -16.0046 O.3     1  UNL1       -0.3070
     47 C         -24.1748  -12.7182  -15.9733 C.3     1  UNL1        0.2456
     48 C         -23.0120  -13.5784  -15.4091 C.3     1  UNL1        0.1781
     49 O         -23.0820  -14.8742  -15.9481 O.3     1  UNL1       -0.3790
     50 C         -21.6339  -12.9559  -15.7505 C.3     1  UNL1        0.1733
     51 O         -21.1455  -12.1741  -14.6859 O.3     1  UNL1       -0.3793
     52 C         -21.6881  -12.1284  -17.0526 C.3     1  UNL1        0.2106
     53 O         -21.8569  -12.9900  -18.1510 O.3     1  UNL1       -0.3766
     54 H         -23.8385  -15.3324  -15.4968 H       1  UNL1        0.2106
     55 H         -21.8224  -11.4824  -14.4706 H       1  UNL1        0.2105
     56 H         -20.9791  -13.4232  -18.3182 H       1  UNL1        0.2107
     57 C         -25.4033  -12.8739  -15.1246 C.2     1  UNL1        0.3439
     58 O         -26.0965  -11.8656  -14.8213 O.2     1  UNL1       -0.2475
     59 O         -25.7760  -14.1335  -14.6654 O.3     1  UNL1       -0.4785
     60 H         -26.6091  -14.2553  -14.1019 H       1  UNL1        0.2951
@<TRIPOS>BOND
     1    15    16    1
     2    16     1    1
     3     1     2   ar
     4     2     7    1
     5     7     8    2
     6     7     9   am
     7     9    11    1
     8    11    12    1
     9    11    13    1
    10    11    14    1
    11     2     3   ar
    12     3     4   ar
    13     4     5   ar
    14     5    32    1
    15    32    33    1
    16    33    34   ar
    17    34    35   ar
    18    35    36    1
    19    35    37   ar
    20    37    41    1
    21    41    42    1
    22    42    43    2
    23    42    44    1
    24    44    45    1
    25    45    46    1
    26    46    47    1
    27    47    57    1
    28    57    58    2
    29    57    59    1
    30    47    48    1
    31    48    49    1
    32    48    50    1
    33    50    51    1
    34    50    52    1
    35    52    53    1
    36    37    38   ar
    37    38    39   ar
    38    39    40    1
    39     5     6   ar
    40     6    17    1
    41    17    19    1
    42    19    20    2
    43    19    21    2
    44    19    22    1
    45    22    23   ar
    46    23    24   ar
    47    24    25   ar
    48    25    29    1
    49    29    30    1
    50    30    31    1
    51    25    26   ar
    52    26    27   ar
    53    27    28    1
    54     6     1   ar
    55    27    22   ar
    56    39    33   ar
    57    31    29    1
    58    52    45    1
    59     9    10    1
    60    59    60    1
    61    49    54    1
    62    51    55    1
    63    53    56    1
    64    17    18    1
@<TRIPOS>MOLECULE
*****
 60 64 0 0 0
SMALL
GASTEIGER

@<TRIPOS>ATOM
      1 C         -19.8720   -9.0225   -9.3523 C.ar    1  UNL1        0.1605
      2 C         -20.0137   -7.9427   -8.4507 C.ar    1  UNL1        0.0887
      3 C         -20.6758   -6.7798   -8.8750 C.ar    1  UNL1        0.0108
      4 C         -21.1080   -6.6501  -10.1953 C.ar    1  UNL1        0.0392
      5 C         -20.8772   -7.6711  -11.1188 C.ar    1  UNL1        0.1628
      6 C         -20.3017   -8.8858  -10.6835 C.ar    1  UNL1        0.1331
      7 C         -19.4477   -7.9861   -7.0840 C.2     1  UNL1        0.2487
      8 O         -19.7671   -7.0868   -6.2609 O.2     1  UNL1       -0.2700
      9 N         -18.5062   -9.0141   -6.7170 N.am    1  UNL1       -0.3039
     10 H         -18.1773   -9.6463   -7.4824 H       1  UNL1        0.1496
     11 C         -17.9391   -9.2049   -5.3670 C.3     1  UNL1        0.0572
     12 C         -17.0583  -10.4689   -5.3289 C.3     1  UNL1        0.0196
     13 C         -17.0588   -7.9872   -5.0164 C.3     1  UNL1        0.0196
     14 C         -19.0684   -9.3077   -4.3231 C.3     1  UNL1        0.0196
     15 C         -18.0776  -10.7173   -9.4355 C.3     1  UNL1        0.2525
     16 O         -19.3286  -10.2469   -8.9475 O.3     1  UNL1       -0.4699
     17 N         -20.1834  -10.0005  -11.5750 N.pl3   1  UNL1       -0.2090
     18 H         -19.2292  -10.3382  -11.8272 H       1  UNL1        0.1740
     19 S         -21.4959  -11.1103  -11.7923 S.O2    1  UNL1        0.0746
     20 O         -21.2372  -12.3726  -11.0203 O.2     1  UNL1       -0.1499
     21 O         -21.6273  -11.4619  -13.2486 O.2     1  UNL1       -0.1499
     22 C         -22.9826  -10.3469  -11.2198 C.ar    1  UNL1        0.1356
     23 C         -23.0731   -9.9321   -9.8849 C.ar    1  UNL1        0.0207
     24 C         -24.2571   -9.3838   -9.3880 C.ar    1  UNL1       -0.0028
     25 C         -25.3830   -9.2344  -10.2235 C.ar    1  UNL1       -0.0216
     26 C         -25.2833   -9.6406  -11.5629 C.ar    1  UNL1        0.0085
     27 C         -24.0990  -10.1915  -12.0650 C.ar    1  UNL1        0.0762
     28 CL        -24.0630  -10.6721  -13.7581 Cl      1  UNL1       -0.0809
     29 C         -26.7108   -8.6610   -9.7571 C.3     1  UNL1        0.0224
     30 C         -26.9648   -7.1862  -10.0378 C.3     1  UNL1        0.0047
     31 C         -27.7148   -8.2529  -10.8266 C.3     1  UNL1        0.0047
     32 O         -21.2205   -7.4516  -12.4614 O.3     1  UNL1       -0.4512
     33 C         -22.5077   -7.0894  -12.8866 C.ar    1  UNL1        0.1580
     34 C         -23.3449   -6.3024  -12.0765 C.ar    1  UNL1        0.0677
     35 C         -24.5706   -5.8451  -12.5602 C.ar    1  UNL1        0.1398
     36 F         -25.3316   -5.0386  -11.7777 F       1  UNL1       -0.2044
     37 C         -24.9830   -6.1754  -13.8624 C.ar    1  UNL1        0.0175
     38 C         -24.1832   -7.0286  -14.6408 C.ar    1  UNL1        0.0130
     39 C         -22.9628   -7.5036  -14.1461 C.ar    1  UNL1        0.0919
     40 CL        -21.9641   -8.5359  -15.1577 Cl      1  UNL1       -0.0791
     41 C         -26.2016   -5.5228  -14.4581 C.3     1  UNL1        0.1382
     42 C         -27.4173   -6.2892  -14.0425 C.2     1  UNL1        0.3234
     43 O         -27.3223   -7.5196  -13.7818 O.2     1  UNL1       -0.2497
     44 O         -28.6601   -5.6484  -14.0221 O.3     1  UNL1       -0.4215
     45 C         -29.4074   -5.3610  -15.2029 C.3     1  UNL1        0.3207
     46 O         -28.7789   -4.2711  -15.8671 O.3     1  UNL1       -0.3070
     47 C         -29.6130   -3.7394  -16.8773 C.3     1  UNL1        0.2456
     48 C         -30.7994   -2.9603  -16.2484 C.3     1  UNL1        0.1781
     49 O         -31.9014   -2.9992  -17.1194 O.3     1  UNL1       -0.3790
     50 C         -31.2073   -3.5637  -14.8798 C.3     1  UNL1        0.1733
     51 O         -30.6043   -2.8704  -13.8125 O.3     1  UNL1       -0.3793
     52 C         -30.8832   -5.0710  -14.8013 C.3     1  UNL1        0.2106
     53 O         -31.7416   -5.7821  -15.6585 O.3     1  UNL1       -0.3766
     54 H         -31.6973   -2.3802  -17.8685 H       1  UNL1        0.2106
     55 H         -29.6221   -2.8843  -13.9468 H       1  UNL1        0.2105
     56 H         -32.6279   -5.8244  -15.2127 H       1  UNL1        0.2107
     57 C         -28.7971   -2.8354  -17.7552 C.2     1  UNL1        0.3439
     58 O         -27.5399   -2.9285  -17.7671 O.2     1  UNL1       -0.2475
     59 O         -29.4284   -1.8869  -18.5542 O.3     1  UNL1       -0.4785
     60 H         -28.8914   -1.2784  -19.1605 H       1  UNL1        0.2951
@<TRIPOS>BOND
     1    15    16    1
     2    16     1    1
     3     1     2   ar
     4     2     7    1
     5     7     8    2
     6     7     9   am
     7     9    11    1
     8    11    12    1
     9    11    13    1
    10    11    14    1
    11     2     3   ar
    12     3     4   ar
    13     4     5   ar
    14     5    32    1
    15    32    33    1
    16    33    34   ar
    17    34    35   ar
    18    35    36    1
    19    35    37   ar
    20    37    41    1
    21    41    42    1
    22    42    43    2
    23    42    44    1
    24    44    45    1
    25    45    46    1
    26    46    47    1
    27    47    57    1
    28    57    58    2
    29    57    59    1
    30    47    48    1
    31    48    49    1
    32    48    50    1
    33    50    51    1
    34    50    52    1
    35    52    53    1
    36    37    38   ar
    37    38    39   ar
    38    39    40    1
    39     5     6   ar
    40     6    17    1
    41    17    19    1
    42    19    20    2
    43    19    21    2
    44    19    22    1
    45    22    23   ar
    46    23    24   ar
    47    24    25   ar
    48    25    29    1
    49    29    30    1
    50    30    31    1
    51    25    26   ar
    52    26    27   ar
    53    27    28    1
    54     6     1   ar
    55    27    22   ar
    56    39    33   ar
    57    31    29    1
    58    52    45    1
    59     9    10    1
    60    59    60    1
    61    49    54    1
    62    51    55    1
    63    53    56    1
    64    17    18    1
@<TRIPOS>MOLECULE
*****
 60 64 0 0 0
SMALL
GASTEIGER

@<TRIPOS>ATOM
      1 C         -27.0488   -5.2040  -14.9167 C.ar    1  UNL1        0.1605
      2 C         -26.7055   -4.8097  -16.2304 C.ar    1  UNL1        0.0887
      3 C         -25.5548   -5.3485  -16.8275 C.ar    1  UNL1        0.0108
      4 C         -24.7077   -6.1900  -16.1056 C.ar    1  UNL1        0.0392
      5 C         -24.9853   -6.4995  -14.7731 C.ar    1  UNL1        0.1628
      6 C         -26.1895   -6.0458  -14.1899 C.ar    1  UNL1        0.1331
      7 C         -27.5015   -3.8129  -16.9806 C.2     1  UNL1        0.2487
      8 O         -26.9153   -2.8205  -17.4905 O.2     1  UNL1       -0.2700
      9 N         -28.9328   -3.9502  -17.0827 N.am    1  UNL1       -0.3039
     10 H         -29.3733   -4.7163  -16.5235 H       1  UNL1        0.1496
     11 C         -29.8177   -3.0667  -17.8681 C.3     1  UNL1        0.0572
     12 C         -28.9850   -2.1630  -18.7981 C.3     1  UNL1        0.0196
     13 C         -30.7488   -3.9355  -18.7390 C.3     1  UNL1        0.0196
     14 C         -30.6878   -2.2099  -16.9276 C.3     1  UNL1        0.0196
     15 C         -29.4512   -5.5356  -14.4501 C.3     1  UNL1        0.2525
     16 O         -28.2451   -4.7923  -14.3187 O.3     1  UNL1       -0.4699
     17 N         -26.5685   -6.4644  -12.8737 N.pl3   1  UNL1       -0.2090
     18 H         -26.9536   -5.7526  -12.2155 H       1  UNL1        0.1740
     19 S         -26.9251   -8.1258  -12.5357 S.O2    1  UNL1        0.0746
     20 O         -27.3260   -8.8343  -13.7980 O.2     1  UNL1       -0.1499
     21 O         -28.0659   -8.2114  -11.5594 O.2     1  UNL1       -0.1499
     22 C         -25.4854   -8.8849  -11.8489 C.ar    1  UNL1        0.1356
     23 C         -25.0111   -8.4581  -10.6018 C.ar    1  UNL1        0.0207
     24 C         -23.8401   -8.9950  -10.0633 C.ar    1  UNL1       -0.0028
     25 C         -23.1155   -9.9804  -10.7647 C.ar    1  UNL1       -0.0216
     26 C         -23.6013  -10.4128  -12.0081 C.ar    1  UNL1        0.0085
     27 C         -24.7738   -9.8769  -12.5521 C.ar    1  UNL1        0.0762
     28 CL        -25.3105  -10.4794  -14.1166 Cl      1  UNL1       -0.0809
     29 C         -21.8267  -10.6039  -10.2552 C.3     1  UNL1        0.0224
     30 C         -20.9269  -11.2730  -11.2852 C.3     1  UNL1        0.0047
     31 C         -20.5168   -9.9434  -10.6635 C.3     1  UNL1        0.0047
     32 O         -24.0470   -7.2507  -14.0493 O.3     1  UNL1       -0.4512
     33 C         -23.1657   -6.6971  -13.1081 C.ar    1  UNL1        0.1580
     34 C         -23.5641   -5.6342  -12.2785 C.ar    1  UNL1        0.0677
     35 C         -22.7240   -5.1762  -11.2637 C.ar    1  UNL1        0.1398
     36 F         -23.1581   -4.1883  -10.4406 F       1  UNL1       -0.2044
     37 C         -21.4656   -5.7701  -11.0673 C.ar    1  UNL1        0.0175
     38 C         -21.0359   -6.7767  -11.9481 C.ar    1  UNL1        0.0130
     39 C         -21.8720   -7.2211  -12.9791 C.ar    1  UNL1        0.0919
     40 CL        -21.3243   -8.5099  -14.0400 Cl      1  UNL1       -0.0791
     41 C         -20.6448   -5.4194   -9.8553 C.3     1  UNL1        0.1382
     42 C         -20.6928   -6.5593   -8.8876 C.2     1  UNL1        0.3234
     43 O         -21.8075   -7.0152   -8.5127 O.2     1  UNL1       -0.2497
     44 O         -19.5007   -7.0561   -8.3510 O.3     1  UNL1       -0.4215
     45 C         -19.3240   -7.3218   -6.9605 C.3     1  UNL1        0.3207
     46 O         -17.9573   -7.0919   -6.6389 O.3     1  UNL1       -0.3070
     47 C         -17.6393   -7.6095   -5.3622 C.3     1  UNL1        0.2456
     48 C         -17.5996   -9.1611   -5.3991 C.3     1  UNL1        0.1781
     49 O         -17.9271   -9.6697   -4.1308 O.3     1  UNL1       -0.3790
     50 C         -18.5917   -9.7250   -6.4484 C.3     1  UNL1        0.1733
     51 O         -17.9467   -9.9992   -7.6699 O.3     1  UNL1       -0.3793
     52 C         -19.7907   -8.7776   -6.6673 C.3     1  UNL1        0.2106
     53 O         -20.6056   -8.7775   -5.5214 O.3     1  UNL1       -0.3766
     54 H         -17.1390   -9.5145   -3.5470 H       1  UNL1        0.2106
     55 H         -17.5067   -9.1679   -7.9838 H       1  UNL1        0.2105
     56 H         -21.1188   -9.6277   -5.5296 H       1  UNL1        0.2107
     57 C         -16.3101   -7.0600   -4.9324 C.2     1  UNL1        0.3439
     58 O         -15.5141   -7.7747   -4.2653 O.2     1  UNL1       -0.2475
     59 O         -15.9564   -5.7559   -5.2651 O.3     1  UNL1       -0.4785
     60 H         -15.0578   -5.3758   -4.9921 H       1  UNL1        0.2951
@<TRIPOS>BOND
     1    15    16    1
     2    16     1    1
     3     1     2   ar
     4     2     7    1
     5     7     8    2
     6     7     9   am
     7     9    11    1
     8    11    12    1
     9    11    13    1
    10    11    14    1
    11     2     3   ar
    12     3     4   ar
    13     4     5   ar
    14     5    32    1
    15    32    33    1
    16    33    34   ar
    17    34    35   ar
    18    35    36    1
    19    35    37   ar
    20    37    41    1
    21    41    42    1
    22    42    43    2
    23    42    44    1
    24    44    45    1
    25    45    46    1
    26    46    47    1
    27    47    57    1
    28    57    58    2
    29    57    59    1
    30    47    48    1
    31    48    49    1
    32    48    50    1
    33    50    51    1
    34    50    52    1
    35    52    53    1
    36    37    38   ar
    37    38    39   ar
    38    39    40    1
    39     5     6   ar
    40     6    17    1
    41    17    19    1
    42    19    20    2
    43    19    21    2
    44    19    22    1
    45    22    23   ar
    46    23    24   ar
    47    24    25   ar
    48    25    29    1
    49    29    30    1
    50    30    31    1
    51    25    26   ar
    52    26    27   ar
    53    27    28    1
    54     6     1   ar
    55    27    22   ar
    56    39    33   ar
    57    31    29    1
    58    52    45    1
    59     9    10    1
    60    59    60    1
    61    49    54    1
    62    51    55    1
    63    53    56    1
    64    17    18    1
@<TRIPOS>MOLECULE
*****
 60 64 0 0 0
SMALL
GASTEIGER

@<TRIPOS>ATOM
      1 C         -22.4077   -9.5411  -13.1662 C.ar    1  UNL1        0.1605
      2 C         -22.6525  -10.9285  -13.0459 C.ar    1  UNL1        0.0887
      3 C         -21.9926  -11.6550  -12.0422 C.ar    1  UNL1        0.0108
      4 C         -21.0375  -11.0403  -11.2317 C.ar    1  UNL1        0.0392
      5 C         -20.7144   -9.6948  -11.4151 C.ar    1  UNL1        0.1628
      6 C         -21.4397   -8.9267  -12.3532 C.ar    1  UNL1        0.1331
      7 C         -23.5538  -11.6466  -13.9745 C.2     1  UNL1        0.2487
      8 O         -24.5493  -11.0393  -14.4526 O.2     1  UNL1       -0.2700
      9 N         -23.3231  -13.0347  -14.2872 N.am    1  UNL1       -0.3039
     10 H         -22.5648  -13.5178  -13.7532 H       1  UNL1        0.1496
     11 C         -24.1040  -13.8289  -15.2567 C.3     1  UNL1        0.0572
     12 C         -25.5307  -14.0703  -14.7267 C.3     1  UNL1        0.0196
     13 C         -24.2030  -13.0455  -16.5822 C.3     1  UNL1        0.0196
     14 C         -23.4018  -15.1724  -15.5348 C.3     1  UNL1        0.0196
     15 C         -22.5740   -8.3279  -15.3108 C.3     1  UNL1        0.2525
     16 O         -23.1252   -8.7473  -14.0679 O.3     1  UNL1       -0.4699
     17 N         -21.2285   -7.5144  -12.4627 N.pl3   1  UNL1       -0.2090
     18 H         -20.7789   -7.1429  -13.3275 H       1  UNL1        0.1740
     19 S         -22.1547   -6.3992  -11.5138 S.O2    1  UNL1        0.0746
     20 O         -21.7087   -4.9919  -11.7908 O.2     1  UNL1       -0.1499
     21 O         -21.9489   -6.6843  -10.0516 O.2     1  UNL1       -0.1499
     22 C         -23.8615   -6.5842  -11.9300 C.ar    1  UNL1        0.1356
     23 C         -24.4349   -5.7284  -12.8792 C.ar    1  UNL1        0.0207
     24 C         -25.7956   -5.8095  -13.1815 C.ar    1  UNL1       -0.0028
     25 C         -26.6168   -6.7581  -12.5384 C.ar    1  UNL1       -0.0216
     26 C         -26.0351   -7.6208  -11.5970 C.ar    1  UNL1        0.0085
     27 C         -24.6721   -7.5426  -11.2901 C.ar    1  UNL1        0.0762
     28 CL        -24.0268   -8.6655  -10.0978 Cl      1  UNL1       -0.0809
     29 C         -28.1069   -6.9010  -12.8001 C.3     1  UNL1        0.0224
     30 C         -28.6167   -6.4510  -14.1624 C.3     1  UNL1        0.0047
     31 C         -28.5441   -7.9360  -13.8278 C.3     1  UNL1        0.0047
     32 O         -19.6657   -9.1477  -10.6604 O.3     1  UNL1       -0.4512
     33 C         -19.0084   -9.8348   -9.6285 C.ar    1  UNL1        0.1580
     34 C         -18.2365  -10.9791   -9.8954 C.ar    1  UNL1        0.0677
     35 C         -17.4880  -11.5792   -8.8829 C.ar    1  UNL1        0.1398
     36 F         -16.7063  -12.6474   -9.1822 F       1  UNL1       -0.2044
     37 C         -17.5063  -11.0476   -7.5821 C.ar    1  UNL1        0.0175
     38 C         -18.3410   -9.9538   -7.2985 C.ar    1  UNL1        0.0130
     39 C         -19.1076   -9.3654   -8.3114 C.ar    1  UNL1        0.0919
     40 CL        -20.1109   -7.9729   -7.9364 Cl      1  UNL1       -0.0791
     41 C         -16.5505  -11.5644   -6.5405 C.3     1  UNL1        0.1382
     42 C         -16.5654  -10.6404   -5.3641 C.2     1  UNL1        0.3234
     43 O         -15.4827  -10.1552   -4.9359 O.2     1  UNL1       -0.2497
     44 O         -17.7724  -10.3858   -4.7052 O.3     1  UNL1       -0.4215
     45 C         -17.8733   -9.5302   -3.5680 C.3     1  UNL1        0.3207
     46 O         -19.2481   -9.2225   -3.3696 O.3     1  UNL1       -0.3070
     47 C         -19.4056   -8.1569   -2.4539 C.3     1  UNL1        0.2456
     48 C         -18.9701   -6.8148   -3.1014 C.3     1  UNL1        0.1781
     49 O         -18.5156   -5.9370   -2.1027 O.3     1  UNL1       -0.3790
     50 C         -17.8431   -7.0318   -4.1435 C.3     1  UNL1        0.1733
     51 O         -18.3619   -7.1240   -5.4496 O.3     1  UNL1       -0.3793
     52 C         -16.9879   -8.2728   -3.8093 C.3     1  UNL1        0.2106
     53 O         -16.2231   -8.0206   -2.6567 O.3     1  UNL1       -0.3766
     54 H         -19.3191   -5.6140   -1.6169 H       1  UNL1        0.2106
     55 H         -19.0312   -7.8552   -5.4685 H       1  UNL1        0.2105
     56 H         -15.4751   -7.4265   -2.9284 H       1  UNL1        0.2107
     57 C         -20.8433   -8.0920   -2.0265 C.2     1  UNL1        0.3439
     58 O         -21.5477   -9.1374   -2.0098 O.2     1  UNL1       -0.2475
     59 O         -21.4034   -6.8740   -1.6535 O.3     1  UNL1       -0.4785
     60 H         -22.3688   -6.8171   -1.3514 H       1  UNL1        0.2951
@<TRIPOS>BOND
     1    15    16    1
     2    16     1    1
     3     1     2   ar
     4     2     7    1
     5     7     8    2
     6     7     9   am
     7     9    11    1
     8    11    12    1
     9    11    13    1
    10    11    14    1
    11     2     3   ar
    12     3     4   ar
    13     4     5   ar
    14     5    32    1
    15    32    33    1
    16    33    34   ar
    17    34    35   ar
    18    35    36    1
    19    35    37   ar
    20    37    41    1
    21    41    42    1
    22    42    43    2
    23    42    44    1
    24    44    45    1
    25    45    46    1
    26    46    47    1
    27    47    57    1
    28    57    58    2
    29    57    59    1
    30    47    48    1
    31    48    49    1
    32    48    50    1
    33    50    51    1
    34    50    52    1
    35    52    53    1
    36    37    38   ar
    37    38    39   ar
    38    39    40    1
    39     5     6   ar
    40     6    17    1
    41    17    19    1
    42    19    20    2
    43    19    21    2
    44    19    22    1
    45    22    23   ar
    46    23    24   ar
    47    24    25   ar
    48    25    29    1
    49    29    30    1
    50    30    31    1
    51    25    26   ar
    52    26    27   ar
    53    27    28    1
    54     6     1   ar
    55    27    22   ar
    56    39    33   ar
    57    31    29    1
    58    52    45    1
    59     9    10    1
    60    59    60    1
    61    49    54    1
    62    51    55    1
    63    53    56    1
    64    17    18    1
