@<TRIPOS>MOLECULE
*****
 37 41 0 0 0
SMALL
GASTEIGER

@<TRIPOS>ATOM
      1 C         -29.9907   50.2284   -8.5187 C.ar    1  UNL1        0.1317
      2 C         -31.2575   50.0987   -9.1213 C.ar    1  UNL1        0.0294
      3 C         -31.4298   50.3812  -10.4888 C.ar    1  UNL1        0.0842
      4 C         -30.3283   50.7842  -11.2577 C.ar    1  UNL1        0.2935
      5 CL        -30.5227   51.1330  -12.9697 Cl      1  UNL1       -0.0100
      6 N         -29.1196   50.8858  -10.6432 N.ar    1  UNL1       -0.1177
      7 C         -27.9177   51.2171  -11.1405 C.ar    1  UNL1        0.3143
      8 C         -27.0053   51.1396  -10.0935 C.ar    1  UNL1        0.1320
      9 N         -27.6418   50.7619   -8.9577 N.ar    1  UNL1       -0.2940
     10 C         -28.9275   50.6259   -9.3389 C.ar    1  UNL1        0.3128
     11 H         -27.2553   50.6201   -8.0634 H       1  UNL1        0.1718
     12 N         -28.1370   49.0333   -5.1654 N.3     1  UNL1       -0.2647
     13 C         -29.4691   48.4015   -5.2170 C.3     1  UNL1        0.0941
     14 C         -30.0585   48.5815   -6.6195 C.3     1  UNL1        0.1084
     15 N         -29.7957   49.9343   -7.1243 N.pl3   1  UNL1       -0.2988
     16 C         -29.3734   50.9803   -6.1869 C.3     1  UNL1        0.1084
     17 C         -28.1666   50.5047   -5.3567 C.3     1  UNL1        0.0941
     18 C         -27.3331   48.6183   -3.9947 C.3     1  UNL1        0.1199
     19 C         -25.8617   45.3460   -3.7664 C.ar    1  UNL1        0.1165
     20 N         -26.5205   46.3708   -3.1837 N.ar    1  UNL1       -0.2344
     21 C         -26.6575   47.2787   -4.1716 C.ar    1  UNL1        0.0878
     22 C         -26.0683   46.7903   -5.3246 C.ar    1  UNL1        0.0499
     23 C         -25.9173   47.4961   -6.6349 C.3     1  UNL1        0.0511
     24 N         -25.5604   45.5763   -5.0593 N.ar    1  UNL1       -0.3443
     25 H         -25.0278   44.9537   -5.7073 H       1  UNL1        0.1668
     26 C         -25.6869   44.2829   -1.5296 C.3     1  UNL1        0.0084
     27 C         -25.4324   44.1202   -3.0231 C.3     1  UNL1        0.0637
     28 C         -25.5484   51.4121  -10.1577 C.ar    1  UNL1        0.0218
     29 C         -24.9095   51.5069  -11.4033 C.ar    1  UNL1        0.0013
     30 C         -23.5384   51.7626  -11.4873 C.ar    1  UNL1       -0.0042
     31 C         -22.7565   51.9328  -10.3218 C.ar    1  UNL1       -0.0228
     32 C         -23.4114   51.8349   -9.0750 C.ar    1  UNL1       -0.0042
     33 C         -24.7823   51.5791   -8.9938 C.ar    1  UNL1        0.0013
     34 C         -21.2406   52.2165  -10.3666 C.3     1  UNL1        0.0189
     35 C         -20.9806   53.4979  -11.1883 C.3     1  UNL1        0.0044
     36 C         -20.4274   51.0700  -11.0147 C.3     1  UNL1        0.0044
     37 C         -20.7107   52.4124   -8.9295 C.3     1  UNL1        0.0044
@<TRIPOS>BOND
     1    26    27    1
     2    27    19    1
     3    19    20   ar
     4    20    21   ar
     5    21    18    1
     6    18    12    1
     7    12    13    1
     8    13    14    1
     9    14    15    1
    10    15     1    1
    11     1     2   ar
    12     2     3   ar
    13     3     4   ar
    14     4     5    1
    15     4     6   ar
    16     6     7   ar
    17     7     8   ar
    18     8    28    1
    19    28    29   ar
    20    29    30   ar
    21    30    31   ar
    22    31    34    1
    23    34    35    1
    24    34    36    1
    25    34    37    1
    26    31    32   ar
    27    32    33   ar
    28     8     9   ar
    29     9    10   ar
    30    15    16    1
    31    16    17    1
    32    21    22   ar
    33    22    23    1
    34    22    24   ar
    35    24    19   ar
    36    17    12    1
    37    10     1   ar
    38    10     6   ar
    39    33    28   ar
    40    24    25    1
    41     9    11    1
@<TRIPOS>MOLECULE
*****
 37 41 0 0 0
SMALL
GASTEIGER

@<TRIPOS>ATOM
      1 C         -29.5463   49.2213   -8.3858 C.ar    1  UNL1        0.1317
      2 C         -30.8813   49.2689   -8.8333 C.ar    1  UNL1        0.0294
      3 C         -31.2363   50.0659   -9.9370 C.ar    1  UNL1        0.0842
      4 C         -30.2498   50.8092  -10.6014 C.ar    1  UNL1        0.2935
      5 CL        -30.6731   51.8039  -11.9876 Cl      1  UNL1       -0.0100
      6 N         -28.9706   50.7276  -10.1476 N.ar    1  UNL1       -0.1177
      7 C         -27.8480   51.3023  -10.6070 C.ar    1  UNL1        0.3143
      8 C         -26.8035   50.8656   -9.7988 C.ar    1  UNL1        0.1320
      9 N         -27.2804   50.0260   -8.8471 N.ar    1  UNL1       -0.2940
     10 C         -28.6046   49.9778   -9.0943 C.ar    1  UNL1        0.3128
     11 H         -26.7772   49.5604   -8.1406 H       1  UNL1        0.1718
     12 N         -29.9218   46.6743   -5.3067 N.3     1  UNL1       -0.2647
     13 C         -29.1227   47.8327   -4.8640 C.3     1  UNL1        0.0941
     14 C         -29.2361   48.9508   -5.9050 C.3     1  UNL1        0.1084
     15 N         -29.1652   48.4042   -7.2652 N.pl3   1  UNL1       -0.2988
     16 C         -28.6673   47.0390   -7.4645 C.3     1  UNL1        0.1084
     17 C         -29.4262   46.0511   -6.5590 C.3     1  UNL1        0.0941
     18 C         -30.1772   45.6897   -4.2323 C.3     1  UNL1        0.1199
     19 C         -27.1242   45.1754   -2.4050 C.ar    1  UNL1        0.1165
     20 N         -27.8046   45.1395   -3.5709 N.ar    1  UNL1       -0.2344
     21 C         -29.0412   45.5674   -3.2441 C.ar    1  UNL1        0.0878
     22 C         -29.0858   45.8397   -1.8880 C.ar    1  UNL1        0.0499
     23 C         -30.2766   46.2606   -1.0862 C.3     1  UNL1        0.0511
     24 N         -27.8773   45.5811   -1.3639 N.ar    1  UNL1       -0.3443
     25 H         -27.5882   45.6566   -0.3630 H       1  UNL1        0.1668
     26 C         -24.7535   45.7638   -2.8494 C.3     1  UNL1        0.0084
     27 C         -25.7041   44.7227   -2.2712 C.3     1  UNL1        0.0637
     28 C         -25.3700   51.2279   -9.9201 C.ar    1  UNL1        0.0218
     29 C         -24.5739   51.3246   -8.7689 C.ar    1  UNL1        0.0013
     30 C         -23.2217   51.6646   -8.8596 C.ar    1  UNL1       -0.0042
     31 C         -22.6176   51.9208  -10.1119 C.ar    1  UNL1       -0.0228
     32 C         -23.4296   51.8203  -11.2623 C.ar    1  UNL1       -0.0042
     33 C         -24.7813   51.4802  -11.1688 C.ar    1  UNL1        0.0013
     34 C         -21.1292   52.2992  -10.2599 C.3     1  UNL1        0.0189
     35 C         -20.3902   51.1881  -11.0369 C.3     1  UNL1        0.0044
     36 C         -20.4107   52.4793   -8.9008 C.3     1  UNL1        0.0044
     37 C         -21.0109   53.6310  -11.0324 C.3     1  UNL1        0.0044
@<TRIPOS>BOND
     1    26    27    1
     2    27    19    1
     3    19    20   ar
     4    20    21   ar
     5    21    18    1
     6    18    12    1
     7    12    13    1
     8    13    14    1
     9    14    15    1
    10    15     1    1
    11     1     2   ar
    12     2     3   ar
    13     3     4   ar
    14     4     5    1
    15     4     6   ar
    16     6     7   ar
    17     7     8   ar
    18     8    28    1
    19    28    29   ar
    20    29    30   ar
    21    30    31   ar
    22    31    34    1
    23    34    35    1
    24    34    36    1
    25    34    37    1
    26    31    32   ar
    27    32    33   ar
    28     8     9   ar
    29     9    10   ar
    30    15    16    1
    31    16    17    1
    32    21    22   ar
    33    22    23    1
    34    22    24   ar
    35    24    19   ar
    36    17    12    1
    37    10     1   ar
    38    10     6   ar
    39    33    28   ar
    40    24    25    1
    41     9    11    1
@<TRIPOS>MOLECULE
*****
 37 41 0 0 0
SMALL
GASTEIGER

@<TRIPOS>ATOM
      1 C         -28.8771   50.6443   -7.8730 C.ar    1  UNL1        0.1317
      2 C         -30.1491   50.3944   -8.4246 C.ar    1  UNL1        0.0294
      3 C         -30.3479   50.4534   -9.8161 C.ar    1  UNL1        0.0842
      4 C         -29.2675   50.7527  -10.6588 C.ar    1  UNL1        0.2935
      5 CL        -29.4949   50.8221  -12.4006 Cl      1  UNL1       -0.0100
      6 N         -28.0526   50.9754  -10.0900 N.ar    1  UNL1       -0.1177
      7 C         -26.8663   51.2490  -10.6550 C.ar    1  UNL1        0.3143
      8 C         -25.9371   51.3572   -9.6256 C.ar    1  UNL1        0.1320
      9 N         -26.5480   51.1507   -8.4330 N.ar    1  UNL1       -0.2940
     10 C         -27.8355   50.9292   -8.7647 C.ar    1  UNL1        0.3128
     11 H         -26.1453   51.1602   -7.5347 H       1  UNL1        0.1718
     12 N         -27.3042   49.4517   -4.3783 N.3     1  UNL1       -0.2647
     13 C         -28.7737   49.4714   -4.2502 C.3     1  UNL1        0.0941
     14 C         -29.3993   49.6084   -5.6418 C.3     1  UNL1        0.1084
     15 N         -28.6549   50.5785   -6.4534 N.pl3   1  UNL1       -0.2988
     16 C         -27.7198   51.4969   -5.7951 C.3     1  UNL1        0.1084
     17 C         -26.7341   50.7164   -4.9057 C.3     1  UNL1        0.0941
     18 C         -26.6132   48.9687   -3.1624 C.3     1  UNL1        0.1199
     19 C         -28.6371   46.5395   -1.4514 C.ar    1  UNL1        0.1165
     20 N         -28.4228   47.8173   -1.8323 N.ar    1  UNL1       -0.2344
     21 C         -27.2719   47.7634   -2.5334 C.ar    1  UNL1        0.0878
     22 C         -26.8089   46.4593   -2.5503 C.ar    1  UNL1        0.0499
     23 C         -25.5301   45.9586   -3.1434 C.3     1  UNL1        0.0511
     24 N         -27.6690   45.6954   -1.8584 N.ar    1  UNL1       -0.3443
     25 H         -27.5939   44.6727   -1.6593 H       1  UNL1        0.1668
     26 C         -30.3202   47.3132    0.2018 C.3     1  UNL1        0.0084
     27 C         -29.7868   46.1242   -0.5881 C.3     1  UNL1        0.0637
     28 C         -24.4881   51.6466   -9.7583 C.ar    1  UNL1        0.0218
     29 C         -23.9653   52.0417  -10.9989 C.ar    1  UNL1        0.0013
     30 C         -22.6039   52.3190  -11.1469 C.ar    1  UNL1       -0.0042
     31 C         -21.7152   52.2095  -10.0528 C.ar    1  UNL1       -0.0228
     32 C         -22.2539   51.8109   -8.8102 C.ar    1  UNL1       -0.0042
     33 C         -23.6155   51.5342   -8.6650 C.ar    1  UNL1        0.0013
     34 C         -20.2055   52.5054  -10.1696 C.3     1  UNL1        0.0189
     35 C         -19.5922   51.6230  -11.2785 C.3     1  UNL1        0.0044
     36 C         -19.4285   52.2229   -8.8611 C.3     1  UNL1        0.0044
     37 C         -19.9985   53.9938  -10.5253 C.3     1  UNL1        0.0044
@<TRIPOS>BOND
     1    26    27    1
     2    27    19    1
     3    19    20   ar
     4    20    21   ar
     5    21    18    1
     6    18    12    1
     7    12    13    1
     8    13    14    1
     9    14    15    1
    10    15     1    1
    11     1     2   ar
    12     2     3   ar
    13     3     4   ar
    14     4     5    1
    15     4     6   ar
    16     6     7   ar
    17     7     8   ar
    18     8    28    1
    19    28    29   ar
    20    29    30   ar
    21    30    31   ar
    22    31    34    1
    23    34    35    1
    24    34    36    1
    25    34    37    1
    26    31    32   ar
    27    32    33   ar
    28     8     9   ar
    29     9    10   ar
    30    15    16    1
    31    16    17    1
    32    21    22   ar
    33    22    23    1
    34    22    24   ar
    35    24    19   ar
    36    17    12    1
    37    10     1   ar
    38    10     6   ar
    39    33    28   ar
    40    24    25    1
    41     9    11    1
@<TRIPOS>MOLECULE
*****
 37 41 0 0 0
SMALL
GASTEIGER

@<TRIPOS>ATOM
      1 C         -28.9890   49.7829   -8.9713 C.ar    1  UNL1        0.1317
      2 C         -29.7134   49.0598   -8.0034 C.ar    1  UNL1        0.0294
      3 C         -29.0624   48.5255   -6.8763 C.ar    1  UNL1        0.0842
      4 C         -27.6839   48.7252   -6.7123 C.ar    1  UNL1        0.2935
      5 CL        -26.8551   48.0727   -5.3061 Cl      1  UNL1       -0.0100
      6 N         -27.0216   49.4390   -7.6615 N.ar    1  UNL1       -0.1177
      7 C         -25.7298   49.7957   -7.7359 C.ar    1  UNL1        0.3143
      8 C         -25.5781   50.5467   -8.8968 C.ar    1  UNL1        0.1320
      9 N         -26.7703   50.6524   -9.5336 N.ar    1  UNL1       -0.2940
     10 C         -27.6174   49.9570   -8.7489 C.ar    1  UNL1        0.3128
     11 H         -26.9706   51.1264  -10.3729 H       1  UNL1        0.1718
     12 N         -30.5929   49.9736  -12.6456 N.3     1  UNL1       -0.2647
     13 C         -29.6961   51.1308  -12.4634 C.3     1  UNL1        0.0941
     14 C         -28.8379   50.9116  -11.2135 C.3     1  UNL1        0.1084
     15 N         -29.6411   50.3437  -10.1242 N.pl3   1  UNL1       -0.2988
     16 C         -31.1044   50.3924  -10.2113 C.3     1  UNL1        0.1084
     17 C         -31.5840   49.8089  -11.5534 C.3     1  UNL1        0.0941
     18 C         -31.2003   49.9054  -13.9930 C.3     1  UNL1        0.1199
     19 C         -28.9992   49.0409  -16.7008 C.ar    1  UNL1        0.1165
     20 N         -29.6838   49.9771  -16.0090 N.ar    1  UNL1       -0.2344
     21 C         -30.2973   49.2806  -15.0305 C.ar    1  UNL1        0.0878
     22 C         -29.9821   47.9393  -15.1591 C.ar    1  UNL1        0.0499
     23 C         -30.5049   46.8021  -14.3397 C.3     1  UNL1        0.0511
     24 N         -29.1717   47.7943  -16.2195 N.ar    1  UNL1       -0.3443
     25 H         -28.7774   46.9061  -16.6024 H       1  UNL1        0.1668
     26 C         -26.7708   49.7130  -17.5648 C.3     1  UNL1        0.0084
     27 C         -28.2046   49.3496  -17.9309 C.3     1  UNL1        0.0637
     28 C         -24.3277   51.1643   -9.4029 C.ar    1  UNL1        0.0218
     29 C         -23.2655   51.4145   -8.5211 C.ar    1  UNL1        0.0013
     30 C         -22.0789   51.9956   -8.9758 C.ar    1  UNL1       -0.0042
     31 C         -21.9147   52.3478  -10.3351 C.ar    1  UNL1       -0.0228
     32 C         -22.9911   52.0910  -11.2117 C.ar    1  UNL1       -0.0042
     33 C         -24.1762   51.5099  -10.7545 C.ar    1  UNL1        0.0013
     34 C         -20.6232   52.9911  -10.8815 C.3     1  UNL1        0.0189
     35 C         -20.9475   53.7881  -12.1638 C.3     1  UNL1        0.0044
     36 C         -19.5315   51.9531  -11.2373 C.3     1  UNL1        0.0044
     37 C         -20.0341   53.9452   -9.8198 C.3     1  UNL1        0.0044
@<TRIPOS>BOND
     1    26    27    1
     2    27    19    1
     3    19    20   ar
     4    20    21   ar
     5    21    18    1
     6    18    12    1
     7    12    13    1
     8    13    14    1
     9    14    15    1
    10    15     1    1
    11     1     2   ar
    12     2     3   ar
    13     3     4   ar
    14     4     5    1
    15     4     6   ar
    16     6     7   ar
    17     7     8   ar
    18     8    28    1
    19    28    29   ar
    20    29    30   ar
    21    30    31   ar
    22    31    34    1
    23    34    35    1
    24    34    36    1
    25    34    37    1
    26    31    32   ar
    27    32    33   ar
    28     8     9   ar
    29     9    10   ar
    30    15    16    1
    31    16    17    1
    32    21    22   ar
    33    22    23    1
    34    22    24   ar
    35    24    19   ar
    36    17    12    1
    37    10     1   ar
    38    10     6   ar
    39    33    28   ar
    40    24    25    1
    41     9    11    1
@<TRIPOS>MOLECULE
*****
 37 41 0 0 0
SMALL
GASTEIGER

@<TRIPOS>ATOM
      1 C         -27.8900   49.5277   -7.1252 C.ar    1  UNL1        0.1317
      2 C         -29.2698   49.4754   -7.4049 C.ar    1  UNL1        0.0294
      3 C         -29.7953   50.1339   -8.5317 C.ar    1  UNL1        0.0842
      4 C         -28.9352   50.8379   -9.3871 C.ar    1  UNL1        0.2935
      5 CL        -29.5724   51.6595  -10.8045 Cl      1  UNL1       -0.0100
      6 N         -27.6082   50.8550   -9.0907 N.ar    1  UNL1       -0.1177
      7 C         -26.5799   51.4189   -9.7435 C.ar    1  UNL1        0.3143
      8 C         -25.4249   51.1127   -9.0315 C.ar    1  UNL1        0.1320
      9 N         -25.7403   50.3637   -7.9464 N.ar    1  UNL1       -0.2940
     10 C         -27.0803   50.2383   -8.0199 C.ar    1  UNL1        0.3128
     11 H         -25.1326   49.9970   -7.2641 H       1  UNL1        0.1718
     12 N         -27.7671   47.3574   -3.7512 N.3     1  UNL1       -0.2647
     13 C         -26.9451   48.5678   -3.5619 C.3     1  UNL1        0.0941
     14 C         -27.2314   49.5544   -4.6984 C.3     1  UNL1        0.1084
     15 N         -27.3356   48.8521   -5.9829 N.pl3   1  UNL1       -0.2988
     16 C         -26.8343   47.4780   -6.0918 C.3     1  UNL1        0.1084
     17 C         -27.4338   46.5960   -4.9807 C.3     1  UNL1        0.0941
     18 C         -27.8448   46.5036   -2.5454 C.3     1  UNL1        0.1199
     19 C         -30.1448   47.8319   -0.1225 C.ar    1  UNL1        0.1165
     20 N         -28.9382   47.8711   -0.7277 N.ar    1  UNL1       -0.2344
     21 C         -28.9862   46.8643   -1.6238 C.ar    1  UNL1        0.0878
     22 C         -30.2131   46.2307   -1.5324 C.ar    1  UNL1        0.0499
     23 C         -30.6650   45.0168   -2.2809 C.3     1  UNL1        0.0511
     24 N         -30.9343   46.8394   -0.5777 N.ar    1  UNL1       -0.3443
     25 H         -31.8911   46.5861   -0.2440 H       1  UNL1        0.1668
     26 C         -29.6096   48.5286    2.1997 C.3     1  UNL1        0.0084
     27 C         -30.5269   48.7425    1.0019 C.3     1  UNL1        0.0637
     28 C         -24.0368   51.5142   -9.3676 C.ar    1  UNL1        0.0218
     29 C         -23.7122   51.8707  -10.6852 C.ar    1  UNL1        0.0013
     30 C         -22.4114   52.2517  -11.0243 C.ar    1  UNL1       -0.0042
     31 C         -21.3864   52.2889  -10.0513 C.ar    1  UNL1       -0.0228
     32 C         -21.7261   51.9276   -8.7296 C.ar    1  UNL1       -0.0042
     33 C         -23.0274   51.5471   -8.3932 C.ar    1  UNL1        0.0013
     34 C         -19.9369   52.7030  -10.3800 C.3     1  UNL1        0.0189
     35 C         -19.4514   51.9324  -11.6270 C.3     1  UNL1        0.0044
     36 C         -18.9452   52.4065   -9.2292 C.3     1  UNL1        0.0044
     37 C         -19.8864   54.2202  -10.6627 C.3     1  UNL1        0.0044
@<TRIPOS>BOND
     1    26    27    1
     2    27    19    1
     3    19    20   ar
     4    20    21   ar
     5    21    18    1
     6    18    12    1
     7    12    13    1
     8    13    14    1
     9    14    15    1
    10    15     1    1
    11     1     2   ar
    12     2     3   ar
    13     3     4   ar
    14     4     5    1
    15     4     6   ar
    16     6     7   ar
    17     7     8   ar
    18     8    28    1
    19    28    29   ar
    20    29    30   ar
    21    30    31   ar
    22    31    34    1
    23    34    35    1
    24    34    36    1
    25    34    37    1
    26    31    32   ar
    27    32    33   ar
    28     8     9   ar
    29     9    10   ar
    30    15    16    1
    31    16    17    1
    32    21    22   ar
    33    22    23    1
    34    22    24   ar
    35    24    19   ar
    36    17    12    1
    37    10     1   ar
    38    10     6   ar
    39    33    28   ar
    40    24    25    1
    41     9    11    1
@<TRIPOS>MOLECULE
*****
 37 41 0 0 0
SMALL
GASTEIGER

@<TRIPOS>ATOM
      1 C         -29.4695   50.0971   -9.5363 C.ar    1  UNL1        0.1317
      2 C         -30.6195   50.1260   -8.7231 C.ar    1  UNL1        0.0294
      3 C         -30.5634   50.6691   -7.4264 C.ar    1  UNL1        0.0842
      4 C         -29.3549   51.1947   -6.9465 C.ar    1  UNL1        0.2935
      5 CL        -29.2679   51.8853   -5.3323 Cl      1  UNL1       -0.0100
      6 N         -28.2700   51.1601   -7.7656 N.ar    1  UNL1       -0.1177
      7 C         -27.0209   51.6114   -7.5717 C.ar    1  UNL1        0.3143
      8 C         -26.3065   51.3540   -8.7371 C.ar    1  UNL1        0.1320
      9 N         -27.1117   50.7480   -9.6440 N.ar    1  UNL1       -0.2940
     10 C         -28.2946   50.6443   -9.0061 C.ar    1  UNL1        0.3128
     11 H         -26.8853   50.4527  -10.5554 H       1  UNL1        0.1718
     12 N         -30.9461   49.1206  -13.1384 N.3     1  UNL1       -0.2647
     13 C         -30.2778   47.9358  -12.5673 C.3     1  UNL1        0.0941
     14 C         -29.9931   48.1844  -11.0827 C.3     1  UNL1        0.1084
     15 N         -29.5123   49.5543  -10.8676 N.pl3   1  UNL1       -0.2988
     16 C         -29.0441   50.3387  -12.0152 C.3     1  UNL1        0.1084
     17 C         -30.1027   50.3417  -13.1337 C.3     1  UNL1        0.0941
     18 C         -31.5836   48.8629  -14.4485 C.3     1  UNL1        0.1199
     19 C         -29.2056   49.0332  -17.1394 C.ar    1  UNL1        0.1165
     20 N         -29.9828   49.6594  -16.2297 N.ar    1  UNL1       -0.2344
     21 C         -30.5933   48.6538  -15.5701 C.ar    1  UNL1        0.0878
     22 C         -30.1833   47.4441  -16.1025 C.ar    1  UNL1        0.0499
     23 C         -30.6665   46.0784  -15.7290 C.3     1  UNL1        0.0511
     24 N         -29.3164   47.6910  -17.0973 N.ar    1  UNL1       -0.3443
     25 H         -28.8461   46.9957  -17.7190 H       1  UNL1        0.1668
     26 C         -27.0616   49.0326  -18.3914 C.3     1  UNL1        0.0084
     27 C         -28.3769   49.7630  -18.1494 C.3     1  UNL1        0.0637
     28 C         -24.8829   51.6776   -9.0007 C.ar    1  UNL1        0.0218
     29 C         -24.5459   52.5388  -10.0558 C.ar    1  UNL1        0.0013
     30 C         -23.2117   52.8570  -10.3224 C.ar    1  UNL1       -0.0042
     31 C         -22.1646   52.3213   -9.5381 C.ar    1  UNL1       -0.0228
     32 C         -22.5171   51.4560   -8.4798 C.ar    1  UNL1       -0.0042
     33 C         -23.8518   51.1395   -8.2155 C.ar    1  UNL1        0.0013
     34 C         -20.6781   52.6446   -9.7956 C.3     1  UNL1        0.0189
     35 C         -19.8707   52.4235   -8.4980 C.3     1  UNL1        0.0044
     36 C         -20.4447   54.1055  -10.2507 C.3     1  UNL1        0.0044
     37 C         -20.1335   51.7163  -10.9030 C.3     1  UNL1        0.0044
@<TRIPOS>BOND
     1    26    27    1
     2    27    19    1
     3    19    20   ar
     4    20    21   ar
     5    21    18    1
     6    18    12    1
     7    12    13    1
     8    13    14    1
     9    14    15    1
    10    15     1    1
    11     1     2   ar
    12     2     3   ar
    13     3     4   ar
    14     4     5    1
    15     4     6   ar
    16     6     7   ar
    17     7     8   ar
    18     8    28    1
    19    28    29   ar
    20    29    30   ar
    21    30    31   ar
    22    31    34    1
    23    34    35    1
    24    34    36    1
    25    34    37    1
    26    31    32   ar
    27    32    33   ar
    28     8     9   ar
    29     9    10   ar
    30    15    16    1
    31    16    17    1
    32    21    22   ar
    33    22    23    1
    34    22    24   ar
    35    24    19   ar
    36    17    12    1
    37    10     1   ar
    38    10     6   ar
    39    33    28   ar
    40    24    25    1
    41     9    11    1
@<TRIPOS>MOLECULE
*****
 37 41 0 0 0
SMALL
GASTEIGER

@<TRIPOS>ATOM
      1 C         -28.9547   48.8240   -8.8613 C.ar    1  UNL1        0.1317
      2 C         -30.3002   48.9226   -9.2671 C.ar    1  UNL1        0.0294
      3 C         -30.7031   49.9275  -10.1656 C.ar    1  UNL1        0.0842
      4 C         -29.7540   50.8297  -10.6678 C.ar    1  UNL1        0.2935
      5 CL        -30.2373   52.0863  -11.7981 Cl      1  UNL1       -0.0100
      6 N         -28.4631   50.6948  -10.2624 N.ar    1  UNL1       -0.1177
      7 C         -27.3685   51.3927  -10.6033 C.ar    1  UNL1        0.3143
      8 C         -26.2938   50.8266   -9.9255 C.ar    1  UNL1        0.1320
      9 N         -26.7244   49.7852   -9.1717 N.ar    1  UNL1       -0.2940
     10 C         -28.0518   49.7472   -9.4030 C.ar    1  UNL1        0.3128
     11 H         -26.1920   49.1947   -8.5911 H       1  UNL1        0.1718
     12 N         -29.0756   46.2674   -5.7697 N.3     1  UNL1       -0.2647
     13 C         -27.7797   46.9721   -5.7467 C.3     1  UNL1        0.0941
     14 C         -27.8368   48.1638   -6.7076 C.3     1  UNL1        0.1084
     15 N         -28.5248   47.7968   -7.9510 N.pl3   1  UNL1       -0.2988
     16 C         -28.7295   46.3789   -8.2659 C.3     1  UNL1        0.1084
     17 C         -29.3987   45.6553   -7.0825 C.3     1  UNL1        0.0941
     18 C         -29.2591   45.3347   -4.6359 C.3     1  UNL1        0.1199
     19 C         -29.7189   47.2606   -1.6352 C.ar    1  UNL1        0.1165
     20 N         -30.1365   46.9110   -2.8709 N.ar    1  UNL1       -0.2344
     21 C         -29.2209   46.0119   -3.2860 C.ar    1  UNL1        0.0878
     22 C         -28.2640   45.8472   -2.2999 C.ar    1  UNL1        0.0499
     23 C         -27.0267   45.0091   -2.3678 C.3     1  UNL1        0.0511
     24 N         -28.5788   46.6444   -1.2667 N.ar    1  UNL1       -0.3443
     25 H         -28.0450   46.7758   -0.3785 H       1  UNL1        0.1668
     26 C         -30.1889   48.0189    0.6818 C.3     1  UNL1        0.0084
     27 C         -30.4061   48.2956   -0.8008 C.3     1  UNL1        0.0637
     28 C         -24.8746   51.2544   -9.9873 C.ar    1  UNL1        0.0218
     29 C         -24.2924   51.5671  -11.2249 C.ar    1  UNL1        0.0013
     30 C         -22.9576   51.9719  -11.3067 C.ar    1  UNL1       -0.0042
     31 C         -22.1563   52.0778  -10.1467 C.ar    1  UNL1       -0.0228
     32 C         -22.7541   51.7600   -8.9079 C.ar    1  UNL1       -0.0042
     33 C         -24.0889   51.3556   -8.8290 C.ar    1  UNL1        0.0013
     34 C         -20.6789   52.5203  -10.1892 C.3     1  UNL1        0.0189
     35 C         -20.1029   52.5300   -8.7564 C.3     1  UNL1        0.0044
     36 C         -20.4864   53.9370  -10.7822 C.3     1  UNL1        0.0044
     37 C         -19.8708   51.5340  -11.0602 C.3     1  UNL1        0.0044
@<TRIPOS>BOND
     1    26    27    1
     2    27    19    1
     3    19    20   ar
     4    20    21   ar
     5    21    18    1
     6    18    12    1
     7    12    13    1
     8    13    14    1
     9    14    15    1
    10    15     1    1
    11     1     2   ar
    12     2     3   ar
    13     3     4   ar
    14     4     5    1
    15     4     6   ar
    16     6     7   ar
    17     7     8   ar
    18     8    28    1
    19    28    29   ar
    20    29    30   ar
    21    30    31   ar
    22    31    34    1
    23    34    35    1
    24    34    36    1
    25    34    37    1
    26    31    32   ar
    27    32    33   ar
    28     8     9   ar
    29     9    10   ar
    30    15    16    1
    31    16    17    1
    32    21    22   ar
    33    22    23    1
    34    22    24   ar
    35    24    19   ar
    36    17    12    1
    37    10     1   ar
    38    10     6   ar
    39    33    28   ar
    40    24    25    1
    41     9    11    1
@<TRIPOS>MOLECULE
*****
 37 41 0 0 0
SMALL
GASTEIGER

@<TRIPOS>ATOM
      1 C         -30.3199   48.8638   -7.5844 C.ar    1  UNL1        0.1317
      2 C         -31.4802   49.1293   -6.8309 C.ar    1  UNL1        0.0294
      3 C         -31.5840   50.3094   -6.0719 C.ar    1  UNL1        0.0842
      4 C         -30.5273   51.2315   -6.0758 C.ar    1  UNL1        0.2935
      5 CL        -30.6427   52.7155   -5.1405 Cl      1  UNL1       -0.0100
      6 N         -29.4292   50.9458   -6.8253 N.ar    1  UNL1       -0.1177
      7 C         -28.3071   51.6542   -7.0267 C.ar    1  UNL1        0.3143
      8 C         -27.5131   50.9236   -7.9045 C.ar    1  UNL1        0.1320
      9 N         -28.1433   49.7717   -8.2422 N.ar    1  UNL1       -0.2940
     10 C         -29.3022   49.8254   -7.5561 C.ar    1  UNL1        0.3128
     11 H         -27.8280   49.0619   -8.8472 H       1  UNL1        0.1718
     12 N         -29.5598   46.5291  -10.7594 N.3     1  UNL1       -0.2647
     13 C         -30.8756   46.1565  -10.2060 C.3     1  UNL1        0.0941
     14 C         -31.3257   47.2296   -9.2098 C.3     1  UNL1        0.1084
     15 N         -30.2019   47.6669   -8.3733 N.pl3   1  UNL1       -0.2988
     16 C         -28.9839   46.8511   -8.3248 C.3     1  UNL1        0.1084
     17 C         -28.4739   46.5590   -9.7483 C.3     1  UNL1        0.0941
     18 C         -29.1963   45.7702  -11.9764 C.3     1  UNL1        0.1199
     19 C         -30.6612   46.3924  -15.1999 C.ar    1  UNL1        0.1165
     20 N         -30.0661   45.5434  -14.3346 N.ar    1  UNL1       -0.2344
     21 C         -29.8572   46.2904  -13.2312 C.ar    1  UNL1        0.0878
     22 C         -30.3174   47.5758  -13.4570 C.ar    1  UNL1        0.0499
     23 C         -30.2150   48.7506  -12.5365 C.3     1  UNL1        0.0511
     24 N         -30.8137   47.6354  -14.7029 N.ar    1  UNL1       -0.3443
     25 H         -31.2120   48.4691  -15.1902 H       1  UNL1        0.1668
     26 C         -30.4305   44.6566  -16.9601 C.3     1  UNL1        0.0084
     27 C         -31.0291   46.0107  -16.5994 C.3     1  UNL1        0.0637
     28 C         -26.1774   51.3036   -8.4264 C.ar    1  UNL1        0.0218
     29 C         -25.0307   50.6454   -7.9571 C.ar    1  UNL1        0.0013
     30 C         -23.7628   50.9873   -8.4344 C.ar    1  UNL1       -0.0042
     31 C         -23.5989   52.0047   -9.4023 C.ar    1  UNL1       -0.0228
     32 C         -24.7606   52.6593   -9.8660 C.ar    1  UNL1       -0.0042
     33 C         -26.0270   52.3155   -9.3870 C.ar    1  UNL1        0.0013
     34 C         -22.2193   52.4153   -9.9576 C.3     1  UNL1        0.0189
     35 C         -22.3434   53.7642  -10.6991 C.3     1  UNL1        0.0044
     36 C         -21.6343   51.3844  -10.9530 C.3     1  UNL1        0.0044
     37 C         -21.2175   52.5613   -8.7916 C.3     1  UNL1        0.0044
@<TRIPOS>BOND
     1    26    27    1
     2    27    19    1
     3    19    20   ar
     4    20    21   ar
     5    21    18    1
     6    18    12    1
     7    12    13    1
     8    13    14    1
     9    14    15    1
    10    15     1    1
    11     1     2   ar
    12     2     3   ar
    13     3     4   ar
    14     4     5    1
    15     4     6   ar
    16     6     7   ar
    17     7     8   ar
    18     8    28    1
    19    28    29   ar
    20    29    30   ar
    21    30    31   ar
    22    31    34    1
    23    34    35    1
    24    34    36    1
    25    34    37    1
    26    31    32   ar
    27    32    33   ar
    28     8     9   ar
    29     9    10   ar
    30    15    16    1
    31    16    17    1
    32    21    22   ar
    33    22    23    1
    34    22    24   ar
    35    24    19   ar
    36    17    12    1
    37    10     1   ar
    38    10     6   ar
    39    33    28   ar
    40    24    25    1
    41     9    11    1
@<TRIPOS>MOLECULE
*****
 37 41 0 0 0
SMALL
GASTEIGER

@<TRIPOS>ATOM
      1 C         -29.3154   50.6673   -8.2689 C.ar    1  UNL1        0.1317
      2 C         -30.5488   50.3765   -8.8843 C.ar    1  UNL1        0.0294
      3 C         -30.6616   50.3643  -10.2867 C.ar    1  UNL1        0.0842
      4 C         -29.5336   50.6334  -11.0754 C.ar    1  UNL1        0.2935
      5 CL        -29.6534   50.6141  -12.8291 Cl      1  UNL1       -0.0100
      6 N         -28.3580   50.8973  -10.4449 N.ar    1  UNL1       -0.1177
      7 C         -27.1412   51.1556  -10.9490 C.ar    1  UNL1        0.3143
      8 C         -26.2784   51.3247   -9.8712 C.ar    1  UNL1        0.1320
      9 N         -26.9602   51.1708   -8.7096 N.ar    1  UNL1       -0.2940
     10 C         -28.2230   50.9191   -9.1081 C.ar    1  UNL1        0.3128
     11 H         -26.6139   51.2292   -7.7898 H       1  UNL1        0.1718
     12 N         -29.5620   49.3768   -4.4764 N.3     1  UNL1       -0.2647
     13 C         -30.0740   50.7590   -4.5370 C.3     1  UNL1        0.0941
     14 C         -30.2886   51.1534   -6.0016 C.3     1  UNL1        0.1084
     15 N         -29.1810   50.6743   -6.8369 N.pl3   1  UNL1       -0.2988
     16 C         -27.9335   50.2444   -6.1964 C.3     1  UNL1        0.1084
     17 C         -28.2229   49.2089   -5.0937 C.3     1  UNL1        0.0941
     18 C         -29.6581   48.7715   -3.1298 C.3     1  UNL1        0.1199
     19 C         -27.7917   45.7482   -2.5809 C.ar    1  UNL1        0.1165
     20 N         -27.9460   47.0750   -2.3816 N.ar    1  UNL1       -0.2344
     21 C         -29.0762   47.3795   -3.0515 C.ar    1  UNL1        0.0878
     22 C         -29.5730   46.2356   -3.6513 C.ar    1  UNL1        0.0499
     23 C         -30.7608   46.1279   -4.5544 C.3     1  UNL1        0.0511
     24 N         -28.7534   45.2136   -3.3586 N.ar    1  UNL1       -0.3443
     25 H         -28.8309   44.2231   -3.6811 H       1  UNL1        0.1668
     26 C         -25.5029   44.9375   -3.0990 C.3     1  UNL1        0.0084
     27 C         -26.6206   44.9731   -2.0639 C.3     1  UNL1        0.0637
     28 C         -24.8263   51.6231   -9.9291 C.ar    1  UNL1        0.0218
     29 C         -24.0256   51.4207   -8.7949 C.ar    1  UNL1        0.0013
     30 C         -22.6560   51.6953   -8.8267 C.ar    1  UNL1       -0.0042
     31 C         -22.0384   52.1843  -10.0007 C.ar    1  UNL1       -0.0228
     32 C         -22.8552   52.3838  -11.1347 C.ar    1  UNL1       -0.0042
     33 C         -24.2242   52.1085  -11.1001 C.ar    1  UNL1        0.0013
     34 C         -20.5306   52.5012  -10.0817 C.3     1  UNL1        0.0189
     35 C         -19.9048   52.3908   -8.6743 C.3     1  UNL1        0.0044
     36 C         -20.2371   53.9240  -10.6158 C.3     1  UNL1        0.0044
     37 C         -19.8430   51.4941  -11.0291 C.3     1  UNL1        0.0044
@<TRIPOS>BOND
     1    26    27    1
     2    27    19    1
     3    19    20   ar
     4    20    21   ar
     5    21    18    1
     6    18    12    1
     7    12    13    1
     8    13    14    1
     9    14    15    1
    10    15     1    1
    11     1     2   ar
    12     2     3   ar
    13     3     4   ar
    14     4     5    1
    15     4     6   ar
    16     6     7   ar
    17     7     8   ar
    18     8    28    1
    19    28    29   ar
    20    29    30   ar
    21    30    31   ar
    22    31    34    1
    23    34    35    1
    24    34    36    1
    25    34    37    1
    26    31    32   ar
    27    32    33   ar
    28     8     9   ar
    29     9    10   ar
    30    15    16    1
    31    16    17    1
    32    21    22   ar
    33    22    23    1
    34    22    24   ar
    35    24    19   ar
    36    17    12    1
    37    10     1   ar
    38    10     6   ar
    39    33    28   ar
    40    24    25    1
    41     9    11    1
