@<TRIPOS>MOLECULE
*****
 50 55 0 0 0
SMALL
GASTEIGER

@<TRIPOS>ATOM
      1 C         -61.8959  -41.7404  -20.3117 C.2     1  UNL1        0.2483
      2 O         -61.1870  -42.3290  -19.4500 O.2     1  UNL1       -0.2701
      3 N         -62.9469  -40.8525  -19.8914 N.am    1  UNL1       -0.2945
      4 H         -63.5865  -40.4598  -20.6187 H       1  UNL1        0.1501
      5 C         -63.5649  -41.7669  -25.0408 C.3     1  UNL1        0.0323
      6 C         -62.4535  -42.0200  -24.0591 C.ar    1  UNL1       -0.0082
      7 C         -62.6729  -41.7812  -22.6922 C.ar    1  UNL1        0.0037
      8 C         -61.6545  -41.9997  -21.7491 C.ar    1  UNL1        0.0805
      9 C         -60.4018  -42.4627  -22.1897 C.ar    1  UNL1        0.1457
     10 F         -59.3992  -42.7045  -21.3066 F       1  UNL1       -0.2040
     11 C         -60.1835  -42.7198  -23.5442 C.ar    1  UNL1        0.0440
     12 C         -61.2019  -42.5157  -24.4838 C.ar    1  UNL1        0.0461
     13 N         -60.9502  -42.8158  -25.8656 N.pl3   1  UNL1       -0.3043
     14 C         -61.4756  -44.0614  -26.4358 C.3     1  UNL1        0.1123
     15 C         -60.9982  -44.2647  -27.8784 C.3     1  UNL1        0.1136
     16 N         -61.1754  -43.0324  -28.6645 N.pl3   1  UNL1       -0.2897
     17 C         -60.8563  -41.7258  -28.0600 C.3     1  UNL1        0.1136
     18 C         -60.1838  -41.8808  -26.6936 C.3     1  UNL1        0.1123
     19 C         -61.4993  -43.1230  -30.0712 C.ar    1  UNL1        0.1318
     20 C         -60.6259  -43.7369  -30.9863 C.ar    1  UNL1        0.0343
     21 C         -60.9754  -43.8065  -32.3358 C.ar    1  UNL1        0.0083
     22 C         -62.1994  -43.2838  -32.7775 C.ar    1  UNL1        0.0906
     23 C         -63.0308  -42.6530  -31.8401 C.ar    1  UNL1        0.1041
     24 N         -62.6688  -42.5957  -30.5315 N.ar    1  UNL1       -0.2292
     25 C         -62.5651  -43.3077  -34.2398 C.3     1  UNL1        0.4200
     26 F         -63.0504  -42.0669  -34.6080 F       1  UNL1       -0.1658
     27 F         -61.4579  -43.6071  -35.0147 F       1  UNL1       -0.1658
     28 F         -63.5362  -44.2630  -34.4847 F       1  UNL1       -0.1658
     29 C         -63.3588  -40.7305  -18.4874 C.3     1  UNL1        0.1535
     30 C         -63.9925  -39.3856  -18.2484 C.2     1  UNL1        0.2443
     31 O         -64.9178  -39.2727  -17.3981 O.2     1  UNL1       -0.2730
     32 N         -63.4741  -38.2232  -18.9148 N.am    1  UNL1       -0.2825
     33 H         -62.5231  -38.2911  -19.3434 H       1  UNL1        0.1549
     34 C         -64.1318  -36.9446  -18.9324 C.ar    1  UNL1        0.0535
     35 C         -65.4196  -36.7865  -19.4726 C.ar    1  UNL1        0.0353
     36 C         -66.0083  -35.5194  -19.4904 C.ar    1  UNL1        0.1002
     37 N         -65.3334  -34.4460  -19.0011 N.ar    1  UNL1       -0.2422
     38 C         -64.0799  -34.5662  -18.4897 C.ar    1  UNL1        0.1002
     39 C         -63.4542  -35.8147  -18.4541 C.ar    1  UNL1        0.0353
     40 C         -64.3474  -41.8499  -18.1204 C.3     1  UNL1        0.0569
     41 C         -65.0144  -42.4111  -19.3428 C.ar    1  UNL1       -0.0017
     42 C         -65.2271  -43.7580  -19.6241 C.ar    1  UNL1        0.0681
     43 N         -65.9736  -43.8946  -20.7436 N.ar    1  UNL1       -0.3523
     44 C         -66.2443  -42.6467  -21.1639 C.ar    1  UNL1        0.0563
     45 C         -67.0184  -42.2746  -22.2619 C.ar    1  UNL1        0.0170
     46 C         -67.2054  -40.9003  -22.4991 C.ar    1  UNL1        0.0015
     47 C         -66.6266  -39.9402  -21.6394 C.ar    1  UNL1        0.0001
     48 C         -65.8540  -40.3452  -20.5358 C.ar    1  UNL1        0.0012
     49 C         -65.6791  -41.7141  -20.3322 C.ar    1  UNL1        0.0131
     50 H         -66.2966  -44.7896  -21.1738 H       1  UNL1        0.1660
@<TRIPOS>BOND
     1     5     6    1
     2     6     7   ar
     3     7     8   ar
     4     8     1    1
     5     1     2    2
     6     1     3   am
     7     3    29    1
     8    29    40    1
     9    40    41    1
    10    41    42   ar
    11    42    43   ar
    12    43    44   ar
    13    44    45   ar
    14    45    46   ar
    15    46    47   ar
    16    47    48   ar
    17    48    49   ar
    18    29    30    1
    19    30    31    2
    20    30    32   am
    21    32    34    1
    22    34    35   ar
    23    35    36   ar
    24    36    37   ar
    25    37    38   ar
    26    38    39   ar
    27     8     9   ar
    28     9    10    1
    29     9    11   ar
    30    11    12   ar
    31    12    13    1
    32    13    14    1
    33    14    15    1
    34    15    16    1
    35    16    19    1
    36    19    20   ar
    37    20    21   ar
    38    21    22   ar
    39    22    25    1
    40    25    26    1
    41    25    27    1
    42    25    28    1
    43    22    23   ar
    44    23    24   ar
    45    16    17    1
    46    17    18    1
    47    12     6   ar
    48    18    13    1
    49    49    41   ar
    50    39    34   ar
    51    24    19   ar
    52    49    44   ar
    53     3     4    1
    54    43    50    1
    55    32    33    1
@<TRIPOS>MOLECULE
*****
 50 55 0 0 0
SMALL
GASTEIGER

@<TRIPOS>ATOM
      1 C         -61.6915  -45.6633  -26.5904 C.2     1  UNL1        0.2483
      2 O         -60.7898  -46.5440  -26.5395 O.2     1  UNL1       -0.2701
      3 N         -62.5065  -45.5377  -27.7693 N.am    1  UNL1       -0.2945
      4 H         -63.1738  -44.7357  -27.8291 H       1  UNL1        0.1501
      5 C         -60.8568  -44.5436  -21.7737 C.3     1  UNL1        0.0323
      6 C         -61.4795  -44.1878  -23.0962 C.ar    1  UNL1       -0.0082
      7 C         -61.3143  -45.0522  -24.1911 C.ar    1  UNL1        0.0037
      8 C         -61.8758  -44.7469  -25.4424 C.ar    1  UNL1        0.0805
      9 C         -62.6103  -43.5568  -25.5908 C.ar    1  UNL1        0.1457
     10 F         -63.1847  -43.2369  -26.7787 F       1  UNL1       -0.2040
     11 C         -62.7939  -42.7031  -24.5017 C.ar    1  UNL1        0.0440
     12 C         -62.2465  -43.0129  -23.2503 C.ar    1  UNL1        0.0461
     13 N         -62.4777  -42.1246  -22.1456 N.pl3   1  UNL1       -0.3043
     14 C         -61.4747  -41.1027  -21.8255 C.3     1  UNL1        0.1123
     15 C         -61.8368  -40.3411  -20.5452 C.3     1  UNL1        0.1136
     16 N         -63.2477  -39.9207  -20.5703 N.pl3   1  UNL1       -0.2897
     17 C         -64.2777  -40.8433  -21.0825 C.3     1  UNL1        0.1136
     18 C         -63.7070  -42.2370  -21.3561 C.3     1  UNL1        0.1123
     19 C         -63.6337  -38.6772  -19.9406 C.ar    1  UNL1        0.1318
     20 C         -64.6863  -38.6228  -19.0099 C.ar    1  UNL1        0.0343
     21 C         -65.0274  -37.4037  -18.4221 C.ar    1  UNL1        0.0083
     22 C         -64.3139  -36.2397  -18.7422 C.ar    1  UNL1        0.0906
     23 C         -63.2899  -36.3282  -19.6968 C.ar    1  UNL1        0.1041
     24 N         -62.9764  -37.5259  -20.2572 N.ar    1  UNL1       -0.2292
     25 C         -64.7057  -34.9088  -18.1526 C.3     1  UNL1        0.4200
     26 F         -63.6081  -34.0686  -18.1558 F       1  UNL1       -0.1658
     27 F         -65.7210  -34.3274  -18.8923 F       1  UNL1       -0.1658
     28 F         -65.1519  -35.0635  -16.8516 F       1  UNL1       -0.1658
     29 C         -62.2212  -46.2776  -29.0049 C.3     1  UNL1        0.1535
     30 C         -63.4235  -47.0872  -29.4133 C.2     1  UNL1        0.2443
     31 O         -63.7845  -48.0694  -28.7085 O.2     1  UNL1       -0.2730
     32 N         -64.2098  -46.6777  -30.5438 N.am    1  UNL1       -0.2825
     33 H         -64.0853  -45.7013  -30.8957 H       1  UNL1        0.1549
     34 C         -65.2329  -47.4870  -31.1488 C.ar    1  UNL1        0.0535
     35 C         -65.7813  -48.5979  -30.4850 C.ar    1  UNL1        0.0353
     36 C         -66.7557  -49.3696  -31.1233 C.ar    1  UNL1        0.1002
     37 N         -67.1591  -49.0551  -32.3825 N.ar    1  UNL1       -0.2422
     38 C         -66.6329  -47.9978  -33.0552 C.ar    1  UNL1        0.1002
     39 C         -65.6555  -47.2010  -32.4542 C.ar    1  UNL1        0.0353
     40 C         -61.8337  -45.3067  -30.1329 C.3     1  UNL1        0.0569
     41 C         -61.9974  -43.8775  -29.7027 C.ar    1  UNL1       -0.0017
     42 C         -60.9919  -43.0330  -29.2398 C.ar    1  UNL1        0.0681
     43 N         -61.4691  -41.7788  -29.0710 N.ar    1  UNL1       -0.3523
     44 C         -62.7625  -41.8215  -29.4350 C.ar    1  UNL1        0.0563
     45 C         -63.6658  -40.7602  -29.4692 C.ar    1  UNL1        0.0170
     46 C         -64.9713  -41.0225  -29.9236 C.ar    1  UNL1        0.0015
     47 C         -65.3384  -42.3232  -30.3352 C.ar    1  UNL1        0.0001
     48 C         -64.4041  -43.3740  -30.2944 C.ar    1  UNL1        0.0012
     49 C         -63.1207  -43.0849  -29.8306 C.ar    1  UNL1        0.0131
     50 H         -60.9307  -40.9433  -28.7508 H       1  UNL1        0.1660
@<TRIPOS>BOND
     1     5     6    1
     2     6     7   ar
     3     7     8   ar
     4     8     1    1
     5     1     2    2
     6     1     3   am
     7     3    29    1
     8    29    40    1
     9    40    41    1
    10    41    42   ar
    11    42    43   ar
    12    43    44   ar
    13    44    45   ar
    14    45    46   ar
    15    46    47   ar
    16    47    48   ar
    17    48    49   ar
    18    29    30    1
    19    30    31    2
    20    30    32   am
    21    32    34    1
    22    34    35   ar
    23    35    36   ar
    24    36    37   ar
    25    37    38   ar
    26    38    39   ar
    27     8     9   ar
    28     9    10    1
    29     9    11   ar
    30    11    12   ar
    31    12    13    1
    32    13    14    1
    33    14    15    1
    34    15    16    1
    35    16    19    1
    36    19    20   ar
    37    20    21   ar
    38    21    22   ar
    39    22    25    1
    40    25    26    1
    41    25    27    1
    42    25    28    1
    43    22    23   ar
    44    23    24   ar
    45    16    17    1
    46    17    18    1
    47    12     6   ar
    48    18    13    1
    49    49    41   ar
    50    39    34   ar
    51    24    19   ar
    52    49    44   ar
    53     3     4    1
    54    43    50    1
    55    32    33    1
@<TRIPOS>MOLECULE
*****
 50 55 0 0 0
SMALL
GASTEIGER

@<TRIPOS>ATOM
      1 C         -62.3618  -44.5990  -27.6009 C.2     1  UNL1        0.2483
      2 O         -61.3932  -45.3926  -27.7533 O.2     1  UNL1       -0.2701
      3 N         -63.3163  -44.4191  -28.6622 N.am    1  UNL1       -0.2945
      4 H         -64.0476  -43.6806  -28.5532 H       1  UNL1        0.1501
      5 C         -61.7380  -44.3375  -22.6317 C.3     1  UNL1        0.0323
      6 C         -62.1870  -43.6944  -23.9154 C.ar    1  UNL1       -0.0082
      7 C         -62.0802  -44.4100  -25.1195 C.ar    1  UNL1        0.0037
      8 C         -62.4830  -43.8369  -26.3375 C.ar    1  UNL1        0.0805
      9 C         -62.9976  -42.5280  -26.3408 C.ar    1  UNL1        0.1457
     10 F         -63.4156  -41.9474  -27.4947 F       1  UNL1       -0.2040
     11 C         -63.1237  -41.8188  -25.1452 C.ar    1  UNL1        0.0440
     12 C         -62.7356  -42.3938  -23.9285 C.ar    1  UNL1        0.0461
     13 N         -62.9041  -41.6448  -22.7146 N.pl3   1  UNL1       -0.3043
     14 C         -61.8284  -40.7527  -22.2677 C.3     1  UNL1        0.1123
     15 C         -62.1377  -40.1422  -20.8958 C.3     1  UNL1        0.1136
     16 N         -63.5128  -39.6173  -20.8571 N.pl3   1  UNL1       -0.2897
     17 C         -64.6072  -40.3837  -21.4812 C.3     1  UNL1        0.1136
     18 C         -64.1418  -41.7680  -21.9401 C.3     1  UNL1        0.1123
     19 C         -63.8069  -38.4426  -20.0663 C.ar    1  UNL1        0.1318
     20 C         -64.8790  -38.4210  -19.1567 C.ar    1  UNL1        0.0343
     21 C         -65.1291  -37.2688  -18.4098 C.ar    1  UNL1        0.0083
     22 C         -64.3061  -36.1421  -18.5501 C.ar    1  UNL1        0.0906
     23 C         -63.2647  -36.1914  -19.4886 C.ar    1  UNL1        0.1041
     24 N         -63.0410  -37.3239  -20.2058 N.ar    1  UNL1       -0.2292
     25 C         -64.5969  -34.8752  -17.7867 C.3     1  UNL1        0.4200
     26 F         -64.8591  -35.1893  -16.4664 F       1  UNL1       -0.1658
     27 F         -63.5140  -34.0145  -17.8392 F       1  UNL1       -0.1658
     28 F         -65.6943  -34.2235  -18.3222 F       1  UNL1       -0.1658
     29 C         -63.1194  -44.9874  -30.0016 C.3     1  UNL1        0.1535
     30 C         -64.0344  -46.1662  -30.2038 C.2     1  UNL1        0.2443
     31 O         -64.0665  -47.0876  -29.3425 O.2     1  UNL1       -0.2730
     32 N         -64.9360  -46.1868  -31.3220 N.am    1  UNL1       -0.2825
     33 H         -65.1186  -45.2845  -31.8172 H       1  UNL1        0.1549
     34 C         -65.6853  -47.3439  -31.7312 C.ar    1  UNL1        0.0535
     35 C         -66.1837  -47.4735  -33.0390 C.ar    1  UNL1        0.0353
     36 C         -66.9280  -48.6048  -33.3834 C.ar    1  UNL1        0.1002
     37 N         -67.1793  -49.5654  -32.4554 N.ar    1  UNL1       -0.2422
     38 C         -66.7256  -49.4576  -31.1787 C.ar    1  UNL1        0.1002
     39 C         -65.9787  -48.3422  -30.7922 C.ar    1  UNL1        0.0353
     40 C         -63.3871  -43.9234  -31.0792 C.3     1  UNL1        0.0569
     41 C         -62.2646  -43.8603  -32.0743 C.ar    1  UNL1       -0.0017
     42 C         -62.3257  -43.3218  -33.3568 C.ar    1  UNL1        0.0681
     43 N         -61.0977  -43.3114  -33.9237 N.ar    1  UNL1       -0.3523
     44 C         -60.2609  -43.8264  -33.0063 C.ar    1  UNL1        0.0563
     45 C         -58.8802  -43.9843  -33.1167 C.ar    1  UNL1        0.0170
     46 C         -58.1885  -44.5133  -32.0116 C.ar    1  UNL1        0.0015
     47 C         -58.8835  -44.8623  -30.8322 C.ar    1  UNL1        0.0001
     48 C         -60.2767  -44.6874  -30.7475 C.ar    1  UNL1        0.0012
     49 C         -60.9356  -44.1695  -31.8626 C.ar    1  UNL1        0.0131
     50 H         -60.8500  -42.9486  -34.8710 H       1  UNL1        0.1660
@<TRIPOS>BOND
     1     5     6    1
     2     6     7   ar
     3     7     8   ar
     4     8     1    1
     5     1     2    2
     6     1     3   am
     7     3    29    1
     8    29    40    1
     9    40    41    1
    10    41    42   ar
    11    42    43   ar
    12    43    44   ar
    13    44    45   ar
    14    45    46   ar
    15    46    47   ar
    16    47    48   ar
    17    48    49   ar
    18    29    30    1
    19    30    31    2
    20    30    32   am
    21    32    34    1
    22    34    35   ar
    23    35    36   ar
    24    36    37   ar
    25    37    38   ar
    26    38    39   ar
    27     8     9   ar
    28     9    10    1
    29     9    11   ar
    30    11    12   ar
    31    12    13    1
    32    13    14    1
    33    14    15    1
    34    15    16    1
    35    16    19    1
    36    19    20   ar
    37    20    21   ar
    38    21    22   ar
    39    22    25    1
    40    25    26    1
    41    25    27    1
    42    25    28    1
    43    22    23   ar
    44    23    24   ar
    45    16    17    1
    46    17    18    1
    47    12     6   ar
    48    18    13    1
    49    49    41   ar
    50    39    34   ar
    51    24    19   ar
    52    49    44   ar
    53     3     4    1
    54    43    50    1
    55    32    33    1
@<TRIPOS>MOLECULE
*****
 50 55 0 0 0
SMALL
GASTEIGER

@<TRIPOS>ATOM
      1 C         -61.7247  -46.3570  -25.9389 C.2     1  UNL1        0.2483
      2 O         -60.7450  -47.1420  -25.8142 O.2     1  UNL1       -0.2701
      3 N         -62.5417  -46.4110  -27.1218 N.am    1  UNL1       -0.2945
      4 H         -63.2806  -45.6831  -27.2493 H       1  UNL1        0.1501
      5 C         -63.2050  -41.7593  -24.5898 C.3     1  UNL1        0.0323
      6 C         -62.7171  -43.1281  -24.2007 C.ar    1  UNL1       -0.0082
      7 C         -62.4493  -44.0754  -25.2029 C.ar    1  UNL1        0.0037
      8 C         -61.9996  -45.3656  -24.8745 C.ar    1  UNL1        0.0805
      9 C         -61.8197  -45.7036  -23.5213 C.ar    1  UNL1        0.1457
     10 F         -61.3679  -46.9335  -23.1652 F       1  UNL1       -0.2040
     11 C         -62.0661  -44.7607  -22.5219 C.ar    1  UNL1        0.0440
     12 C         -62.5010  -43.4700  -22.8483 C.ar    1  UNL1        0.0461
     13 N         -62.7194  -42.5175  -21.7957 N.pl3   1  UNL1       -0.3043
     14 C         -61.6586  -41.5595  -21.4646 C.3     1  UNL1        0.1123
     15 C         -62.0259  -40.7154  -20.2387 C.3     1  UNL1        0.1136
     16 N         -63.3973  -40.1929  -20.3577 N.pl3   1  UNL1       -0.2897
     17 C         -64.4677  -41.0587  -20.8860 C.3     1  UNL1        0.1136
     18 C         -63.9922  -42.5021  -21.0700 C.3     1  UNL1        0.1123
     19 C         -63.7185  -38.8967  -19.8022 C.ar    1  UNL1        0.1318
     20 C         -64.7281  -38.7433  -18.8356 C.ar    1  UNL1        0.0343
     21 C         -65.0069  -37.4758  -18.3220 C.ar    1  UNL1        0.0083
     22 C         -64.2732  -36.3609  -18.7523 C.ar    1  UNL1        0.0906
     23 C         -63.2942  -36.5490  -19.7392 C.ar    1  UNL1        0.1041
     24 N         -63.0412  -37.7924  -20.2258 N.ar    1  UNL1       -0.2292
     25 C         -64.5992  -34.9801  -18.2427 C.3     1  UNL1        0.4200
     26 F         -65.5265  -34.3922  -19.0824 F       1  UNL1       -0.1658
     27 F         -65.1248  -35.0436  -16.9638 F       1  UNL1       -0.1658
     28 F         -63.4616  -34.1926  -18.2047 F       1  UNL1       -0.1658
     29 C         -62.1823  -47.2257  -28.2892 C.3     1  UNL1        0.1535
     30 C         -63.4218  -47.8043  -28.9186 C.2     1  UNL1        0.2443
     31 O         -63.9807  -48.8059  -28.3929 O.2     1  UNL1       -0.2730
     32 N         -64.0168  -47.1543  -30.0532 N.am    1  UNL1       -0.2825
     33 H         -63.7321  -46.1688  -30.2547 H       1  UNL1        0.1549
     34 C         -65.0574  -47.7334  -30.8592 C.ar    1  UNL1        0.0535
     35 C         -65.4194  -47.1830  -32.1007 C.ar    1  UNL1        0.0353
     36 C         -66.4540  -47.7658  -32.8371 C.ar    1  UNL1        0.1002
     37 N         -67.1140  -48.8488  -32.3484 N.ar    1  UNL1       -0.2422
     38 C         -66.7976  -49.3907  -31.1428 C.ar    1  UNL1        0.1002
     39 C         -65.7706  -48.8380  -30.3738 C.ar    1  UNL1        0.0353
     40 C         -61.4171  -46.3774  -29.3188 C.3     1  UNL1        0.0569
     41 C         -61.2259  -44.9700  -28.8319 C.ar    1  UNL1       -0.0017
     42 C         -60.0224  -44.3837  -28.4496 C.ar    1  UNL1        0.0681
     43 N         -60.1982  -43.0669  -28.1957 N.ar    1  UNL1       -0.3523
     44 C         -61.4982  -42.8146  -28.4265 C.ar    1  UNL1        0.0563
     45 C         -62.1490  -41.5850  -28.3366 C.ar    1  UNL1        0.0170
     46 C         -63.5169  -41.5397  -28.6626 C.ar    1  UNL1        0.0015
     47 C         -64.1943  -42.7097  -29.0728 C.ar    1  UNL1        0.0001
     48 C         -63.5106  -43.9360  -29.1590 C.ar    1  UNL1        0.0012
     49 C         -62.1574  -43.9509  -28.8207 C.ar    1  UNL1        0.0131
     50 H         -59.4638  -42.3827  -27.9077 H       1  UNL1        0.1660
@<TRIPOS>BOND
     1     5     6    1
     2     6     7   ar
     3     7     8   ar
     4     8     1    1
     5     1     2    2
     6     1     3   am
     7     3    29    1
     8    29    40    1
     9    40    41    1
    10    41    42   ar
    11    42    43   ar
    12    43    44   ar
    13    44    45   ar
    14    45    46   ar
    15    46    47   ar
    16    47    48   ar
    17    48    49   ar
    18    29    30    1
    19    30    31    2
    20    30    32   am
    21    32    34    1
    22    34    35   ar
    23    35    36   ar
    24    36    37   ar
    25    37    38   ar
    26    38    39   ar
    27     8     9   ar
    28     9    10    1
    29     9    11   ar
    30    11    12   ar
    31    12    13    1
    32    13    14    1
    33    14    15    1
    34    15    16    1
    35    16    19    1
    36    19    20   ar
    37    20    21   ar
    38    21    22   ar
    39    22    25    1
    40    25    26    1
    41    25    27    1
    42    25    28    1
    43    22    23   ar
    44    23    24   ar
    45    16    17    1
    46    17    18    1
    47    12     6   ar
    48    18    13    1
    49    49    41   ar
    50    39    34   ar
    51    24    19   ar
    52    49    44   ar
    53     3     4    1
    54    43    50    1
    55    32    33    1
@<TRIPOS>MOLECULE
*****
 50 55 0 0 0
SMALL
GASTEIGER

@<TRIPOS>ATOM
      1 C         -63.9294  -53.9707  -22.5801 C.2     1  UNL1        0.2483
      2 O         -63.0050  -54.7631  -22.2502 O.2     1  UNL1       -0.2701
      3 N         -65.3014  -54.3246  -22.3305 N.am    1  UNL1       -0.2945
      4 H         -66.0517  -53.7018  -22.7065 H       1  UNL1        0.1501
      5 C         -61.2080  -49.7613  -22.7406 C.3     1  UNL1        0.0323
      6 C         -62.2701  -50.6398  -23.3437 C.ar    1  UNL1       -0.0082
      7 C         -62.6055  -51.8489  -22.7121 C.ar    1  UNL1        0.0037
      8 C         -63.5872  -52.6968  -23.2521 C.ar    1  UNL1        0.0805
      9 C         -64.2361  -52.3215  -24.4421 C.ar    1  UNL1        0.1457
     10 F         -65.2039  -53.1046  -24.9839 F       1  UNL1       -0.2040
     11 C         -63.9205  -51.1124  -25.0642 C.ar    1  UNL1        0.0440
     12 C         -62.9521  -50.2596  -24.5196 C.ar    1  UNL1        0.0461
     13 N         -62.6718  -49.0112  -25.1722 N.pl3   1  UNL1       -0.3043
     14 C         -61.3028  -48.7264  -25.6168 C.3     1  UNL1        0.1123
     15 C         -61.1766  -47.3028  -26.1715 C.3     1  UNL1        0.1136
     16 N         -62.2693  -47.0122  -27.1147 N.pl3   1  UNL1       -0.2897
     17 C         -63.6395  -47.4642  -26.8099 C.3     1  UNL1        0.1136
     18 C         -63.7464  -48.0406  -25.3959 C.3     1  UNL1        0.1123
     19 C         -62.0246  -46.1451  -28.2460 C.ar    1  UNL1        0.1318
     20 C         -60.7399  -45.6439  -28.5210 C.ar    1  UNL1        0.0343
     21 C         -60.5438  -44.8114  -29.6239 C.ar    1  UNL1        0.0083
     22 C         -61.6172  -44.4888  -30.4667 C.ar    1  UNL1        0.0906
     23 C         -62.8892  -44.9839  -30.1433 C.ar    1  UNL1        0.1041
     24 N         -63.0565  -45.7915  -29.0632 N.ar    1  UNL1       -0.2292
     25 C         -61.4280  -43.5502  -31.6310 C.3     1  UNL1        0.4200
     26 F         -61.3656  -42.2511  -31.1630 F       1  UNL1       -0.1658
     27 F         -60.2566  -43.8426  -32.3081 F       1  UNL1       -0.1658
     28 F         -62.4817  -43.6589  -32.5219 F       1  UNL1       -0.1658
     29 C         -65.6969  -55.6596  -21.8646 C.3     1  UNL1        0.1535
     30 C         -66.7155  -55.5427  -20.7618 C.2     1  UNL1        0.2443
     31 O         -66.7200  -56.3856  -19.8230 O.2     1  UNL1       -0.2730
     32 N         -67.6093  -54.4184  -20.7313 N.am    1  UNL1       -0.2825
     33 H         -67.3673  -53.5877  -21.3180 H       1  UNL1        0.1549
     34 C         -68.7516  -54.3208  -19.8633 C.ar    1  UNL1        0.0535
     35 C         -68.7587  -54.9097  -18.5871 C.ar    1  UNL1        0.0353
     36 C         -69.9012  -54.8099  -17.7889 C.ar    1  UNL1        0.1002
     37 N         -71.0019  -54.1597  -18.2504 N.ar    1  UNL1       -0.2422
     38 C         -71.0296  -53.5968  -19.4872 C.ar    1  UNL1        0.1002
     39 C         -69.9092  -53.6747  -20.3179 C.ar    1  UNL1        0.0353
     40 C         -66.2741  -56.4833  -23.0280 C.3     1  UNL1        0.0569
     41 C         -67.3985  -55.7555  -23.7065 C.ar    1  UNL1       -0.0017
     42 C         -67.2909  -54.9088  -24.8064 C.ar    1  UNL1        0.0681
     43 N         -68.5176  -54.5343  -25.2359 N.ar    1  UNL1       -0.3523
     44 C         -69.3978  -55.1468  -24.4254 C.ar    1  UNL1        0.0563
     45 C         -70.7891  -55.0971  -24.4979 C.ar    1  UNL1        0.0170
     46 C         -71.5235  -55.8520  -23.5649 C.ar    1  UNL1        0.0015
     47 C         -70.8583  -56.6357  -22.5958 C.ar    1  UNL1        0.0001
     48 C         -69.4528  -56.6705  -22.5495 C.ar    1  UNL1        0.0012
     49 C         -68.7527  -55.9046  -23.4816 C.ar    1  UNL1        0.0131
     50 H         -68.7328  -53.9178  -26.0508 H       1  UNL1        0.1660
@<TRIPOS>BOND
     1     5     6    1
     2     6     7   ar
     3     7     8   ar
     4     8     1    1
     5     1     2    2
     6     1     3   am
     7     3    29    1
     8    29    40    1
     9    40    41    1
    10    41    42   ar
    11    42    43   ar
    12    43    44   ar
    13    44    45   ar
    14    45    46   ar
    15    46    47   ar
    16    47    48   ar
    17    48    49   ar
    18    29    30    1
    19    30    31    2
    20    30    32   am
    21    32    34    1
    22    34    35   ar
    23    35    36   ar
    24    36    37   ar
    25    37    38   ar
    26    38    39   ar
    27     8     9   ar
    28     9    10    1
    29     9    11   ar
    30    11    12   ar
    31    12    13    1
    32    13    14    1
    33    14    15    1
    34    15    16    1
    35    16    19    1
    36    19    20   ar
    37    20    21   ar
    38    21    22   ar
    39    22    25    1
    40    25    26    1
    41    25    27    1
    42    25    28    1
    43    22    23   ar
    44    23    24   ar
    45    16    17    1
    46    17    18    1
    47    12     6   ar
    48    18    13    1
    49    49    41   ar
    50    39    34   ar
    51    24    19   ar
    52    49    44   ar
    53     3     4    1
    54    43    50    1
    55    32    33    1
@<TRIPOS>MOLECULE
*****
 50 55 0 0 0
SMALL
GASTEIGER

@<TRIPOS>ATOM
      1 C         -61.3238  -41.9934  -21.9128 C.2     1  UNL1        0.2483
      2 O         -60.2769  -42.2248  -21.2480 O.2     1  UNL1       -0.2701
      3 N         -62.2691  -41.0148  -21.4456 N.am    1  UNL1       -0.2945
      4 H         -63.1759  -40.9164  -21.9558 H       1  UNL1        0.1501
      5 C         -60.1672  -45.8109  -24.9525 C.3     1  UNL1        0.0323
      6 C         -61.0273  -44.6153  -24.6459 C.ar    1  UNL1       -0.0082
      7 C         -60.7906  -43.8779  -23.4739 C.ar    1  UNL1        0.0037
      8 C         -61.5796  -42.7604  -23.1529 C.ar    1  UNL1        0.0805
      9 C         -62.6188  -42.3840  -24.0226 C.ar    1  UNL1        0.1457
     10 F         -63.3900  -41.2986  -23.7568 F       1  UNL1       -0.2040
     11 C         -62.8469  -43.1014  -25.1980 C.ar    1  UNL1        0.0440
     12 C         -62.0524  -44.2071  -25.5263 C.ar    1  UNL1        0.0461
     13 N         -62.2986  -44.9057  -26.7569 N.pl3   1  UNL1       -0.3043
     14 C         -62.6456  -46.3308  -26.7150 C.3     1  UNL1        0.1123
     15 C         -62.7446  -46.9269  -28.1239 C.3     1  UNL1        0.1136
     16 N         -63.5483  -46.0598  -29.0014 N.pl3   1  UNL1       -0.2897
     17 C         -63.3852  -44.5958  -28.9330 C.3     1  UNL1        0.1136
     18 C         -62.2110  -44.1961  -28.0358 C.3     1  UNL1        0.1123
     19 C         -64.3659  -46.6525  -30.0367 C.ar    1  UNL1        0.1318
     20 C         -64.8667  -45.8861  -31.1040 C.ar    1  UNL1        0.0343
     21 C         -65.6505  -46.4954  -32.0849 C.ar    1  UNL1        0.0083
     22 C         -65.9243  -47.8692  -32.0195 C.ar    1  UNL1        0.0906
     23 C         -65.4320  -48.5945  -30.9244 C.ar    1  UNL1        0.1041
     24 N         -64.6722  -47.9794  -29.9803 N.ar    1  UNL1       -0.2292
     25 C         -66.8113  -48.5281  -33.0450 C.3     1  UNL1        0.4200
     26 F         -67.1406  -49.7991  -32.6127 F       1  UNL1       -0.1658
     27 F         -67.9732  -47.7980  -33.2262 F       1  UNL1       -0.1658
     28 F         -66.1630  -48.6200  -34.2644 F       1  UNL1       -0.1658
     29 C         -62.1630  -40.3880  -20.1221 C.3     1  UNL1        0.1535
     30 C         -62.6233  -38.9558  -20.1888 C.2     1  UNL1        0.2443
     31 O         -62.1848  -38.1999  -21.0989 O.2     1  UNL1       -0.2730
     32 N         -63.6319  -38.4867  -19.2796 N.am    1  UNL1       -0.2825
     33 H         -64.2006  -39.2019  -18.7719 H       1  UNL1        0.1549
     34 C         -63.9816  -37.1024  -19.1091 C.ar    1  UNL1        0.0535
     35 C         -63.0831  -36.1803  -18.5454 C.ar    1  UNL1        0.0353
     36 C         -63.4767  -34.8502  -18.3764 C.ar    1  UNL1        0.1002
     37 N         -64.7248  -34.4558  -18.7423 N.ar    1  UNL1       -0.2422
     38 C         -65.6204  -35.3296  -19.2727 C.ar    1  UNL1        0.1002
     39 C         -65.2680  -36.6687  -19.4575 C.ar    1  UNL1        0.0353
     40 C         -63.0040  -41.1630  -19.0939 C.3     1  UNL1        0.0569
     41 C         -64.1134  -41.9248  -19.7595 C.ar    1  UNL1       -0.0017
     42 C         -64.3643  -43.2894  -19.6448 C.ar    1  UNL1        0.0681
     43 N         -65.5198  -43.6114  -20.2696 N.ar    1  UNL1       -0.3523
     44 C         -66.0064  -42.4610  -20.7663 C.ar    1  UNL1        0.0563
     45 C         -67.2012  -42.2794  -21.4611 C.ar    1  UNL1        0.0170
     46 C         -67.5382  -40.9726  -21.8593 C.ar    1  UNL1        0.0015
     47 C         -66.6863  -39.8884  -21.5517 C.ar    1  UNL1        0.0001
     48 C         -65.4888  -40.1009  -20.8449 C.ar    1  UNL1        0.0012
     49 C         -65.1777  -41.4085  -20.4717 C.ar    1  UNL1        0.0131
     50 H         -65.9564  -44.5583  -20.3265 H       1  UNL1        0.1660
@<TRIPOS>BOND
     1     5     6    1
     2     6     7   ar
     3     7     8   ar
     4     8     1    1
     5     1     2    2
     6     1     3   am
     7     3    29    1
     8    29    40    1
     9    40    41    1
    10    41    42   ar
    11    42    43   ar
    12    43    44   ar
    13    44    45   ar
    14    45    46   ar
    15    46    47   ar
    16    47    48   ar
    17    48    49   ar
    18    29    30    1
    19    30    31    2
    20    30    32   am
    21    32    34    1
    22    34    35   ar
    23    35    36   ar
    24    36    37   ar
    25    37    38   ar
    26    38    39   ar
    27     8     9   ar
    28     9    10    1
    29     9    11   ar
    30    11    12   ar
    31    12    13    1
    32    13    14    1
    33    14    15    1
    34    15    16    1
    35    16    19    1
    36    19    20   ar
    37    20    21   ar
    38    21    22   ar
    39    22    25    1
    40    25    26    1
    41    25    27    1
    42    25    28    1
    43    22    23   ar
    44    23    24   ar
    45    16    17    1
    46    17    18    1
    47    12     6   ar
    48    18    13    1
    49    49    41   ar
    50    39    34   ar
    51    24    19   ar
    52    49    44   ar
    53     3     4    1
    54    43    50    1
    55    32    33    1
@<TRIPOS>MOLECULE
*****
 50 55 0 0 0
SMALL
GASTEIGER

@<TRIPOS>ATOM
      1 C         -61.0948  -46.1057  -25.3953 C.2     1  UNL1        0.2483
      2 O         -59.9763  -46.6800  -25.2923 O.2     1  UNL1       -0.2701
      3 N         -61.9253  -46.3523  -26.5438 N.am    1  UNL1       -0.2945
      4 H         -62.7968  -45.7868  -26.6578 H       1  UNL1        0.1501
      5 C         -63.0571  -45.2822  -20.8542 C.3     1  UNL1        0.0323
      6 C         -62.4789  -44.7387  -22.1323 C.ar    1  UNL1       -0.0082
      7 C         -62.0735  -45.6300  -23.1396 C.ar    1  UNL1        0.0037
      8 C         -61.5224  -45.1569  -24.3425 C.ar    1  UNL1        0.0805
      9 C         -61.3776  -43.7706  -24.5302 C.ar    1  UNL1        0.1457
     10 F         -60.8678  -43.2744  -25.6866 F       1  UNL1       -0.2040
     11 C         -61.7958  -42.8793  -23.5407 C.ar    1  UNL1        0.0440
     12 C         -62.3582  -43.3488  -22.3470 C.ar    1  UNL1        0.0461
     13 N         -62.8016  -42.4021  -21.3620 N.pl3   1  UNL1       -0.3043
     14 C         -61.8052  -41.6501  -20.5910 C.3     1  UNL1        0.1123
     15 C         -62.4653  -40.7895  -19.5075 C.3     1  UNL1        0.1136
     16 N         -63.6025  -40.0360  -20.0615 N.pl3   1  UNL1       -0.2897
     17 C         -64.5215  -40.6902  -21.0112 C.3     1  UNL1        0.1136
     18 C         -64.2341  -42.1882  -21.1399 C.3     1  UNL1        0.1123
     19 C         -63.9066  -38.7196  -19.5453 C.ar    1  UNL1        0.1318
     20 C         -64.9157  -38.5237  -18.5859 C.ar    1  UNL1        0.0343
     21 C         -65.1777  -37.2379  -18.1105 C.ar    1  UNL1        0.0083
     22 C         -64.4277  -36.1464  -18.5718 C.ar    1  UNL1        0.0906
     23 C         -63.4495  -36.3773  -19.5504 C.ar    1  UNL1        0.1041
     24 N         -63.2131  -37.6379  -19.9996 N.ar    1  UNL1       -0.2292
     25 C         -64.7353  -34.7469  -18.1039 C.3     1  UNL1        0.4200
     26 F         -63.5872  -33.9803  -18.1754 F       1  UNL1       -0.1658
     27 F         -65.7124  -34.1709  -18.8973 F       1  UNL1       -0.1658
     28 F         -65.1899  -34.7580  -16.7966 F       1  UNL1       -0.1658
     29 C         -61.4531  -47.1142  -27.7067 C.3     1  UNL1        0.1535
     30 C         -62.5939  -47.3717  -28.6553 C.2     1  UNL1        0.2443
     31 O         -62.9718  -48.5559  -28.8717 O.2     1  UNL1       -0.2730
     32 N         -63.3087  -46.2658  -29.2296 N.am    1  UNL1       -0.2825
     33 H         -63.1922  -45.3269  -28.7851 H       1  UNL1        0.1549
     34 C         -64.2565  -46.3901  -30.3039 C.ar    1  UNL1        0.0535
     35 C         -64.8158  -47.6316  -30.6521 C.ar    1  UNL1        0.0353
     36 C         -65.7139  -47.7072  -31.7200 C.ar    1  UNL1        0.1002
     37 N         -66.0324  -46.5895  -32.4247 N.ar    1  UNL1       -0.2422
     38 C         -65.4928  -45.3794  -32.1219 C.ar    1  UNL1        0.1002
     39 C         -64.5898  -45.2599  -31.0628 C.ar    1  UNL1        0.0353
     40 C         -60.3318  -46.3485  -28.4288 C.3     1  UNL1        0.0569
     41 C         -60.8739  -45.1659  -29.1784 C.ar    1  UNL1       -0.0017
     42 C         -61.7324  -44.1915  -28.6764 C.ar    1  UNL1        0.0681
     43 N         -61.9081  -43.2040  -29.5839 N.ar    1  UNL1       -0.3523
     44 C         -61.1588  -43.5401  -30.6481 C.ar    1  UNL1        0.0563
     45 C         -60.9860  -42.8109  -31.8236 C.ar    1  UNL1        0.0170
     46 C         -60.1189  -43.3341  -32.8004 C.ar    1  UNL1        0.0015
     47 C         -59.4467  -44.5570  -32.5800 C.ar    1  UNL1        0.0001
     48 C         -59.6367  -45.2690  -31.3817 C.ar    1  UNL1        0.0012
     49 C         -60.5093  -44.7294  -30.4366 C.ar    1  UNL1        0.0131
     50 H         -62.4863  -42.3425  -29.4656 H       1  UNL1        0.1660
@<TRIPOS>BOND
     1     5     6    1
     2     6     7   ar
     3     7     8   ar
     4     8     1    1
     5     1     2    2
     6     1     3   am
     7     3    29    1
     8    29    40    1
     9    40    41    1
    10    41    42   ar
    11    42    43   ar
    12    43    44   ar
    13    44    45   ar
    14    45    46   ar
    15    46    47   ar
    16    47    48   ar
    17    48    49   ar
    18    29    30    1
    19    30    31    2
    20    30    32   am
    21    32    34    1
    22    34    35   ar
    23    35    36   ar
    24    36    37   ar
    25    37    38   ar
    26    38    39   ar
    27     8     9   ar
    28     9    10    1
    29     9    11   ar
    30    11    12   ar
    31    12    13    1
    32    13    14    1
    33    14    15    1
    34    15    16    1
    35    16    19    1
    36    19    20   ar
    37    20    21   ar
    38    21    22   ar
    39    22    25    1
    40    25    26    1
    41    25    27    1
    42    25    28    1
    43    22    23   ar
    44    23    24   ar
    45    16    17    1
    46    17    18    1
    47    12     6   ar
    48    18    13    1
    49    49    41   ar
    50    39    34   ar
    51    24    19   ar
    52    49    44   ar
    53     3     4    1
    54    43    50    1
    55    32    33    1
@<TRIPOS>MOLECULE
*****
 50 55 0 0 0
SMALL
GASTEIGER

@<TRIPOS>ATOM
      1 C         -62.3181  -45.3214  -26.5890 C.2     1  UNL1        0.2483
      2 O         -61.1927  -45.6743  -27.0365 O.2     1  UNL1       -0.2701
      3 N         -63.5217  -45.7942  -27.2194 N.am    1  UNL1       -0.2945
      4 H         -64.4370  -45.4058  -26.8977 H       1  UNL1        0.1501
      5 C         -61.5178  -44.4132  -21.7222 C.3     1  UNL1        0.0323
      6 C         -61.9997  -43.9373  -23.0655 C.ar    1  UNL1       -0.0082
      7 C         -61.9473  -44.8094  -24.1656 C.ar    1  UNL1        0.0037
      8 C         -62.3820  -44.3951  -25.4360 C.ar    1  UNL1        0.0805
      9 C         -62.8732  -43.0873  -25.5982 C.ar    1  UNL1        0.1457
     10 F         -63.3207  -42.6567  -26.8056 F       1  UNL1       -0.2040
     11 C         -62.9452  -42.2223  -24.5051 C.ar    1  UNL1        0.0440
     12 C         -62.5253  -42.6383  -23.2353 C.ar    1  UNL1        0.0461
     13 N         -62.6384  -41.7305  -22.1281 N.pl3   1  UNL1       -0.3043
     14 C         -61.7376  -40.5747  -22.0538 C.3     1  UNL1        0.1123
     15 C         -61.9238  -39.7999  -20.7442 C.3     1  UNL1        0.1136
     16 N         -63.3523  -39.5633  -20.4773 N.pl3   1  UNL1       -0.2897
     17 C         -64.3328  -40.6340  -20.7357 C.3     1  UNL1        0.1136
     18 C         -63.6494  -41.9566  -21.0918 C.3     1  UNL1        0.1123
     19 C         -63.7623  -38.3477  -19.8093 C.ar    1  UNL1        0.1318
     20 C         -64.8959  -38.3149  -18.9779 C.ar    1  UNL1        0.0343
     21 C         -65.2578  -37.1227  -18.3490 C.ar    1  UNL1        0.0083
     22 C         -64.4865  -35.9654  -18.5286 C.ar    1  UNL1        0.0906
     23 C         -63.3801  -36.0299  -19.3885 C.ar    1  UNL1        0.1041
     24 N         -63.0476  -37.2016  -19.9914 N.ar    1  UNL1       -0.2292
     25 C         -64.8961  -34.6601  -17.8955 C.3     1  UNL1        0.4200
     26 F         -63.8948  -33.7268  -18.0880 F       1  UNL1       -0.1658
     27 F         -66.0673  -34.1888  -18.4632 F       1  UNL1       -0.1658
     28 F         -65.1077  -34.8214  -16.5373 F       1  UNL1       -0.1658
     29 C         -63.5065  -46.5368  -28.4860 C.3     1  UNL1        0.1535
     30 C         -62.9071  -45.6888  -29.5765 C.2     1  UNL1        0.2443
     31 O         -63.6587  -45.1558  -30.4384 O.2     1  UNL1       -0.2730
     32 N         -61.4978  -45.4100  -29.5713 N.am    1  UNL1       -0.2825
     33 H         -60.9704  -45.5829  -28.6855 H       1  UNL1        0.1549
     34 C         -60.7922  -44.8059  -30.6690 C.ar    1  UNL1        0.0535
     35 C         -61.4497  -43.9934  -31.6087 C.ar    1  UNL1        0.0353
     36 C         -60.7270  -43.4484  -32.6732 C.ar    1  UNL1        0.1002
     37 N         -59.4007  -43.7144  -32.8053 N.ar    1  UNL1       -0.2422
     38 C         -58.7433  -44.5114  -31.9222 C.ar    1  UNL1        0.1002
     39 C         -59.4285  -45.0776  -30.8445 C.ar    1  UNL1        0.0353
     40 C         -62.7045  -47.8400  -28.3328 C.3     1  UNL1        0.0569
     41 C         -63.1122  -48.5895  -27.0974 C.ar    1  UNL1       -0.0017
     42 C         -64.2232  -49.4174  -26.9613 C.ar    1  UNL1        0.0681
     43 N         -64.2084  -50.0337  -25.7575 N.ar    1  UNL1       -0.3523
     44 C         -63.0922  -49.6121  -25.1382 C.ar    1  UNL1        0.0563
     45 C         -62.6234  -50.0016  -23.8845 C.ar    1  UNL1        0.0170
     46 C         -61.4022  -49.4608  -23.4420 C.ar    1  UNL1        0.0015
     47 C         -60.6821  -48.5584  -24.2562 C.ar    1  UNL1        0.0001
     48 C         -61.1772  -48.1869  -25.5194 C.ar    1  UNL1        0.0012
     49 C         -62.3947  -48.7326  -25.9263 C.ar    1  UNL1        0.0131
     50 H         -64.9088  -50.7198  -25.3982 H       1  UNL1        0.1660
@<TRIPOS>BOND
     1     5     6    1
     2     6     7   ar
     3     7     8   ar
     4     8     1    1
     5     1     2    2
     6     1     3   am
     7     3    29    1
     8    29    40    1
     9    40    41    1
    10    41    42   ar
    11    42    43   ar
    12    43    44   ar
    13    44    45   ar
    14    45    46   ar
    15    46    47   ar
    16    47    48   ar
    17    48    49   ar
    18    29    30    1
    19    30    31    2
    20    30    32   am
    21    32    34    1
    22    34    35   ar
    23    35    36   ar
    24    36    37   ar
    25    37    38   ar
    26    38    39   ar
    27     8     9   ar
    28     9    10    1
    29     9    11   ar
    30    11    12   ar
    31    12    13    1
    32    13    14    1
    33    14    15    1
    34    15    16    1
    35    16    19    1
    36    19    20   ar
    37    20    21   ar
    38    21    22   ar
    39    22    25    1
    40    25    26    1
    41    25    27    1
    42    25    28    1
    43    22    23   ar
    44    23    24   ar
    45    16    17    1
    46    17    18    1
    47    12     6   ar
    48    18    13    1
    49    49    41   ar
    50    39    34   ar
    51    24    19   ar
    52    49    44   ar
    53     3     4    1
    54    43    50    1
    55    32    33    1
@<TRIPOS>MOLECULE
*****
 50 55 0 0 0
SMALL
GASTEIGER

@<TRIPOS>ATOM
      1 C         -63.8812  -53.9651  -22.6153 C.2     1  UNL1        0.2483
      2 O         -62.9821  -54.8118  -22.3584 O.2     1  UNL1       -0.2701
      3 N         -65.2600  -54.2793  -22.3504 N.am    1  UNL1       -0.2945
      4 H         -65.9932  -53.6058  -22.6681 H       1  UNL1        0.1501
      5 C         -60.8778  -49.9500  -22.7091 C.3     1  UNL1        0.0323
      6 C         -62.0499  -50.7031  -23.2767 C.ar    1  UNL1       -0.0082
      7 C         -62.4192  -51.9338  -22.7089 C.ar    1  UNL1        0.0037
      8 C         -63.5039  -52.6671  -23.2189 C.ar    1  UNL1        0.0805
      9 C         -64.2224  -52.1540  -24.3136 C.ar    1  UNL1        0.1457
     10 F         -65.2886  -52.8235  -24.8219 F       1  UNL1       -0.2040
     11 C         -63.8721  -50.9227  -24.8701 C.ar    1  UNL1        0.0440
     12 C         -62.7999  -50.1840  -24.3540 C.ar    1  UNL1        0.0461
     13 N         -62.4842  -48.9088  -24.9346 N.pl3   1  UNL1       -0.3043
     14 C         -62.2673  -48.8144  -26.3826 C.3     1  UNL1        0.1123
     15 C         -61.8183  -47.4073  -26.7934 C.3     1  UNL1        0.1136
     16 N         -62.6735  -46.3843  -26.1686 N.pl3   1  UNL1       -0.2897
     17 C         -63.0949  -46.5402  -24.7641 C.3     1  UNL1        0.1136
     18 C         -62.3895  -47.7177  -24.0865 C.3     1  UNL1        0.1123
     19 C         -62.9548  -45.1570  -26.8801 C.ar    1  UNL1        0.1318
     20 C         -62.5514  -43.9082  -26.3753 C.ar    1  UNL1        0.0343
     21 C         -62.8398  -42.7463  -27.0928 C.ar    1  UNL1        0.0083
     22 C         -63.5126  -42.8217  -28.3209 C.ar    1  UNL1        0.0906
     23 C         -63.9249  -44.0824  -28.7775 C.ar    1  UNL1        0.1041
     24 N         -63.6343  -45.2000  -28.0609 N.ar    1  UNL1       -0.2292
     25 C         -63.8744  -41.5705  -29.0798 C.3     1  UNL1        0.4200
     26 F         -65.0072  -41.0100  -28.5200 F       1  UNL1       -0.1658
     27 F         -62.8415  -40.6506  -29.0246 F       1  UNL1       -0.1658
     28 F         -64.1246  -41.8612  -30.4097 F       1  UNL1       -0.1658
     29 C         -65.6981  -55.6236  -21.9546 C.3     1  UNL1        0.1535
     30 C         -66.7013  -55.5329  -20.8353 C.2     1  UNL1        0.2443
     31 O         -66.6907  -56.3957  -19.9148 O.2     1  UNL1       -0.2730
     32 N         -67.5972  -54.4118  -20.7683 N.am    1  UNL1       -0.2825
     33 H         -67.3654  -53.5682  -21.3404 H       1  UNL1        0.1549
     34 C         -68.7273  -54.3358  -19.8824 C.ar    1  UNL1        0.0535
     35 C         -68.7197  -54.9619  -18.6241 C.ar    1  UNL1        0.0353
     36 C         -69.8511  -54.8815  -17.8080 C.ar    1  UNL1        0.1002
     37 N         -70.9552  -54.2141  -18.2352 N.ar    1  UNL1       -0.2422
     38 C         -70.9973  -53.6150  -19.4545 C.ar    1  UNL1        0.1002
     39 C         -69.8884  -53.6724  -20.3022 C.ar    1  UNL1        0.0353
     40 C         -66.3153  -56.3605  -23.1551 C.3     1  UNL1        0.0569
     41 C         -67.5675  -55.6802  -23.6278 C.ar    1  UNL1       -0.0017
     42 C         -67.6554  -54.7041  -24.6167 C.ar    1  UNL1        0.0681
     43 N         -68.9499  -54.4125  -24.8787 N.ar    1  UNL1       -0.3523
     44 C         -69.6792  -55.2043  -24.0736 C.ar    1  UNL1        0.0563
     45 C         -71.0690  -55.2924  -24.0089 C.ar    1  UNL1        0.0170
     46 C         -71.6278  -56.2238  -23.1146 C.ar    1  UNL1        0.0015
     47 C         -70.7944  -57.0415  -22.3191 C.ar    1  UNL1        0.0001
     48 C         -69.3947  -56.9341  -22.4091 C.ar    1  UNL1        0.0012
     49 C         -68.8707  -55.9954  -23.2980 C.ar    1  UNL1        0.0131
     50 H         -69.3061  -53.7310  -25.5852 H       1  UNL1        0.1660
@<TRIPOS>BOND
     1     5     6    1
     2     6     7   ar
     3     7     8   ar
     4     8     1    1
     5     1     2    2
     6     1     3   am
     7     3    29    1
     8    29    40    1
     9    40    41    1
    10    41    42   ar
    11    42    43   ar
    12    43    44   ar
    13    44    45   ar
    14    45    46   ar
    15    46    47   ar
    16    47    48   ar
    17    48    49   ar
    18    29    30    1
    19    30    31    2
    20    30    32   am
    21    32    34    1
    22    34    35   ar
    23    35    36   ar
    24    36    37   ar
    25    37    38   ar
    26    38    39   ar
    27     8     9   ar
    28     9    10    1
    29     9    11   ar
    30    11    12   ar
    31    12    13    1
    32    13    14    1
    33    14    15    1
    34    15    16    1
    35    16    19    1
    36    19    20   ar
    37    20    21   ar
    38    21    22   ar
    39    22    25    1
    40    25    26    1
    41    25    27    1
    42    25    28    1
    43    22    23   ar
    44    23    24   ar
    45    16    17    1
    46    17    18    1
    47    12     6   ar
    48    18    13    1
    49    49    41   ar
    50    39    34   ar
    51    24    19   ar
    52    49    44   ar
    53     3     4    1
    54    43    50    1
    55    32    33    1
