@<TRIPOS>MOLECULE
*****
 52 57 0 0 0
SMALL
GASTEIGER

@<TRIPOS>ATOM
      1 N          61.2306   85.3789   11.8785 N.am    1  UNL1       -0.2945
      2 C          60.0183   85.5054   11.1182 C.2     1  UNL1        0.2483
      3 O          59.0008   84.8352   11.4456 O.2     1  UNL1       -0.2701
      4 H          62.1202   85.7442   11.4691 H       1  UNL1        0.1501
      5 C          59.9538   86.3868    9.9304 C.ar    1  UNL1        0.0808
      6 C          60.4374   87.7023   10.0167 C.ar    1  UNL1        0.0080
      7 C          60.3826   88.5544    8.9111 C.ar    1  UNL1        0.0148
      8 C          59.8530   88.1068    7.6884 C.ar    1  UNL1        0.0502
      9 C          59.3820   86.7855    7.5987 C.ar    1  UNL1        0.0443
     10 C          59.4352   85.9300    8.7037 C.ar    1  UNL1        0.1457
     11 F          59.0270   84.6446    8.5523 F       1  UNL1       -0.2040
     12 N          59.7902   88.9879    6.5447 N.pl3   1  UNL1       -0.3040
     13 C          61.0024   89.6658    6.0635 C.3     1  UNL1        0.1123
     14 C          60.9449   89.8704    4.5457 C.3     1  UNL1        0.1136
     15 N          59.6697   90.4720    4.1203 N.pl3   1  UNL1       -0.2897
     16 C          58.5544   90.5635    5.0734 C.3     1  UNL1        0.1136
     17 C          58.4855   89.3043    5.9427 C.3     1  UNL1        0.1123
     18 C          59.5519   91.0948    2.8209 C.ar    1  UNL1        0.1318
     19 C          58.9744   90.4171    1.7328 C.ar    1  UNL1        0.0343
     20 C          58.8794   91.0530    0.4940 C.ar    1  UNL1        0.0083
     21 C          59.3372   92.3692    0.3372 C.ar    1  UNL1        0.0906
     22 C          59.9272   93.0045    1.4401 C.ar    1  UNL1        0.1041
     23 N          60.0113   92.3646    2.6361 N.ar    1  UNL1       -0.2292
     24 C          59.2858   93.0484   -1.0076 C.3     1  UNL1        0.4200
     25 F          59.2488   92.0883   -2.0014 F       1  UNL1       -0.1658
     26 F          60.4003   93.8479   -1.1939 F       1  UNL1       -0.1658
     27 F          58.1589   93.8460   -1.1087 F       1  UNL1       -0.1658
     28 C          61.2945   84.5939   13.1135 C.3     1  UNL1        0.1535
     29 N          59.8382   82.4968   13.1635 N.am    1  UNL1       -0.2825
     30 C          61.0714   83.1372   12.8007 C.2     1  UNL1        0.2443
     31 O          61.9882   82.4802   12.2370 O.2     1  UNL1       -0.2730
     32 H          59.2742   82.9188   13.9354 H       1  UNL1        0.1549
     33 C          58.4332   80.0863   10.6524 C.ar    1  UNL1        0.0900
     34 C          58.9411   81.2710   11.2031 C.ar    1  UNL1        0.0319
     35 C          59.3513   81.2932   12.5470 C.ar    1  UNL1        0.0532
     36 C          59.2216   80.1292   13.3152 C.ar    1  UNL1        0.0353
     37 C          58.7253   78.9643   12.7269 C.ar    1  UNL1        0.0998
     38 N          58.3495   78.9662   11.4210 N.ar    1  UNL1       -0.2456
     39 C          58.0129   80.0370    9.2161 C.3     1  UNL1        0.1876
     40 C          58.8272   80.7560    7.1870 C.3     1  UNL1        0.1747
     41 O          58.6007   81.1209    8.5297 O.3     1  UNL1       -0.3447
     42 C          62.6497   84.8137   13.8134 C.3     1  UNL1        0.0569
     43 C          62.5895   85.9443   14.8013 C.ar    1  UNL1       -0.0017
     44 C          61.8664   85.9660   15.9904 C.ar    1  UNL1        0.0681
     45 N          61.9658   87.1782   16.5816 N.ar    1  UNL1       -0.3523
     46 C          62.7380   87.9239   15.7720 C.ar    1  UNL1        0.0563
     47 C          63.1076   89.2564   15.9486 C.ar    1  UNL1        0.0170
     48 C          63.9094   89.8531   14.9583 C.ar    1  UNL1        0.0015
     49 C          64.3160   89.1140   13.8248 C.ar    1  UNL1        0.0001
     50 C          63.9253   87.7713   13.6717 C.ar    1  UNL1        0.0012
     51 C          63.1349   87.2062   14.6726 C.ar    1  UNL1        0.0131
     52 H          61.5166   87.4760   17.4760 H       1  UNL1        0.1660
@<TRIPOS>BOND
     1    40    41    1
     2    41    39    1
     3    39    33    1
     4    33    34   ar
     5    34    35   ar
     6    35    29    1
     7    29    30   am
     8    30    31    2
     9    30    28    1
    10    28    42    1
    11    42    43    1
    12    43    44   ar
    13    44    45   ar
    14    45    46   ar
    15    46    47   ar
    16    47    48   ar
    17    48    49   ar
    18    49    50   ar
    19    50    51   ar
    20    28     1    1
    21     1     2   am
    22     2     3    2
    23     2     5    1
    24     5     6   ar
    25     6     7   ar
    26     7     8   ar
    27     8    12    1
    28    12    13    1
    29    13    14    1
    30    14    15    1
    31    15    18    1
    32    18    19   ar
    33    19    20   ar
    34    20    21   ar
    35    21    24    1
    36    24    25    1
    37    24    26    1
    38    24    27    1
    39    21    22   ar
    40    22    23   ar
    41    15    16    1
    42    16    17    1
    43     8     9   ar
    44     9    10   ar
    45    10    11    1
    46    35    36   ar
    47    36    37   ar
    48    37    38   ar
    49    38    33   ar
    50    51    43   ar
    51    10     5   ar
    52    51    46   ar
    53    17    12    1
    54    23    18   ar
    55    29    32    1
    56    45    52    1
    57     1     4    1
@<TRIPOS>MOLECULE
*****
 52 57 0 0 0
SMALL
GASTEIGER

@<TRIPOS>ATOM
      1 N          59.9798   84.2023    8.9647 N.am    1  UNL1       -0.2945
      2 C          59.9104   85.6325    8.8489 C.2     1  UNL1        0.2483
      3 O          59.0600   86.1580    8.0792 O.2     1  UNL1       -0.2701
      4 H          60.8244   83.7751    9.4083 H       1  UNL1        0.1501
      5 C          60.8479   86.5025    9.5947 C.ar    1  UNL1        0.0808
      6 C          61.3857   86.0576   10.8130 C.ar    1  UNL1        0.0080
      7 C          62.2682   86.8626   11.5374 C.ar    1  UNL1        0.0148
      8 C          62.6431   88.1281   11.0539 C.ar    1  UNL1        0.0502
      9 C          62.1154   88.5670    9.8273 C.ar    1  UNL1        0.0443
     10 C          61.2315   87.7636    9.0999 C.ar    1  UNL1        0.1457
     11 F          60.7971   88.2024    7.8913 F       1  UNL1       -0.2040
     12 N          63.5517   88.9650   11.8039 N.pl3   1  UNL1       -0.3040
     13 C          63.3364   89.1922   13.2400 C.3     1  UNL1        0.1123
     14 C          64.6721   89.3853   13.9663 C.3     1  UNL1        0.1136
     15 N          65.5283   90.3735   13.2885 N.pl3   1  UNL1       -0.2897
     16 C          65.1709   90.8448   11.9428 C.3     1  UNL1        0.1136
     17 C          64.6188   89.6921   11.0987 C.3     1  UNL1        0.1123
     18 C          66.6366   90.9836   13.9881 C.ar    1  UNL1        0.1318
     19 C          66.4387   91.7407   15.1562 C.ar    1  UNL1        0.0343
     20 C          67.5349   92.3140   15.8025 C.ar    1  UNL1        0.0083
     21 C          68.8313   92.1200   15.3040 C.ar    1  UNL1        0.0906
     22 C          68.9864   91.3770   14.1242 C.ar    1  UNL1        0.1041
     23 N          67.9039   90.8303   13.5106 N.ar    1  UNL1       -0.2292
     24 C          70.0173   92.7753   15.9643 C.3     1  UNL1        0.4200
     25 F          69.5825   93.8479   16.7201 F       1  UNL1       -0.1658
     26 F          70.9169   93.2277   15.0145 F       1  UNL1       -0.1658
     27 F          70.6736   91.8784   16.7896 F       1  UNL1       -0.1658
     28 C          59.0032   83.3224    8.3185 C.3     1  UNL1        0.1535
     29 N          60.4322   81.4944    9.3851 N.am    1  UNL1       -0.2825
     30 C          59.4842   81.8962    8.3840 C.2     1  UNL1        0.2443
     31 O          59.0626   81.0638    7.5359 O.2     1  UNL1       -0.2730
     32 H          61.0399   82.2310    9.8098 H       1  UNL1        0.1549
     33 C          59.8888   78.1665   11.0343 C.ar    1  UNL1        0.0900
     34 C          59.6534   79.4791   10.6027 C.ar    1  UNL1        0.0319
     35 C          60.6139   80.1345    9.8136 C.ar    1  UNL1        0.0532
     36 C          61.8011   79.4637    9.4933 C.ar    1  UNL1        0.0353
     37 C          61.9927   78.1512    9.9290 C.ar    1  UNL1        0.0998
     38 N          61.0410   77.5354   10.6786 N.ar    1  UNL1       -0.2456
     39 C          58.8670   77.4438   11.8562 C.3     1  UNL1        0.1876
     40 C          59.1061   78.8869   13.6331 C.3     1  UNL1        0.1747
     41 O          58.2010   78.3751   12.6812 O.3     1  UNL1       -0.3447
     42 C          57.6236   83.4778    8.9871 C.3     1  UNL1        0.0569
     43 C          57.6854   83.2013   10.4628 C.ar    1  UNL1       -0.0017
     44 C          57.5736   81.9570   11.0764 C.ar    1  UNL1        0.0681
     45 N          57.5779   82.0920   12.4221 N.ar    1  UNL1       -0.3523
     46 C          57.6828   83.4106   12.6625 C.ar    1  UNL1        0.0563
     47 C          57.7060   84.0438   13.9044 C.ar    1  UNL1        0.0170
     48 C          57.7995   85.4476   13.9249 C.ar    1  UNL1        0.0015
     49 C          57.8632   86.1787   12.7176 C.ar    1  UNL1        0.0001
     50 C          57.8349   85.5130   11.4787 C.ar    1  UNL1        0.0012
     51 C          57.7469   84.1208   11.4909 C.ar    1  UNL1        0.0131
     52 H          57.4968   81.3260   13.1271 H       1  UNL1        0.1660
@<TRIPOS>BOND
     1    40    41    1
     2    41    39    1
     3    39    33    1
     4    33    34   ar
     5    34    35   ar
     6    35    29    1
     7    29    30   am
     8    30    31    2
     9    30    28    1
    10    28    42    1
    11    42    43    1
    12    43    44   ar
    13    44    45   ar
    14    45    46   ar
    15    46    47   ar
    16    47    48   ar
    17    48    49   ar
    18    49    50   ar
    19    50    51   ar
    20    28     1    1
    21     1     2   am
    22     2     3    2
    23     2     5    1
    24     5     6   ar
    25     6     7   ar
    26     7     8   ar
    27     8    12    1
    28    12    13    1
    29    13    14    1
    30    14    15    1
    31    15    18    1
    32    18    19   ar
    33    19    20   ar
    34    20    21   ar
    35    21    24    1
    36    24    25    1
    37    24    26    1
    38    24    27    1
    39    21    22   ar
    40    22    23   ar
    41    15    16    1
    42    16    17    1
    43     8     9   ar
    44     9    10   ar
    45    10    11    1
    46    35    36   ar
    47    36    37   ar
    48    37    38   ar
    49    38    33   ar
    50    51    43   ar
    51    10     5   ar
    52    51    46   ar
    53    17    12    1
    54    23    18   ar
    55    29    32    1
    56    45    52    1
    57     1     4    1
