@<TRIPOS>MOLECULE
*****
 46 51 0 0 0
SMALL
GASTEIGER

@<TRIPOS>ATOM
      1 C          60.8226   86.6054    8.3630 C.ar    1  UNL1        0.0702
      2 C          59.9833   85.5495    8.7347 C.ar    1  UNL1        0.0191
      3 C          60.2040   84.8594    9.9275 C.ar    1  UNL1        0.0356
      4 C          61.2878   85.2179   10.7503 C.ar    1  UNL1        0.1319
      5 N          62.1050   86.2329   10.3503 N.ar    1  UNL1       -0.2279
      6 C          61.9071   86.9211    9.1954 C.ar    1  UNL1        0.1149
      7 N          61.5459   84.5346   12.0007 N.pl3   1  UNL1       -0.2908
      8 C          62.8779   83.9755   12.2915 C.3     1  UNL1        0.0925
      9 C          62.8547   83.0514   13.5176 C.3     1  UNL1        0.0277
     10 C          61.6500   82.0927   13.4453 C.3     1  UNL1        0.0740
     11 C          60.2912   82.8566   13.3161 C.3     1  UNL1        0.1338
     12 O          59.5118   82.2729   12.3031 O.3     1  UNL1       -0.3826
     13 C          60.4751   84.3496   12.9927 C.3     1  UNL1        0.1214
     14 H          59.1185   81.4444   12.6820 H       1  UNL1        0.2104
     15 C          61.6560   81.1491   14.6654 C.3     1  UNL1        0.2078
     16 O          61.3561   79.8059   14.2830 O.3     1  UNL1       -0.4754
     17 C          60.5715   79.4253   13.1817 C.ar    1  UNL1        0.1388
     18 C          59.2260   79.0299   13.3047 C.ar    1  UNL1        0.0369
     19 C          58.4972   78.6584   12.1732 C.ar    1  UNL1        0.0033
     20 C          59.0955   78.6792   10.9117 C.ar    1  UNL1        0.0066
     21 C          60.4352   79.0759   10.7677 C.ar    1  UNL1        0.0785
     22 C          61.1633   79.4493   11.9125 C.ar    1  UNL1        0.0433
     23 C          61.0676   79.0983    9.4301 C.2     1  UNL1        0.3381
     24 O          60.5633   79.7793    8.4964 O.2     1  UNL1       -0.2451
     25 O          62.2276   78.3663    9.1898 O.3     1  UNL1       -0.4771
     26 H          62.6686   78.3747    8.2779 H       1  UNL1        0.2954
     27 C          60.0983   88.6369    7.0238 C.2     1  UNL1        0.2839
     28 O          59.5924   89.2002    8.0314 O.2     1  UNL1       -0.2665
     29 N          60.5955   87.2923    7.1202 N.am    1  UNL1       -0.2766
     30 H          60.7199   86.7509    6.2347 H       1  UNL1        0.1553
     31 C          57.6044   89.7739    5.3621 C.3     1  UNL1        0.0345
     32 C          59.0579   89.8425    5.0015 C.ar    1  UNL1        0.0202
     33 C          60.1440   89.3438    5.7297 C.ar    1  UNL1        0.1946
     34 O          61.2719   89.5972    5.0899 O.2     1  UNL1       -0.4492
     35 C          60.9733   90.2339    3.9839 C.ar    1  UNL1        0.1452
     36 C          61.8539   90.6943    3.0113 C.ar    1  UNL1        0.0375
     37 C          61.3164   91.3595    1.8959 C.ar    1  UNL1        0.0031
     38 C          59.9143   91.5537    1.7692 C.ar    1  UNL1        0.0002
     39 C          59.0524   91.0687    2.7821 C.ar    1  UNL1        0.0028
     40 C          59.6203   90.4128    3.8754 C.ar    1  UNL1        0.0337
     41 C          59.3580   92.2582    0.5862 C.ar    1  UNL1        0.0000
     42 C          60.1415   93.1828   -0.1302 C.ar    1  UNL1        0.0000
     43 C          59.6147   93.8454   -1.2432 C.ar    1  UNL1        0.0000
     44 C          58.3038   93.5933   -1.6535 C.ar    1  UNL1        0.0000
     45 C          57.5164   92.6781   -0.9514 C.ar    1  UNL1        0.0000
     46 C          58.0377   92.0132    0.1628 C.ar    1  UNL1        0.0000
@<TRIPOS>BOND
     1    31    32    1
     2    32    33   ar
     3    33    27    1
     4    27    28    2
     5    27    29   am
     6    29     1    1
     7     1     2   ar
     8     2     3   ar
     9     3     4   ar
    10     4     7    1
    11     7     8    1
    12     8     9    1
    13     9    10    1
    14    10    15    1
    15    15    16    1
    16    16    17    1
    17    17    18   ar
    18    18    19   ar
    19    19    20   ar
    20    20    21   ar
    21    21    23    1
    22    23    24    2
    23    23    25    1
    24    21    22   ar
    25    10    11    1
    26    11    12    1
    27    11    13    1
    28     4     5   ar
    29     5     6   ar
    30    33    34   ar
    31    34    35   ar
    32    35    36   ar
    33    36    37   ar
    34    37    38   ar
    35    38    41    1
    36    41    42   ar
    37    42    43   ar
    38    43    44   ar
    39    44    45   ar
    40    45    46   ar
    41    38    39   ar
    42    39    40   ar
    43    40    32   ar
    44     6     1   ar
    45    40    35   ar
    46    13     7    1
    47    46    41   ar
    48    22    17   ar
    49    29    30    1
    50    25    26    1
    51    12    14    1
@<TRIPOS>MOLECULE
*****
 46 51 0 0 0
SMALL
GASTEIGER

@<TRIPOS>ATOM
      1 C          59.1634   86.0247    8.0232 C.ar    1  UNL1        0.0702
      2 C          58.0660   85.1676    8.1591 C.ar    1  UNL1        0.0191
      3 C          57.9925   84.2808    9.2342 C.ar    1  UNL1        0.0356
      4 C          59.0375   84.2381   10.1756 C.ar    1  UNL1        0.1319
      5 N          60.1070   85.0657   10.0037 N.ar    1  UNL1       -0.2279
      6 C          60.1981   85.9395    8.9670 C.ar    1  UNL1        0.1149
      7 N          58.9958   83.3404   11.3111 N.pl3   1  UNL1       -0.2908
      8 C          59.9736   83.4664   12.4062 C.3     1  UNL1        0.0925
      9 C          59.9383   82.2531   13.3466 C.3     1  UNL1        0.0277
     10 C          59.9030   80.9440   12.5338 C.3     1  UNL1        0.0740
     11 C          58.6960   80.8954   11.5401 C.3     1  UNL1        0.1338
     12 O          59.1371   80.4675   10.2765 O.3     1  UNL1       -0.3826
     13 C          58.0007   82.2587   11.3795 C.3     1  UNL1        0.1214
     14 H          59.2553   79.4836   10.3294 H       1  UNL1        0.2104
     15 C          59.9000   79.7329   13.4888 C.3     1  UNL1        0.2078
     16 O          61.2260   79.3891   13.8936 O.3     1  UNL1       -0.4754
     17 C          62.3424   80.2402   13.8441 C.ar    1  UNL1        0.1388
     18 C          62.9712   80.7408   14.9999 C.ar    1  UNL1        0.0369
     19 C          64.0762   81.5869   14.8874 C.ar    1  UNL1        0.0033
     20 C          64.5678   81.9402   13.6291 C.ar    1  UNL1        0.0066
     21 C          63.9574   81.4467   12.4642 C.ar    1  UNL1        0.0785
     22 C          62.8446   80.5942   12.5854 C.ar    1  UNL1        0.0433
     23 C          64.4802   81.8213   11.1315 C.2     1  UNL1        0.3381
     24 O          64.2676   81.0835   10.1314 O.2     1  UNL1       -0.2451
     25 O          65.2130   82.9943   10.9694 O.3     1  UNL1       -0.4771
     26 H          65.5754   83.2602   10.0615 H       1  UNL1        0.2954
     27 C          59.5672   88.3115    6.9973 C.2     1  UNL1        0.2839
     28 O          59.5666   88.8857    8.1193 O.2     1  UNL1       -0.2665
     29 N          59.2352   86.9171    6.8978 N.am    1  UNL1       -0.2766
     30 H          58.9463   86.5473    5.9638 H       1  UNL1        0.1553
     31 C          57.4579   89.7209    5.0382 C.3     1  UNL1        0.0345
     32 C          58.9521   89.6990    4.9183 C.ar    1  UNL1        0.0202
     33 C          59.8697   89.0815    5.7757 C.ar    1  UNL1        0.1946
     34 O          61.1010   89.2832    5.3411 O.2     1  UNL1       -0.4492
     35 C          61.0293   89.9991    4.2456 C.ar    1  UNL1        0.1452
     36 C          62.0850   90.4434    3.4573 C.ar    1  UNL1        0.0375
     37 C          61.7815   91.2061    2.3164 C.ar    1  UNL1        0.0031
     38 C          60.4346   91.5120    1.9815 C.ar    1  UNL1        0.0002
     39 C          59.3891   91.0395    2.8108 C.ar    1  UNL1        0.0028
     40 C          59.7268   90.2849    3.9354 C.ar    1  UNL1        0.0337
     41 C          60.1262   92.3189    0.7737 C.ar    1  UNL1        0.0000
     42 C          58.8085   92.4011    0.2849 C.ar    1  UNL1        0.0000
     43 C          58.5214   93.1609   -0.8533 C.ar    1  UNL1        0.0000
     44 C          59.5427   93.8463   -1.5147 C.ar    1  UNL1        0.0000
     45 C          60.8540   93.7731   -1.0396 C.ar    1  UNL1        0.0000
     46 C          61.1471   93.0141    0.0976 C.ar    1  UNL1        0.0000
@<TRIPOS>BOND
     1    31    32    1
     2    32    33   ar
     3    33    27    1
     4    27    28    2
     5    27    29   am
     6    29     1    1
     7     1     2   ar
     8     2     3   ar
     9     3     4   ar
    10     4     7    1
    11     7     8    1
    12     8     9    1
    13     9    10    1
    14    10    15    1
    15    15    16    1
    16    16    17    1
    17    17    18   ar
    18    18    19   ar
    19    19    20   ar
    20    20    21   ar
    21    21    23    1
    22    23    24    2
    23    23    25    1
    24    21    22   ar
    25    10    11    1
    26    11    12    1
    27    11    13    1
    28     4     5   ar
    29     5     6   ar
    30    33    34   ar
    31    34    35   ar
    32    35    36   ar
    33    36    37   ar
    34    37    38   ar
    35    38    41    1
    36    41    42   ar
    37    42    43   ar
    38    43    44   ar
    39    44    45   ar
    40    45    46   ar
    41    38    39   ar
    42    39    40   ar
    43    40    32   ar
    44     6     1   ar
    45    40    35   ar
    46    13     7    1
    47    46    41   ar
    48    22    17   ar
    49    29    30    1
    50    25    26    1
    51    12    14    1
