@<TRIPOS>MOLECULE
*****
 35 39 0 0 0
SMALL
GASTEIGER

@<TRIPOS>ATOM
      1 C          50.1900    9.7594  -27.0970 C.2     1  UNL1        0.2491
      2 O          48.9812   10.1119  -27.1741 O.2     1  UNL1       -0.2699
      3 N          50.9316   10.0238  -25.8893 N.am    1  UNL1       -0.2760
      4 C          52.3350   10.4604  -25.9635 C.3     1  UNL1        0.0954
      5 C          52.6942   11.3900  -24.7904 C.3     1  UNL1        0.0399
      6 C          51.5305   12.3549  -24.4367 C.3     1  UNL1        0.0645
      7 C          50.2470   11.5411  -24.0617 C.3     1  UNL1        0.0399
      8 C          50.2392   10.0990  -24.5988 C.3     1  UNL1        0.0954
      9 C          51.2365   13.2859  -25.6710 C.3     1  UNL1        0.0477
     10 C          50.4521   14.4937  -25.2590 C.ar    1  UNL1        0.0220
     11 C          49.7133   15.3832  -26.0036 C.ar    1  UNL1        0.0923
     12 N          49.3488   16.4052  -25.1889 N.ar    1  UNL1       -0.2534
     13 N          49.8584   16.2121  -23.9751 N.ar    1  UNL1       -0.1651
     14 C          50.5293   15.0483  -24.0197 C.ar    1  UNL1        0.1515
     15 C          51.3148   14.4252  -22.9674 C.2     1  UNL1        0.2650
     16 O          51.4677   14.9797  -21.8472 O.2     1  UNL1       -0.2684
     17 N          51.9335   13.1623  -23.2587 N.am    1  UNL1       -0.3023
     18 H          52.5366   12.7307  -22.5217 H       1  UNL1        0.1497
     19 C          50.3856    6.4996  -32.2838 C.ar    1  UNL1        0.2249
     20 C          51.7612    6.5458  -32.5122 C.ar    1  UNL1        0.0577
     21 C          52.5876    7.2299  -31.6196 C.ar    1  UNL1        0.0060
     22 C          52.0380    7.8706  -30.4922 C.ar    1  UNL1        0.0140
     23 C          52.8300    8.5845  -29.5592 C.ar    1  UNL1       -0.0202
     24 C          54.3246    8.7048  -29.7152 C.3     1  UNL1        0.0311
     25 C          52.2081    9.1973  -28.4572 C.ar    1  UNL1        0.0004
     26 C          50.8216    9.1027  -28.2630 C.ar    1  UNL1        0.0548
     27 C          50.0417    8.4106  -29.1985 C.ar    1  UNL1        0.0237
     28 C          50.6376    7.7938  -30.3007 C.ar    1  UNL1        0.0842
     29 N          49.8614    7.1205  -31.1918 N.ar    1  UNL1       -0.2117
     30 C          48.1449    5.9357  -33.1726 C.3     1  UNL1        0.2542
     31 O          49.5623    5.8141  -33.1819 O.3     1  UNL1       -0.4561
     32 C          48.5752   17.5978  -25.5885 C.3     1  UNL1        0.0867
     33 C          49.4984   18.8300  -25.7046 C.3     1  UNL1        0.0244
     34 C          47.9120   17.3412  -26.9540 C.3     1  UNL1        0.0244
     35 C          47.4930   17.8917  -24.5313 C.3     1  UNL1        0.0244
@<TRIPOS>BOND
     1    30    31    1
     2    31    19    1
     3    19    20   ar
     4    20    21   ar
     5    21    22   ar
     6    22    23   ar
     7    23    24    1
     8    23    25   ar
     9    25    26   ar
    10    26     1    1
    11     1     2    2
    12     1     3   am
    13     3     4    1
    14     4     5    1
    15     5     6    1
    16     6     7    1
    17     7     8    1
    18     6     9    1
    19     9    10    1
    20    10    11   ar
    21    11    12   ar
    22    12    32    1
    23    32    33    1
    24    32    34    1
    25    32    35    1
    26    12    13   ar
    27    13    14   ar
    28    14    15    1
    29    15    16    2
    30    15    17   am
    31    26    27   ar
    32    27    28   ar
    33    28    29   ar
    34    29    19   ar
    35    28    22   ar
    36     8     3    1
    37    14    10   ar
    38    17     6    1
    39    17    18    1
@<TRIPOS>MOLECULE
*****
 35 39 0 0 0
SMALL
GASTEIGER

@<TRIPOS>ATOM
      1 C          49.8982    9.3729  -27.5082 C.2     1  UNL1        0.2491
      2 O          48.7752    9.9335  -27.6351 O.2     1  UNL1       -0.2699
      3 N          50.5933    9.4519  -26.2475 N.am    1  UNL1       -0.2760
      4 C          52.0524    9.6403  -26.2177 C.3     1  UNL1        0.0954
      5 C          52.4875   10.4417  -24.9776 C.3     1  UNL1        0.0399
      6 C          51.4854   11.5782  -24.6395 C.3     1  UNL1        0.0645
      7 C          50.0598   10.9847  -24.3829 C.3     1  UNL1        0.0399
      8 C          49.8407    9.5905  -24.9965 C.3     1  UNL1        0.0954
      9 C          51.4365   12.5985  -25.8366 C.3     1  UNL1        0.0477
     10 C          50.8450   13.9055  -25.4057 C.ar    1  UNL1        0.0220
     11 C          50.3197   14.9414  -26.1423 C.ar    1  UNL1        0.0923
     12 N          50.0827   15.9750  -25.2959 N.ar    1  UNL1       -0.2534
     13 N          50.4710   15.6439  -24.0671 N.ar    1  UNL1       -0.1651
     14 C          50.9344   14.3842  -24.1359 C.ar    1  UNL1        0.1515
     15 C          51.5310   13.5890  -23.0755 C.2     1  UNL1        0.2650
     16 O          51.7026   14.0595  -21.9202 O.2     1  UNL1       -0.2684
     17 N          51.9423   12.2515  -23.3986 N.am    1  UNL1       -0.3023
     18 H          52.4131   11.6900  -22.6526 H       1  UNL1        0.1497
     19 C          54.3723    7.1628  -31.0670 C.ar    1  UNL1        0.2249
     20 C          53.5851    6.5726  -32.0562 C.ar    1  UNL1        0.0577
     21 C          52.1941    6.6407  -31.9651 C.ar    1  UNL1        0.0060
     22 C          51.5855    7.3025  -30.8810 C.ar    1  UNL1        0.0140
     23 C          50.1791    7.3945  -30.7361 C.ar    1  UNL1       -0.0202
     24 C          49.2363    6.7847  -31.7420 C.3     1  UNL1        0.0311
     25 C          49.6460    8.0730  -29.6260 C.ar    1  UNL1        0.0004
     26 C          50.4834    8.6673  -28.6697 C.ar    1  UNL1        0.0548
     27 C          51.8731    8.5575  -28.8091 C.ar    1  UNL1        0.0237
     28 C          52.4252    7.8886  -29.9036 C.ar    1  UNL1        0.0842
     29 N          53.7773    7.8013  -30.0224 N.ar    1  UNL1       -0.2117
     30 C          56.6307    7.5056  -30.1128 C.3     1  UNL1        0.2542
     31 O          55.7650    7.0903  -31.1626 O.3     1  UNL1       -0.4561
     32 C          49.5523   17.3002  -25.6742 C.3     1  UNL1        0.0867
     33 C          48.4235   17.7282  -24.7117 C.3     1  UNL1        0.0244
     34 C          50.6853   18.3405  -25.6080 C.3     1  UNL1        0.0244
     35 C          48.9828   17.2411  -27.1051 C.3     1  UNL1        0.0244
@<TRIPOS>BOND
     1    30    31    1
     2    31    19    1
     3    19    20   ar
     4    20    21   ar
     5    21    22   ar
     6    22    23   ar
     7    23    24    1
     8    23    25   ar
     9    25    26   ar
    10    26     1    1
    11     1     2    2
    12     1     3   am
    13     3     4    1
    14     4     5    1
    15     5     6    1
    16     6     7    1
    17     7     8    1
    18     6     9    1
    19     9    10    1
    20    10    11   ar
    21    11    12   ar
    22    12    32    1
    23    32    33    1
    24    32    34    1
    25    32    35    1
    26    12    13   ar
    27    13    14   ar
    28    14    15    1
    29    15    16    2
    30    15    17   am
    31    26    27   ar
    32    27    28   ar
    33    28    29   ar
    34    29    19   ar
    35    28    22   ar
    36     8     3    1
    37    14    10   ar
    38    17     6    1
    39    17    18    1
@<TRIPOS>MOLECULE
*****
 35 39 0 0 0
SMALL
GASTEIGER

@<TRIPOS>ATOM
      1 C          47.0924   13.5755  -23.3727 C.2     1  UNL1        0.2491
      2 O          46.1968   13.7678  -22.5053 O.2     1  UNL1       -0.2699
      3 N          47.8136   12.3273  -23.3847 N.am    1  UNL1       -0.2760
      4 C          49.2590   12.3105  -23.6604 C.3     1  UNL1        0.0954
      5 C          49.9580   11.1619  -22.9111 C.3     1  UNL1        0.0399
      6 C          49.3703   10.9534  -21.4894 C.3     1  UNL1        0.0645
      7 C          47.8388   10.6415  -21.5767 C.3     1  UNL1        0.0399
      8 C          47.1784   11.1023  -22.8881 C.3     1  UNL1        0.0954
      9 C          49.6072   12.2538  -20.6353 C.3     1  UNL1        0.0477
     10 C          49.4653   11.9693  -19.1715 C.ar    1  UNL1        0.0220
     11 C          49.2679   12.8160  -18.1058 C.ar    1  UNL1        0.0923
     12 N          49.3895   12.0872  -16.9678 N.ar    1  UNL1       -0.2534
     13 N          49.6908   10.8279  -17.2741 N.ar    1  UNL1       -0.1651
     14 C          49.7362   10.7582  -18.6155 C.ar    1  UNL1        0.1515
     15 C          50.0857    9.6152  -19.4426 C.2     1  UNL1        0.2650
     16 O          50.4288    8.5165  -18.9320 O.2     1  UNL1       -0.2684
     17 N          50.0501    9.7900  -20.8677 N.am    1  UNL1       -0.3023
     18 H          50.3438    8.9855  -21.4675 H       1  UNL1        0.1497
     19 C          50.3830   18.0673  -25.9345 C.ar    1  UNL1        0.2249
     20 C          49.5103   18.4067  -26.9689 C.ar    1  UNL1        0.0577
     21 C          48.3038   17.7195  -27.1091 C.ar    1  UNL1        0.0060
     22 C          47.9661   16.6881  -26.2113 C.ar    1  UNL1        0.0140
     23 C          46.7585   15.9541  -26.3127 C.ar    1  UNL1       -0.0202
     24 C          45.7494   16.2326  -27.3975 C.3     1  UNL1        0.0311
     25 C          46.4913   14.9389  -25.3774 C.ar    1  UNL1        0.0004
     26 C          47.3945   14.6512  -24.3428 C.ar    1  UNL1        0.0548
     27 C          48.5950   15.3684  -24.2586 C.ar    1  UNL1        0.0237
     28 C          48.8816   16.3814  -25.1762 C.ar    1  UNL1        0.0842
     29 N          50.0498   17.0700  -25.0702 N.ar    1  UNL1       -0.2117
     30 C          52.4524   18.5894  -24.6802 C.3     1  UNL1        0.2542
     31 O          51.5907   18.7581  -25.7996 O.3     1  UNL1       -0.4561
     32 C          49.2880   12.6089  -15.5901 C.3     1  UNL1        0.0867
     33 C          48.6465   11.5586  -14.6577 C.3     1  UNL1        0.0244
     34 C          50.6964   12.9457  -15.0675 C.3     1  UNL1        0.0244
     35 C          48.4118   13.8768  -15.5794 C.3     1  UNL1        0.0244
@<TRIPOS>BOND
     1    30    31    1
     2    31    19    1
     3    19    20   ar
     4    20    21   ar
     5    21    22   ar
     6    22    23   ar
     7    23    24    1
     8    23    25   ar
     9    25    26   ar
    10    26     1    1
    11     1     2    2
    12     1     3   am
    13     3     4    1
    14     4     5    1
    15     5     6    1
    16     6     7    1
    17     7     8    1
    18     6     9    1
    19     9    10    1
    20    10    11   ar
    21    11    12   ar
    22    12    32    1
    23    32    33    1
    24    32    34    1
    25    32    35    1
    26    12    13   ar
    27    13    14   ar
    28    14    15    1
    29    15    16    2
    30    15    17   am
    31    26    27   ar
    32    27    28   ar
    33    28    29   ar
    34    29    19   ar
    35    28    22   ar
    36     8     3    1
    37    14    10   ar
    38    17     6    1
    39    17    18    1
@<TRIPOS>MOLECULE
*****
 35 39 0 0 0
SMALL
GASTEIGER

@<TRIPOS>ATOM
      1 C          49.4157   12.1929  -19.2594 C.2     1  UNL1        0.2491
      2 O          50.4757   12.4707  -19.8843 O.2     1  UNL1       -0.2699
      3 N          48.3502   11.5003  -19.9403 N.am    1  UNL1       -0.2760
      4 C          46.9484   11.8735  -19.6930 C.3     1  UNL1        0.0954
      5 C          46.0818   11.6534  -20.9459 C.3     1  UNL1        0.0399
      6 C          46.8365   12.0336  -22.2483 C.3     1  UNL1        0.0645
      7 C          48.1449   11.1850  -22.3835 C.3     1  UNL1        0.0399
      8 C          48.6509   10.5960  -21.0549 C.3     1  UNL1        0.0954
      9 C          47.1900   13.5667  -22.2131 C.3     1  UNL1        0.0477
     10 C          47.5145   14.0756  -23.5840 C.ar    1  UNL1        0.0220
     11 C          48.1698   15.2151  -23.9885 C.ar    1  UNL1        0.0923
     12 N          48.0468   15.3090  -25.3365 N.ar    1  UNL1       -0.2534
     13 N          47.3116   14.2967  -25.7894 N.ar    1  UNL1       -0.1651
     14 C          46.9888   13.5472  -24.7215 C.ar    1  UNL1        0.1515
     15 C          46.1449   12.3646  -24.6781 C.2     1  UNL1        0.2650
     16 O          45.5787   11.9245  -25.7132 O.2     1  UNL1       -0.2684
     17 N          45.9584   11.7272  -23.4047 N.am    1  UNL1       -0.3023
     18 H          45.3166   10.9030  -23.3586 H       1  UNL1        0.1497
     19 C          47.0221   15.2020  -14.4862 C.ar    1  UNL1        0.2249
     20 C          47.8642   14.7169  -13.4851 C.ar    1  UNL1        0.0577
     21 C          48.8714   13.8070  -13.8096 C.ar    1  UNL1        0.0060
     22 C          49.0395   13.3796  -15.1412 C.ar    1  UNL1        0.0140
     23 C          50.0403   12.4525  -15.5237 C.ar    1  UNL1       -0.0202
     24 C          50.9974   11.8594  -14.5213 C.3     1  UNL1        0.0311
     25 C          50.1465   12.0747  -16.8739 C.ar    1  UNL1        0.0004
     26 C          49.2863   12.6090  -17.8453 C.ar    1  UNL1        0.0548
     27 C          48.2873   13.5115  -17.4579 C.ar    1  UNL1        0.0237
     28 C          48.1632   13.9015  -16.1226 C.ar    1  UNL1        0.0842
     29 N          47.1908   14.7851  -15.7709 N.ar    1  UNL1       -0.2117
     30 C          45.0092   16.5160  -15.0776 C.3     1  UNL1        0.2542
     31 O          46.0141   16.1122  -14.1551 O.3     1  UNL1       -0.4561
     32 C          48.5709   16.4018  -26.1800 C.3     1  UNL1        0.0867
     33 C          48.6366   17.7211  -25.3805 C.3     1  UNL1        0.0244
     34 C          49.9876   16.0395  -26.6616 C.3     1  UNL1        0.0244
     35 C          47.6452   16.6083  -27.3948 C.3     1  UNL1        0.0244
@<TRIPOS>BOND
     1    30    31    1
     2    31    19    1
     3    19    20   ar
     4    20    21   ar
     5    21    22   ar
     6    22    23   ar
     7    23    24    1
     8    23    25   ar
     9    25    26   ar
    10    26     1    1
    11     1     2    2
    12     1     3   am
    13     3     4    1
    14     4     5    1
    15     5     6    1
    16     6     7    1
    17     7     8    1
    18     6     9    1
    19     9    10    1
    20    10    11   ar
    21    11    12   ar
    22    12    32    1
    23    32    33    1
    24    32    34    1
    25    32    35    1
    26    12    13   ar
    27    13    14   ar
    28    14    15    1
    29    15    16    2
    30    15    17   am
    31    26    27   ar
    32    27    28   ar
    33    28    29   ar
    34    29    19   ar
    35    28    22   ar
    36     8     3    1
    37    14    10   ar
    38    17     6    1
    39    17    18    1
@<TRIPOS>MOLECULE
*****
 35 39 0 0 0
SMALL
GASTEIGER

@<TRIPOS>ATOM
      1 C          49.9116   12.9223  -24.0864 C.2     1  UNL1        0.2491
      2 O          50.5187   13.8302  -23.4550 O.2     1  UNL1       -0.2699
      3 N          48.5291   12.6485  -23.7829 N.am    1  UNL1       -0.2760
      4 C          48.0392   11.2612  -23.7512 C.3     1  UNL1        0.0954
      5 C          46.9021   11.0930  -22.7276 C.3     1  UNL1        0.0399
      6 C          47.1496   11.9274  -21.4420 C.3     1  UNL1        0.0645
      7 C          47.2872   13.4452  -21.7995 C.3     1  UNL1        0.0399
      8 C          47.6611   13.7125  -23.2681 C.3     1  UNL1        0.0954
      9 C          48.4625   11.4184  -20.7393 C.3     1  UNL1        0.0477
     10 C          48.5170   11.8672  -19.3112 C.ar    1  UNL1        0.0220
     11 C          49.5717   11.9426  -18.4318 C.ar    1  UNL1        0.0923
     12 N          49.0705   12.2383  -17.2060 N.ar    1  UNL1       -0.2534
     13 N          47.7440   12.3153  -17.2727 N.ar    1  UNL1       -0.1651
     14 C          47.4090   12.0894  -18.5546 C.ar    1  UNL1        0.1515
     15 C          46.0778   12.0039  -19.1318 C.2     1  UNL1        0.2650
     16 O          45.0455   12.1154  -18.4194 O.2     1  UNL1       -0.2684
     17 N          45.9798   11.7622  -20.5441 N.am    1  UNL1       -0.3023
     18 H          45.0255   11.6547  -20.9577 H       1  UNL1        0.1497
     19 C          50.6198    8.8375  -28.6009 C.ar    1  UNL1        0.2249
     20 C          51.9885    8.9975  -28.8195 C.ar    1  UNL1        0.0577
     21 C          52.7077    9.9178  -28.0558 C.ar    1  UNL1        0.0060
     22 C          52.0573   10.6821  -27.0675 C.ar    1  UNL1        0.0140
     23 C          52.7379   11.6350  -26.2698 C.ar    1  UNL1       -0.0202
     24 C          54.2145   11.8935  -26.4293 C.3     1  UNL1        0.0311
     25 C          52.0196   12.3593  -25.3023 C.ar    1  UNL1        0.0004
     26 C          50.6464   12.1448  -25.1087 C.ar    1  UNL1        0.0548
     27 C          49.9755   11.2143  -25.9128 C.ar    1  UNL1        0.0237
     28 C          50.6685   10.4830  -26.8800 C.ar    1  UNL1        0.0842
     29 N          49.9979    9.5791  -27.6437 N.ar    1  UNL1       -0.2117
     30 C          50.2927    7.5465  -30.6877 C.3     1  UNL1        0.2542
     31 O          49.9041    7.9152  -29.3697 O.3     1  UNL1       -0.4561
     32 C          49.8524   12.3767  -15.9610 C.3     1  UNL1        0.0867
     33 C          49.7624   11.0867  -15.1171 C.3     1  UNL1        0.0244
     34 C          51.3279   12.6408  -16.3123 C.3     1  UNL1        0.0244
     35 C          49.2977   13.5489  -15.1283 C.3     1  UNL1        0.0244
@<TRIPOS>BOND
     1    30    31    1
     2    31    19    1
     3    19    20   ar
     4    20    21   ar
     5    21    22   ar
     6    22    23   ar
     7    23    24    1
     8    23    25   ar
     9    25    26   ar
    10    26     1    1
    11     1     2    2
    12     1     3   am
    13     3     4    1
    14     4     5    1
    15     5     6    1
    16     6     7    1
    17     7     8    1
    18     6     9    1
    19     9    10    1
    20    10    11   ar
    21    11    12   ar
    22    12    32    1
    23    32    33    1
    24    32    34    1
    25    32    35    1
    26    12    13   ar
    27    13    14   ar
    28    14    15    1
    29    15    16    2
    30    15    17   am
    31    26    27   ar
    32    27    28   ar
    33    28    29   ar
    34    29    19   ar
    35    28    22   ar
    36     8     3    1
    37    14    10   ar
    38    17     6    1
    39    17    18    1
