@<TRIPOS>MOLECULE
*****
 47 52 0 0 0
SMALL
GASTEIGER

@<TRIPOS>ATOM
      1 C          11.9919   80.7855   25.0609 C.ar    1  UNL1        0.0832
      2 C          11.3225   81.9557   24.6751 C.ar    1  UNL1        0.1161
      3 N          12.0213   83.0397   24.2518 N.ar    1  UNL1       -0.2278
      4 C          13.3805   83.0511   24.1742 C.ar    1  UNL1        0.1330
      5 C          14.0890   81.8933   24.5426 C.ar    1  UNL1        0.0496
      6 C          13.3992   80.7571   24.9873 C.ar    1  UNL1        0.0595
      7 N          14.1441   79.6005   25.3916 N.pl3   1  UNL1       -0.3559
      8 H          15.1835   79.5780   25.2918 H       1  UNL1        0.1424
      9 H          13.6878   78.7795   25.8453 H       1  UNL1        0.1424
     10 N          14.0651   84.2451   23.7249 N.pl3   1  UNL1       -0.2932
     11 C          13.6628   85.5746   24.2186 C.3     1  UNL1        0.0923
     12 C          14.2747   86.7068   23.3801 C.3     1  UNL1        0.0252
     13 C          14.1767   86.3674   21.8819 C.3     1  UNL1        0.0472
     14 C          14.9240   85.0482   21.5426 C.3     1  UNL1        0.0252
     15 C          15.1797   84.1552   22.7682 C.3     1  UNL1        0.0923
     16 C          14.6872   87.5375   21.0287 C.3     1  UNL1        0.2054
     17 O          13.7920   87.7706   19.9430 O.3     1  UNL1       -0.4755
     18 C          14.0684   87.4602   18.6034 C.ar    1  UNL1        0.1388
     19 C          14.0485   88.4982   17.6662 C.ar    1  UNL1        0.0369
     20 C          14.3162   88.2423   16.3205 C.ar    1  UNL1        0.0033
     21 C          14.6071   86.9439   15.8970 C.ar    1  UNL1        0.0066
     22 C          14.6333   85.8838   16.8204 C.ar    1  UNL1        0.0785
     23 C          14.3625   86.1501   18.1752 C.ar    1  UNL1        0.0433
     24 C          14.9415   84.5059   16.3762 C.2     1  UNL1        0.3381
     25 O          15.9630   83.9082   16.8110 O.2     1  UNL1       -0.2451
     26 O          14.1052   83.8556   15.4723 O.3     1  UNL1       -0.4771
     27 H          14.3073   82.9126   15.1621 H       1  UNL1        0.2954
     28 C          10.2637   79.6336   26.5008 C.2     1  UNL1        0.2840
     29 O          10.1496   80.6429   27.2477 O.2     1  UNL1       -0.2665
     30 N          11.2463   79.6206   25.4532 N.am    1  UNL1       -0.2757
     31 H          11.4425   78.7181   24.9652 H       1  UNL1        0.1553
     32 C           8.1432   79.2066   28.8654 C.3     1  UNL1        0.0345
     33 C           8.4798   78.2625   27.7508 C.ar    1  UNL1        0.0202
     34 C           9.4072   78.4525   26.7202 C.ar    1  UNL1        0.1946
     35 O           9.4236   77.3963   25.9266 O.2     1  UNL1       -0.4492
     36 C           8.5552   76.5309   26.3896 C.ar    1  UNL1        0.1452
     37 C           8.2461   75.2816   25.8632 C.ar    1  UNL1        0.0375
     38 C           7.2740   74.5096   26.5226 C.ar    1  UNL1        0.0031
     39 C           6.6284   74.9947   27.6921 C.ar    1  UNL1        0.0002
     40 C           6.9730   76.2722   28.1955 C.ar    1  UNL1        0.0028
     41 C           7.9424   77.0114   27.5157 C.ar    1  UNL1        0.0337
     42 C           5.6029   74.1702   28.3802 C.ar    1  UNL1        0.0000
     43 C           4.9107   74.6745   29.4977 C.ar    1  UNL1        0.0000
     44 C           3.9455   73.8958   30.1436 C.ar    1  UNL1        0.0000
     45 C           3.6596   72.6089   29.6828 C.ar    1  UNL1        0.0000
     46 C           4.3389   72.0974   28.5749 C.ar    1  UNL1        0.0000
     47 C           5.3058   72.8712   27.9256 C.ar    1  UNL1        0.0000
@<TRIPOS>BOND
     1    32    33    1
     2    33    34   ar
     3    34    28    1
     4    28    29    2
     5    28    30   am
     6    30     1    1
     7     1     2   ar
     8     2     3   ar
     9     3     4   ar
    10     4    10    1
    11    10    11    1
    12    11    12    1
    13    12    13    1
    14    13    16    1
    15    16    17    1
    16    17    18    1
    17    18    19   ar
    18    19    20   ar
    19    20    21   ar
    20    21    22   ar
    21    22    24    1
    22    24    25    2
    23    24    26    1
    24    22    23   ar
    25    13    14    1
    26    14    15    1
    27     4     5   ar
    28     5     6   ar
    29     6     7    1
    30    34    35   ar
    31    35    36   ar
    32    36    37   ar
    33    37    38   ar
    34    38    39   ar
    35    39    42    1
    36    42    43   ar
    37    43    44   ar
    38    44    45   ar
    39    45    46   ar
    40    46    47   ar
    41    39    40   ar
    42    40    41   ar
    43    41    33   ar
    44     6     1   ar
    45    41    36   ar
    46    15    10    1
    47    47    42   ar
    48    23    18   ar
    49    30    31    1
    50    26    27    1
    51     7     8    1
    52     7     9    1
@<TRIPOS>MOLECULE
*****
 47 52 0 0 0
SMALL
GASTEIGER

@<TRIPOS>ATOM
      1 C          10.6405   81.0398   24.6771 C.ar    1  UNL1        0.0832
      2 C          10.2132   80.2920   23.5705 C.ar    1  UNL1        0.1161
      3 N           9.4864   79.1590   23.7455 N.ar    1  UNL1       -0.2278
      4 C           9.1341   78.6970   24.9768 C.ar    1  UNL1        0.1330
      5 C           9.5348   79.4240   26.1124 C.ar    1  UNL1        0.0496
      6 C          10.2889   80.5965   25.9681 C.ar    1  UNL1        0.0595
      7 N          10.7165   81.3017   27.1410 N.pl3   1  UNL1       -0.3559
      8 H          10.4132   80.9859   28.0893 H       1  UNL1        0.1424
      9 H          11.3807   82.1045   27.0924 H       1  UNL1        0.1424
     10 N           8.3672   77.4746   25.0939 N.pl3   1  UNL1       -0.2932
     11 C           8.9031   76.3175   25.8336 C.3     1  UNL1        0.0923
     12 C           8.1003   75.0378   25.5557 C.3     1  UNL1        0.0252
     13 C           7.7860   74.9268   24.0529 C.3     1  UNL1        0.0472
     14 C           6.9598   76.1420   23.5485 C.3     1  UNL1        0.0252
     15 C           7.0346   77.3637   24.4795 C.3     1  UNL1        0.0923
     16 C           7.0773   73.5995   23.7461 C.3     1  UNL1        0.2054
     17 O           7.6402   73.0104   22.5754 O.3     1  UNL1       -0.4755
     18 C           9.0099   72.9929   22.2738 C.ar    1  UNL1        0.1388
     19 C           9.6899   71.7736   22.3570 C.ar    1  UNL1        0.0369
     20 C          11.0535   71.7022   22.0675 C.ar    1  UNL1        0.0033
     21 C          11.7525   72.8510   21.6913 C.ar    1  UNL1        0.0066
     22 C          11.0908   74.0883   21.6003 C.ar    1  UNL1        0.0785
     23 C           9.7161   74.1518   21.8936 C.ar    1  UNL1        0.0433
     24 C          11.8275   75.3086   21.2016 C.2     1  UNL1        0.3381
     25 O          12.0595   76.2182   22.0435 O.2     1  UNL1       -0.2451
     26 O          12.2720   75.4642   19.8911 O.3     1  UNL1       -0.4771
     27 H          12.7771   76.2956   19.6082 H       1  UNL1        0.2954
     28 C          12.7487   82.4263   24.8180 C.2     1  UNL1        0.2840
     29 O          13.3480   81.5285   25.4693 O.2     1  UNL1       -0.2665
     30 N          11.3601   82.2696   24.4858 N.am    1  UNL1       -0.2757
     31 H          10.8429   83.0931   24.1044 H       1  UNL1        0.1553
     32 C          15.5254   82.6025   23.2275 C.3     1  UNL1        0.0345
     33 C          14.6777   83.7341   23.7257 C.ar    1  UNL1        0.0202
     34 C          13.4658   83.6530   24.4206 C.ar    1  UNL1        0.1946
     35 O          13.0171   84.8661   24.6899 O.2     1  UNL1       -0.4492
     36 C          13.8758   85.7299   24.2062 C.ar    1  UNL1        0.1452
     37 C          13.7997   87.1172   24.2621 C.ar    1  UNL1        0.0375
     38 C          14.8376   87.8595   23.6725 C.ar    1  UNL1        0.0031
     39 C          15.9304   87.2082   23.0391 C.ar    1  UNL1        0.0002
     40 C          15.9696   85.7935   23.0047 C.ar    1  UNL1        0.0028
     41 C          14.9225   85.0883   23.6001 C.ar    1  UNL1        0.0337
     42 C          17.0210   88.0030   22.4195 C.ar    1  UNL1        0.0000
     43 C          18.2312   88.2156   23.1069 C.ar    1  UNL1        0.0000
     44 C          19.2565   88.9644   22.5209 C.ar    1  UNL1        0.0000
     45 C          19.0872   89.5073   21.2455 C.ar    1  UNL1        0.0000
     46 C          17.8917   89.3030   20.5530 C.ar    1  UNL1        0.0000
     47 C          16.8626   88.5559   21.1344 C.ar    1  UNL1        0.0000
@<TRIPOS>BOND
     1    32    33    1
     2    33    34   ar
     3    34    28    1
     4    28    29    2
     5    28    30   am
     6    30     1    1
     7     1     2   ar
     8     2     3   ar
     9     3     4   ar
    10     4    10    1
    11    10    11    1
    12    11    12    1
    13    12    13    1
    14    13    16    1
    15    16    17    1
    16    17    18    1
    17    18    19   ar
    18    19    20   ar
    19    20    21   ar
    20    21    22   ar
    21    22    24    1
    22    24    25    2
    23    24    26    1
    24    22    23   ar
    25    13    14    1
    26    14    15    1
    27     4     5   ar
    28     5     6   ar
    29     6     7    1
    30    34    35   ar
    31    35    36   ar
    32    36    37   ar
    33    37    38   ar
    34    38    39   ar
    35    39    42    1
    36    42    43   ar
    37    43    44   ar
    38    44    45   ar
    39    45    46   ar
    40    46    47   ar
    41    39    40   ar
    42    40    41   ar
    43    41    33   ar
    44     6     1   ar
    45    41    36   ar
    46    15    10    1
    47    47    42   ar
    48    23    18   ar
    49    30    31    1
    50    26    27    1
    51     7     8    1
    52     7     9    1
@<TRIPOS>MOLECULE
*****
 47 52 0 0 0
SMALL
GASTEIGER

@<TRIPOS>ATOM
      1 C          11.9769   80.7371   25.1811 C.ar    1  UNL1        0.0832
      2 C          11.3398   81.9651   24.9520 C.ar    1  UNL1        0.1161
      3 N          12.0607   83.0569   24.5904 N.ar    1  UNL1       -0.2278
      4 C          13.4120   83.0221   24.4281 C.ar    1  UNL1        0.1330
      5 C          14.0877   81.8066   24.6388 C.ar    1  UNL1        0.0496
      6 C          13.3747   80.6605   25.0160 C.ar    1  UNL1        0.0595
      7 N          14.0888   79.4414   25.2600 N.pl3   1  UNL1       -0.3559
      8 H          15.1184   79.3877   25.0928 H       1  UNL1        0.1424
      9 H          13.6235   78.5985   25.6614 H       1  UNL1        0.1424
     10 N          14.1223   84.2264   24.0522 N.pl3   1  UNL1       -0.2932
     11 C          13.9408   85.4762   24.8127 C.3     1  UNL1        0.0923
     12 C          14.5074   86.6910   24.0628 C.3     1  UNL1        0.0252
     13 C          14.1230   86.6197   22.5740 C.3     1  UNL1        0.0472
     14 C          14.6703   85.3304   21.9015 C.3     1  UNL1        0.0252
     15 C          15.0435   84.2262   22.9045 C.3     1  UNL1        0.0923
     16 C          14.5915   87.8812   21.8343 C.3     1  UNL1        0.2054
     17 O          15.9568   87.7360   21.4481 O.3     1  UNL1       -0.4755
     18 C          17.0443   88.2713   22.1538 C.ar    1  UNL1        0.1388
     19 C          18.1049   88.8148   21.4217 C.ar    1  UNL1        0.0369
     20 C          19.2109   89.3596   22.0759 C.ar    1  UNL1        0.0033
     21 C          19.2683   89.3669   23.4711 C.ar    1  UNL1        0.0066
     22 C          18.2143   88.8266   24.2289 C.ar    1  UNL1        0.0785
     23 C          17.1028   88.2793   23.5619 C.ar    1  UNL1        0.0433
     24 C          18.2705   88.8323   25.7080 C.2     1  UNL1        0.3381
     25 O          17.4412   89.5076   26.3760 O.2     1  UNL1       -0.2451
     26 O          19.2411   88.0910   26.3771 O.3     1  UNL1       -0.4771
     27 H          19.2881   88.0882   27.3890 H       1  UNL1        0.2954
     28 C          10.2285   79.5435   26.5613 C.2     1  UNL1        0.2840
     29 O          10.1453   80.5075   27.3696 O.2     1  UNL1       -0.2665
     30 N          11.2037   79.5698   25.5072 N.am    1  UNL1       -0.2757
     31 H          11.3733   78.6943   24.9632 H       1  UNL1        0.1553
     32 C           8.3317   78.8794   29.0576 C.3     1  UNL1        0.0345
     33 C           8.5129   78.0803   27.8024 C.ar    1  UNL1        0.0202
     34 C           9.3429   78.3734   26.7146 C.ar    1  UNL1        0.1946
     35 O           9.2318   77.4316   25.7946 O.2     1  UNL1       -0.4492
     36 C           8.3731   76.5424   26.2299 C.ar    1  UNL1        0.1452
     37 C           7.9556   75.3850   25.5824 C.ar    1  UNL1        0.0375
     38 C           7.0174   74.5659   26.2341 C.ar    1  UNL1        0.0031
     39 C           6.5129   74.9135   27.5164 C.ar    1  UNL1        0.0002
     40 C           6.9648   76.1008   28.1412 C.ar    1  UNL1        0.0028
     41 C           7.8967   76.8901   27.4655 C.ar    1  UNL1        0.0337
     42 C           5.5220   74.0404   28.1952 C.ar    1  UNL1        0.0000
     43 C           5.3322   72.7105   27.7736 C.ar    1  UNL1        0.0000
     44 C           4.3983   71.8907   28.4146 C.ar    1  UNL1        0.0000
     45 C           3.6458   72.3864   29.4815 C.ar    1  UNL1        0.0000
     46 C           3.8252   73.7036   29.9096 C.ar    1  UNL1        0.0000
     47 C           4.7569   74.5283   29.2717 C.ar    1  UNL1        0.0000
@<TRIPOS>BOND
     1    32    33    1
     2    33    34   ar
     3    34    28    1
     4    28    29    2
     5    28    30   am
     6    30     1    1
     7     1     2   ar
     8     2     3   ar
     9     3     4   ar
    10     4    10    1
    11    10    11    1
    12    11    12    1
    13    12    13    1
    14    13    16    1
    15    16    17    1
    16    17    18    1
    17    18    19   ar
    18    19    20   ar
    19    20    21   ar
    20    21    22   ar
    21    22    24    1
    22    24    25    2
    23    24    26    1
    24    22    23   ar
    25    13    14    1
    26    14    15    1
    27     4     5   ar
    28     5     6   ar
    29     6     7    1
    30    34    35   ar
    31    35    36   ar
    32    36    37   ar
    33    37    38   ar
    34    38    39   ar
    35    39    42    1
    36    42    43   ar
    37    43    44   ar
    38    44    45   ar
    39    45    46   ar
    40    46    47   ar
    41    39    40   ar
    42    40    41   ar
    43    41    33   ar
    44     6     1   ar
    45    41    36   ar
    46    15    10    1
    47    47    42   ar
    48    23    18   ar
    49    30    31    1
    50    26    27    1
    51     7     8    1
    52     7     9    1
@<TRIPOS>MOLECULE
*****
 47 52 0 0 0
SMALL
GASTEIGER

@<TRIPOS>ATOM
      1 C          11.9514   80.7499   25.1532 C.ar    1  UNL1        0.0832
      2 C          11.3068   81.9694   24.9014 C.ar    1  UNL1        0.1161
      3 N          12.0226   83.0625   24.5337 N.ar    1  UNL1       -0.2278
      4 C          13.3758   83.0371   24.3866 C.ar    1  UNL1        0.1330
      5 C          14.0592   81.8301   24.6203 C.ar    1  UNL1        0.0496
      6 C          13.3515   80.6829   25.0044 C.ar    1  UNL1        0.0595
      7 N          14.0730   79.4730   25.2719 N.pl3   1  UNL1       -0.3559
      8 H          15.1048   79.4259   25.1166 H       1  UNL1        0.1424
      9 H          13.6102   78.6315   25.6789 H       1  UNL1        0.1424
     10 N          14.0803   84.2423   24.0030 N.pl3   1  UNL1       -0.2932
     11 C          13.9673   85.4701   24.8111 C.3     1  UNL1        0.0923
     12 C          14.5049   86.6997   24.0639 C.3     1  UNL1        0.0252
     13 C          14.0262   86.6805   22.6011 C.3     1  UNL1        0.0472
     14 C          14.5090   85.4054   21.8563 C.3     1  UNL1        0.0252
     15 C          14.9271   84.2651   22.7996 C.3     1  UNL1        0.0923
     16 C          14.4672   87.9579   21.8718 C.3     1  UNL1        0.2054
     17 O          14.6541   87.6824   20.4849 O.3     1  UNL1       -0.4755
     18 C          13.8248   88.1612   19.4600 C.ar    1  UNL1        0.1388
     19 C          12.5368   88.5894   19.7972 C.ar    1  UNL1        0.0369
     20 C          11.6720   89.0742   18.8147 C.ar    1  UNL1        0.0033
     21 C          12.0865   89.1359   17.4827 C.ar    1  UNL1        0.0066
     22 C          13.3767   88.7114   17.1191 C.ar    1  UNL1        0.0785
     23 C          14.2425   88.2242   18.1155 C.ar    1  UNL1        0.0433
     24 C          13.8207   88.7753   15.7086 C.2     1  UNL1        0.3381
     25 O          12.9787   88.9076   14.7794 O.2     1  UNL1       -0.2451
     26 O          15.1745   88.6897   15.3935 O.3     1  UNL1       -0.4771
     27 H          15.4886   88.7323   14.4314 H       1  UNL1        0.2954
     28 C          10.1841   79.5647   26.5164 C.2     1  UNL1        0.2840
     29 O          10.0698   80.5446   27.3013 O.2     1  UNL1       -0.2665
     30 N          11.1844   79.5803   25.4858 N.am    1  UNL1       -0.2757
     31 H          11.3775   78.6956   24.9652 H       1  UNL1        0.1553
     32 C           8.3356   78.8640   29.0388 C.3     1  UNL1        0.0345
     33 C           8.4999   78.0782   27.7728 C.ar    1  UNL1        0.0202
     34 C           9.3089   78.3873   26.6736 C.ar    1  UNL1        0.1946
     35 O           9.1879   77.4537   25.7466 O.2     1  UNL1       -0.4492
     36 C           8.3427   76.5547   26.1881 C.ar    1  UNL1        0.1452
     37 C           7.9214   75.4008   25.5367 C.ar    1  UNL1        0.0375
     38 C           7.0000   74.5692   26.1966 C.ar    1  UNL1        0.0031
     39 C           6.5158   74.9011   27.4908 C.ar    1  UNL1        0.0002
     40 C           6.9708   76.0853   28.1192 C.ar    1  UNL1        0.0028
     41 C           7.8857   76.8873   27.4351 C.ar    1  UNL1        0.0337
     42 C           5.5425   74.0149   28.1782 C.ar    1  UNL1        0.0000
     43 C           5.3883   72.6740   27.7775 C.ar    1  UNL1        0.0000
     44 C           4.4710   71.8419   28.4266 C.ar    1  UNL1        0.0000
     45 C           3.6999   72.3362   29.4808 C.ar    1  UNL1        0.0000
     46 C           3.8440   73.6642   29.8881 C.ar    1  UNL1        0.0000
     47 C           4.7590   74.5013   29.2420 C.ar    1  UNL1        0.0000
@<TRIPOS>BOND
     1    32    33    1
     2    33    34   ar
     3    34    28    1
     4    28    29    2
     5    28    30   am
     6    30     1    1
     7     1     2   ar
     8     2     3   ar
     9     3     4   ar
    10     4    10    1
    11    10    11    1
    12    11    12    1
    13    12    13    1
    14    13    16    1
    15    16    17    1
    16    17    18    1
    17    18    19   ar
    18    19    20   ar
    19    20    21   ar
    20    21    22   ar
    21    22    24    1
    22    24    25    2
    23    24    26    1
    24    22    23   ar
    25    13    14    1
    26    14    15    1
    27     4     5   ar
    28     5     6   ar
    29     6     7    1
    30    34    35   ar
    31    35    36   ar
    32    36    37   ar
    33    37    38   ar
    34    38    39   ar
    35    39    42    1
    36    42    43   ar
    37    43    44   ar
    38    44    45   ar
    39    45    46   ar
    40    46    47   ar
    41    39    40   ar
    42    40    41   ar
    43    41    33   ar
    44     6     1   ar
    45    41    36   ar
    46    15    10    1
    47    47    42   ar
    48    23    18   ar
    49    30    31    1
    50    26    27    1
    51     7     8    1
    52     7     9    1
@<TRIPOS>MOLECULE
*****
 47 52 0 0 0
SMALL
GASTEIGER

@<TRIPOS>ATOM
      1 C          11.7387   80.5449   25.1468 C.ar    1  UNL1        0.0832
      2 C          13.1356   80.4280   25.1104 C.ar    1  UNL1        0.1161
      3 N          13.9037   81.4791   24.7260 N.ar    1  UNL1       -0.2278
      4 C          13.3747   82.6811   24.3671 C.ar    1  UNL1        0.1330
      5 C          11.9778   82.8424   24.3998 C.ar    1  UNL1        0.0496
      6 C          11.1546   81.7768   24.7887 C.ar    1  UNL1        0.0595
      7 N           9.7317   81.9531   24.7801 N.pl3   1  UNL1       -0.3559
      8 H           9.3143   82.8834   24.5538 H       1  UNL1        0.1424
      9 H           9.0749   81.1586   24.9393 H       1  UNL1        0.1424
     10 N          14.2504   83.7583   23.9559 N.pl3   1  UNL1       -0.2932
     11 C          14.1877   85.0740   24.6179 C.3     1  UNL1        0.0923
     12 C          14.9423   86.1513   23.8247 C.3     1  UNL1        0.0252
     13 C          14.6319   86.0168   22.3230 C.3     1  UNL1        0.0472
     14 C          15.0471   84.6240   21.7740 C.3     1  UNL1        0.0252
     15 C          15.2240   83.5602   22.8703 C.3     1  UNL1        0.0923
     16 C          15.2945   87.1532   21.5308 C.3     1  UNL1        0.2054
     17 O          14.3809   88.2390   21.3873 O.3     1  UNL1       -0.4755
     18 C          13.5267   88.4202   20.2896 C.ar    1  UNL1        0.1388
     19 C          12.1488   88.4663   20.5243 C.ar    1  UNL1        0.0369
     20 C          11.2559   88.6442   19.4664 C.ar    1  UNL1        0.0033
     21 C          11.7322   88.7781   18.1605 C.ar    1  UNL1        0.0066
     22 C          13.1132   88.7353   17.8994 C.ar    1  UNL1        0.0785
     23 C          14.0066   88.5557   18.9715 C.ar    1  UNL1        0.0433
     24 C          13.6227   88.8771   16.5170 C.2     1  UNL1        0.3381
     25 O          12.8571   88.6931   15.5322 O.2     1  UNL1       -0.2451
     26 O          14.9544   89.2153   16.2903 O.3     1  UNL1       -0.4771
     27 H          15.3130   89.3147   15.3480 H       1  UNL1        0.2954
     28 C          11.4665   78.3362   26.3445 C.2     1  UNL1        0.2840
     29 O          12.7142   78.1915   26.4532 O.2     1  UNL1       -0.2665
     30 N          10.9320   79.4486   25.6096 N.am    1  UNL1       -0.2757
     31 H           9.9121   79.4531   25.3842 H       1  UNL1        0.1553
     32 C           8.3160   78.0587   25.8273 C.3     1  UNL1        0.0345
     33 C           9.1777   77.2220   26.7242 C.ar    1  UNL1        0.0202
     34 C          10.5534   77.3468   26.9479 C.ar    1  UNL1        0.1946
     35 O          10.9574   76.4260   27.8049 O.2     1  UNL1       -0.4492
     36 C           9.9146   75.7108   28.1491 C.ar    1  UNL1        0.1452
     37 C           9.8826   74.6349   29.0294 C.ar    1  UNL1        0.0375
     38 C           8.6471   74.0040   29.2560 C.ar    1  UNL1        0.0031
     39 C           7.4681   74.4550   28.6033 C.ar    1  UNL1        0.0002
     40 C           7.5443   75.5545   27.7149 C.ar    1  UNL1        0.0028
     41 C           8.7871   76.1571   27.5136 C.ar    1  UNL1        0.0337
     42 C           6.1685   73.7805   28.8505 C.ar    1  UNL1        0.0000
     43 C           5.3314   74.2024   29.9011 C.ar    1  UNL1        0.0000
     44 C           4.1082   73.5654   30.1316 C.ar    1  UNL1        0.0000
     45 C           3.7064   72.5038   29.3181 C.ar    1  UNL1        0.0000
     46 C           4.5273   72.0764   28.2722 C.ar    1  UNL1        0.0000
     47 C           5.7522   72.7090   28.0377 C.ar    1  UNL1        0.0000
@<TRIPOS>BOND
     1    32    33    1
     2    33    34   ar
     3    34    28    1
     4    28    29    2
     5    28    30   am
     6    30     1    1
     7     1     2   ar
     8     2     3   ar
     9     3     4   ar
    10     4    10    1
    11    10    11    1
    12    11    12    1
    13    12    13    1
    14    13    16    1
    15    16    17    1
    16    17    18    1
    17    18    19   ar
    18    19    20   ar
    19    20    21   ar
    20    21    22   ar
    21    22    24    1
    22    24    25    2
    23    24    26    1
    24    22    23   ar
    25    13    14    1
    26    14    15    1
    27     4     5   ar
    28     5     6   ar
    29     6     7    1
    30    34    35   ar
    31    35    36   ar
    32    36    37   ar
    33    37    38   ar
    34    38    39   ar
    35    39    42    1
    36    42    43   ar
    37    43    44   ar
    38    44    45   ar
    39    45    46   ar
    40    46    47   ar
    41    39    40   ar
    42    40    41   ar
    43    41    33   ar
    44     6     1   ar
    45    41    36   ar
    46    15    10    1
    47    47    42   ar
    48    23    18   ar
    49    30    31    1
    50    26    27    1
    51     7     8    1
    52     7     9    1
@<TRIPOS>MOLECULE
*****
 47 52 0 0 0
SMALL
GASTEIGER

@<TRIPOS>ATOM
      1 C          11.5139   81.0085   25.7643 C.ar    1  UNL1        0.0832
      2 C          12.4189   81.6186   26.6446 C.ar    1  UNL1        0.1161
      3 N          13.2084   82.6384   26.2214 N.ar    1  UNL1       -0.2278
      4 C          13.1643   83.1200   24.9488 C.ar    1  UNL1        0.1330
      5 C          12.2625   82.5418   24.0374 C.ar    1  UNL1        0.0496
      6 C          11.4347   81.4848   24.4400 C.ar    1  UNL1        0.0595
      7 N          10.5488   80.8872   23.4841 N.pl3   1  UNL1       -0.3559
      8 H          10.4696   81.2775   22.5185 H       1  UNL1        0.1424
      9 H          10.0063   80.0223   23.6979 H       1  UNL1        0.1424
     10 N          14.0425   84.2031   24.5589 N.pl3   1  UNL1       -0.2932
     11 C          13.9863   85.5040   25.2501 C.3     1  UNL1        0.0923
     12 C          14.7423   86.5961   24.4787 C.3     1  UNL1        0.0252
     13 C          14.4269   86.4961   22.9754 C.3     1  UNL1        0.0472
     14 C          14.8357   85.1143   22.3944 C.3     1  UNL1        0.0252
     15 C          15.0122   84.0259   23.4662 C.3     1  UNL1        0.0923
     16 C          15.0911   87.6474   22.2065 C.3     1  UNL1        0.2054
     17 O          14.4595   87.8091   20.9379 O.3     1  UNL1       -0.4755
     18 C          14.1411   86.7561   20.0679 C.ar    1  UNL1        0.1388
     19 C          12.8107   86.6141   19.6604 C.ar    1  UNL1        0.0369
     20 C          12.4413   85.5826   18.7957 C.ar    1  UNL1        0.0033
     21 C          13.3997   84.6807   18.3287 C.ar    1  UNL1        0.0066
     22 C          14.7435   84.8030   18.7241 C.ar    1  UNL1        0.0785
     23 C          15.1078   85.8457   19.5958 C.ar    1  UNL1        0.0433
     24 C          15.7629   83.8496   18.2314 C.2     1  UNL1        0.3381
     25 O          16.2181   83.9502   17.0599 O.2     1  UNL1       -0.2451
     26 O          16.2297   82.8308   19.0581 O.3     1  UNL1       -0.4771
     27 H          16.9273   82.1733   18.7305 H       1  UNL1        0.2954
     28 C          10.9497   78.5704   26.1166 C.2     1  UNL1        0.2840
     29 O          11.9361   78.1971   25.4258 O.2     1  UNL1       -0.2665
     30 N          10.6387   79.9680   26.2315 N.am    1  UNL1       -0.2757
     31 H           9.7254   80.2419   26.6578 H       1  UNL1        0.1553
     32 C           7.8763   77.9274   25.4755 C.3     1  UNL1        0.0345
     33 C           8.7539   77.2857   26.5075 C.ar    1  UNL1        0.0202
     34 C          10.0958   77.5699   26.7849 C.ar    1  UNL1        0.1946
     35 O          10.5287   76.7955   27.7639 O.2     1  UNL1       -0.4492
     36 C           9.5368   76.0242   28.1363 C.ar    1  UNL1        0.1452
     37 C           9.5493   75.0561   29.1343 C.ar    1  UNL1        0.0375
     38 C           8.3655   74.3360   29.3703 C.ar    1  UNL1        0.0031
     39 C           7.1927   74.5925   28.6097 C.ar    1  UNL1        0.0002
     40 C           7.2225   75.5874   27.6030 C.ar    1  UNL1        0.0028
     41 C           8.4147   76.2830   27.3958 C.ar    1  UNL1        0.0337
     42 C           5.9478   73.8253   28.8679 C.ar    1  UNL1        0.0000
     43 C           5.0787   74.2008   29.9100 C.ar    1  UNL1        0.0000
     44 C           3.9071   73.4765   30.1508 C.ar    1  UNL1        0.0000
     45 C           3.5893   72.3729   29.3563 C.ar    1  UNL1        0.0000
     46 C           4.4429   71.9907   28.3191 C.ar    1  UNL1        0.0000
     47 C           5.6164   72.7106   28.0743 C.ar    1  UNL1        0.0000
@<TRIPOS>BOND
     1    32    33    1
     2    33    34   ar
     3    34    28    1
     4    28    29    2
     5    28    30   am
     6    30     1    1
     7     1     2   ar
     8     2     3   ar
     9     3     4   ar
    10     4    10    1
    11    10    11    1
    12    11    12    1
    13    12    13    1
    14    13    16    1
    15    16    17    1
    16    17    18    1
    17    18    19   ar
    18    19    20   ar
    19    20    21   ar
    20    21    22   ar
    21    22    24    1
    22    24    25    2
    23    24    26    1
    24    22    23   ar
    25    13    14    1
    26    14    15    1
    27     4     5   ar
    28     5     6   ar
    29     6     7    1
    30    34    35   ar
    31    35    36   ar
    32    36    37   ar
    33    37    38   ar
    34    38    39   ar
    35    39    42    1
    36    42    43   ar
    37    43    44   ar
    38    44    45   ar
    39    45    46   ar
    40    46    47   ar
    41    39    40   ar
    42    40    41   ar
    43    41    33   ar
    44     6     1   ar
    45    41    36   ar
    46    15    10    1
    47    47    42   ar
    48    23    18   ar
    49    30    31    1
    50    26    27    1
    51     7     8    1
    52     7     9    1
@<TRIPOS>MOLECULE
*****
 47 52 0 0 0
SMALL
GASTEIGER

@<TRIPOS>ATOM
      1 C          10.5872   81.2184   24.9357 C.ar    1  UNL1        0.0832
      2 C          10.0565   80.5470   23.8250 C.ar    1  UNL1        0.1161
      3 N           9.2665   79.4562   23.9938 N.ar    1  UNL1       -0.2278
      4 C           8.9471   78.9656   25.2230 C.ar    1  UNL1        0.1330
      5 C           9.4514   79.6167   26.3633 C.ar    1  UNL1        0.0496
      6 C          10.2727   80.7440   26.2253 C.ar    1  UNL1        0.0595
      7 N          10.8044   81.3699   27.4006 N.pl3   1  UNL1       -0.3559
      8 H          10.5291   81.0341   28.3505 H       1  UNL1        0.1424
      9 H          11.5166   82.1302   27.3483 H       1  UNL1        0.1424
     10 N           8.1083   77.7907   25.3327 N.pl3   1  UNL1       -0.2932
     11 C           7.6494   77.0779   24.1266 C.3     1  UNL1        0.0923
     12 C           6.5195   76.0863   24.4419 C.3     1  UNL1        0.0252
     13 C           5.5038   76.7301   25.4026 C.3     1  UNL1        0.0472
     14 C           6.1695   77.1551   26.7406 C.3     1  UNL1        0.0252
     15 C           7.6995   77.2816   26.6516 C.3     1  UNL1        0.0923
     16 C           4.3144   75.7887   25.6413 C.3     1  UNL1        0.2054
     17 O           3.0925   76.4810   25.3922 O.3     1  UNL1       -0.4755
     18 C           2.7084   76.9929   24.1441 C.ar    1  UNL1        0.1388
     19 C           2.1181   78.2601   24.1023 C.ar    1  UNL1        0.0369
     20 C           1.7176   78.8148   22.8857 C.ar    1  UNL1        0.0033
     21 C           1.9033   78.1071   21.6963 C.ar    1  UNL1        0.0066
     22 C           2.4947   76.8315   21.7128 C.ar    1  UNL1        0.0785
     23 C           2.8958   76.2795   22.9433 C.ar    1  UNL1        0.0433
     24 C           2.6939   76.0778   20.4546 C.2     1  UNL1        0.3381
     25 O           2.3904   74.8558   20.3873 O.2     1  UNL1       -0.2451
     26 O           3.2192   76.7117   19.3315 O.3     1  UNL1       -0.4771
     27 H           3.3594   76.2047   18.4657 H       1  UNL1        0.2954
     28 C          12.8077   82.3898   24.6454 C.2     1  UNL1        0.2840
     29 O          13.4477   81.3316   24.8906 O.2     1  UNL1       -0.2665
     30 N          11.3756   82.4069   24.7549 N.am    1  UNL1       -0.2757
     31 H          10.8841   83.3279   24.7202 H       1  UNL1        0.1553
     32 C          15.6202   82.5823   23.1214 C.3     1  UNL1        0.0345
     33 C          14.7589   83.7088   23.6075 C.ar    1  UNL1        0.0202
     34 C          13.5313   83.6206   24.2734 C.ar    1  UNL1        0.1946
     35 O          13.0741   84.8310   24.5407 O.2     1  UNL1       -0.4492
     36 C          13.9420   85.6997   24.0831 C.ar    1  UNL1        0.1452
     37 C          13.8618   87.0864   24.1469 C.ar    1  UNL1        0.0375
     38 C          14.9116   87.8348   23.5868 C.ar    1  UNL1        0.0031
     39 C          16.0202   87.1900   22.9745 C.ar    1  UNL1        0.0002
     40 C          16.0631   85.7756   22.9312 C.ar    1  UNL1        0.0028
     41 C          15.0038   85.0644   23.4972 C.ar    1  UNL1        0.0337
     42 C          17.1234   87.9911   22.3860 C.ar    1  UNL1        0.0000
     43 C          18.2959   88.2447   23.1231 C.ar    1  UNL1        0.0000
     44 C          19.3331   88.9994   22.5664 C.ar    1  UNL1        0.0000
     45 C          19.2133   89.5074   21.2711 C.ar    1  UNL1        0.0000
     46 C          18.0556   89.2622   20.5294 C.ar    1  UNL1        0.0000
     47 C          17.0147   88.5090   21.0814 C.ar    1  UNL1        0.0000
@<TRIPOS>BOND
     1    32    33    1
     2    33    34   ar
     3    34    28    1
     4    28    29    2
     5    28    30   am
     6    30     1    1
     7     1     2   ar
     8     2     3   ar
     9     3     4   ar
    10     4    10    1
    11    10    11    1
    12    11    12    1
    13    12    13    1
    14    13    16    1
    15    16    17    1
    16    17    18    1
    17    18    19   ar
    18    19    20   ar
    19    20    21   ar
    20    21    22   ar
    21    22    24    1
    22    24    25    2
    23    24    26    1
    24    22    23   ar
    25    13    14    1
    26    14    15    1
    27     4     5   ar
    28     5     6   ar
    29     6     7    1
    30    34    35   ar
    31    35    36   ar
    32    36    37   ar
    33    37    38   ar
    34    38    39   ar
    35    39    42    1
    36    42    43   ar
    37    43    44   ar
    38    44    45   ar
    39    45    46   ar
    40    46    47   ar
    41    39    40   ar
    42    40    41   ar
    43    41    33   ar
    44     6     1   ar
    45    41    36   ar
    46    15    10    1
    47    47    42   ar
    48    23    18   ar
    49    30    31    1
    50    26    27    1
    51     7     8    1
    52     7     9    1
@<TRIPOS>MOLECULE
*****
 47 52 0 0 0
SMALL
GASTEIGER

@<TRIPOS>ATOM
      1 C          10.5301   80.9954   24.9737 C.ar    1  UNL1        0.0832
      2 C          10.0461   80.2096   23.9180 C.ar    1  UNL1        0.1161
      3 N           9.3453   79.0749   24.1706 N.ar    1  UNL1       -0.2278
      4 C           9.0738   78.6471   25.4342 C.ar    1  UNL1        0.1330
      5 C           9.5332   79.4126   26.5211 C.ar    1  UNL1        0.0496
      6 C          10.2626   80.5881   26.2963 C.ar    1  UNL1        0.0595
      7 N          10.7515   81.3333   27.4195 N.pl3   1  UNL1       -0.3559
      8 H          10.5099   81.0435   28.3935 H       1  UNL1        0.1424
      9 H          11.4015   82.1413   27.3068 H       1  UNL1        0.1424
     10 N           8.3306   77.4208   25.6342 N.pl3   1  UNL1       -0.2932
     11 C           9.0294   76.1555   25.9237 C.3     1  UNL1        0.0923
     12 C           8.1032   74.9402   25.7673 C.3     1  UNL1        0.0252
     13 C           7.2483   75.0872   24.4956 C.3     1  UNL1        0.0472
     14 C           6.3712   76.3688   24.5392 C.3     1  UNL1        0.0252
     15 C           6.8611   77.4134   25.5560 C.3     1  UNL1        0.0923
     16 C           6.3955   73.8303   24.2699 C.3     1  UNL1        0.2054
     17 O           6.5973   73.3409   22.9455 O.3     1  UNL1       -0.4755
     18 C           5.9087   73.8016   21.8137 C.ar    1  UNL1        0.1388
     19 C           6.4928   73.6043   20.5584 C.ar    1  UNL1        0.0369
     20 C           5.8489   74.0443   19.4008 C.ar    1  UNL1        0.0033
     21 C           4.6123   74.6873   19.4864 C.ar    1  UNL1        0.0066
     22 C           4.0050   74.8970   20.7371 C.ar    1  UNL1        0.0785
     23 C           4.6605   74.4503   21.8992 C.ar    1  UNL1        0.0433
     24 C           2.6942   75.5778   20.8328 C.2     1  UNL1        0.3381
     25 O           2.1395   76.0433   19.8005 O.2     1  UNL1       -0.2451
     26 O           2.0601   75.7112   22.0654 O.3     1  UNL1       -0.4771
     27 H           1.1629   76.1755   22.1416 H       1  UNL1        0.2954
     28 C          12.6418   82.3786   24.8533 C.2     1  UNL1        0.2840
     29 O          13.3184   81.4740   25.4130 O.2     1  UNL1       -0.2665
     30 N          11.2215   82.2264   24.7024 N.am    1  UNL1       -0.2757
     31 H          10.6610   83.0539   24.3991 H       1  UNL1        0.1553
     32 C          15.4895   82.5918   23.3990 C.3     1  UNL1        0.0345
     33 C          14.5467   83.7056   23.7421 C.ar    1  UNL1        0.0202
     34 C          13.3039   83.6084   24.3779 C.ar    1  UNL1        0.1946
     35 O          12.7669   84.8086   24.5064 O.2     1  UNL1       -0.4492
     36 C          13.5974   85.6794   23.9872 C.ar    1  UNL1        0.1452
     37 C          13.4332   87.0577   23.9061 C.ar    1  UNL1        0.0375
     38 C          14.4558   87.8099   23.3026 C.ar    1  UNL1        0.0031
     39 C          15.6213   87.1772   22.7918 C.ar    1  UNL1        0.0002
     40 C          15.7492   85.7711   22.8951 C.ar    1  UNL1        0.0028
     41 C          14.7147   85.0557   23.5003 C.ar    1  UNL1        0.0337
     42 C          16.6951   87.9822   22.1562 C.ar    1  UNL1        0.0000
     43 C          17.9049   88.2244   22.8344 C.ar    1  UNL1        0.0000
     44 C          18.9142   88.9829   22.2334 C.ar    1  UNL1        0.0000
     45 C          18.7293   89.5060   20.9519 C.ar    1  UNL1        0.0000
     46 C          17.5340   89.2723   20.2684 C.ar    1  UNL1        0.0000
     47 C          16.5207   88.5155   20.8649 C.ar    1  UNL1        0.0000
@<TRIPOS>BOND
     1    32    33    1
     2    33    34   ar
     3    34    28    1
     4    28    29    2
     5    28    30   am
     6    30     1    1
     7     1     2   ar
     8     2     3   ar
     9     3     4   ar
    10     4    10    1
    11    10    11    1
    12    11    12    1
    13    12    13    1
    14    13    16    1
    15    16    17    1
    16    17    18    1
    17    18    19   ar
    18    19    20   ar
    19    20    21   ar
    20    21    22   ar
    21    22    24    1
    22    24    25    2
    23    24    26    1
    24    22    23   ar
    25    13    14    1
    26    14    15    1
    27     4     5   ar
    28     5     6   ar
    29     6     7    1
    30    34    35   ar
    31    35    36   ar
    32    36    37   ar
    33    37    38   ar
    34    38    39   ar
    35    39    42    1
    36    42    43   ar
    37    43    44   ar
    38    44    45   ar
    39    45    46   ar
    40    46    47   ar
    41    39    40   ar
    42    40    41   ar
    43    41    33   ar
    44     6     1   ar
    45    41    36   ar
    46    15    10    1
    47    47    42   ar
    48    23    18   ar
    49    30    31    1
    50    26    27    1
    51     7     8    1
    52     7     9    1
@<TRIPOS>MOLECULE
*****
 47 52 0 0 0
SMALL
GASTEIGER

@<TRIPOS>ATOM
      1 C          10.4700   80.9846   24.6103 C.ar    1  UNL1        0.0832
      2 C           9.9919   80.2904   23.4897 C.ar    1  UNL1        0.1161
      3 N           9.2596   79.1579   23.6433 N.ar    1  UNL1       -0.2278
      4 C           8.9498   78.6455   24.8660 C.ar    1  UNL1        0.1330
      5 C           9.4021   79.3178   26.0157 C.ar    1  UNL1        0.0496
      6 C          10.1634   80.4883   25.8935 C.ar    1  UNL1        0.0595
      7 N          10.6439   81.1368   27.0785 N.pl3   1  UNL1       -0.3559
      8 H          10.3738   80.7825   28.0232 H       1  UNL1        0.1424
      9 H          11.3148   81.9346   27.0392 H       1  UNL1        0.1424
     10 N           8.1741   77.4266   24.9594 N.pl3   1  UNL1       -0.2932
     11 C           6.7480   77.4682   25.3304 C.3     1  UNL1        0.0923
     12 C           6.2101   76.0768   25.6965 C.3     1  UNL1        0.0252
     13 C           7.2261   75.3334   26.5820 C.3     1  UNL1        0.0472
     14 C           8.5921   75.1565   25.8631 C.3     1  UNL1        0.0252
     15 C           8.7933   76.1207   24.6822 C.3     1  UNL1        0.0923
     16 C           6.6553   73.9845   27.0432 C.3     1  UNL1        0.2054
     17 O           6.5366   73.9706   28.4645 O.3     1  UNL1       -0.4755
     18 C           6.3498   75.1118   29.2583 C.ar    1  UNL1        0.1388
     19 C           7.4830   75.7747   29.7404 C.ar    1  UNL1        0.0369
     20 C           7.3518   76.9148   30.5349 C.ar    1  UNL1        0.0033
     21 C           6.0843   77.4047   30.8562 C.ar    1  UNL1        0.0066
     22 C           4.9302   76.7556   30.3833 C.ar    1  UNL1        0.0785
     23 C           5.0709   75.6070   29.5828 C.ar    1  UNL1        0.0433
     24 C           3.5845   77.2714   30.7210 C.2     1  UNL1        0.3381
     25 O           2.5542   76.6030   30.4356 O.2     1  UNL1       -0.2451
     26 O           3.4432   78.5016   31.3581 O.3     1  UNL1       -0.4771
     27 H           2.5267   78.8635   31.5935 H       1  UNL1        0.2954
     28 C          12.5970   82.3440   24.7323 C.2     1  UNL1        0.2840
     29 O          13.2096   81.4135   25.3225 O.2     1  UNL1       -0.2665
     30 N          11.1956   82.2147   24.4450 N.am    1  UNL1       -0.2757
     31 H          10.6739   83.0585   24.1182 H       1  UNL1        0.1553
     32 C          15.4540   82.5559   23.2961 C.3     1  UNL1        0.0345
     33 C          14.5595   83.6764   23.7335 C.ar    1  UNL1        0.0202
     34 C          13.3125   83.5797   24.3611 C.ar    1  UNL1        0.1946
     35 O          12.8275   84.7869   24.5913 O.2     1  UNL1       -0.4492
     36 C          13.6959   85.6617   24.1459 C.ar    1  UNL1        0.1452
     37 C          13.5915   87.0477   24.1816 C.ar    1  UNL1        0.0375
     38 C          14.6467   87.8033   23.6419 C.ar    1  UNL1        0.0031
     39 C          15.7848   87.1662   23.0775 C.ar    1  UNL1        0.0002
     40 C          15.8516   85.7522   23.0616 C.ar    1  UNL1        0.0028
     41 C          14.7861   85.0336   23.6062 C.ar    1  UNL1        0.0337
     42 C          16.8935   87.9748   22.5102 C.ar    1  UNL1        0.0000
     43 C          18.0158   88.3013   23.2951 C.ar    1  UNL1        0.0000
     44 C          19.0583   89.0630   22.7582 C.ar    1  UNL1        0.0000
     45 C          18.9940   89.5055   21.4353 C.ar    1  UNL1        0.0000
     46 C          17.8865   89.1876   20.6461 C.ar    1  UNL1        0.0000
     47 C          16.8405   88.4272   21.1779 C.ar    1  UNL1        0.0000
@<TRIPOS>BOND
     1    32    33    1
     2    33    34   ar
     3    34    28    1
     4    28    29    2
     5    28    30   am
     6    30     1    1
     7     1     2   ar
     8     2     3   ar
     9     3     4   ar
    10     4    10    1
    11    10    11    1
    12    11    12    1
    13    12    13    1
    14    13    16    1
    15    16    17    1
    16    17    18    1
    17    18    19   ar
    18    19    20   ar
    19    20    21   ar
    20    21    22   ar
    21    22    24    1
    22    24    25    2
    23    24    26    1
    24    22    23   ar
    25    13    14    1
    26    14    15    1
    27     4     5   ar
    28     5     6   ar
    29     6     7    1
    30    34    35   ar
    31    35    36   ar
    32    36    37   ar
    33    37    38   ar
    34    38    39   ar
    35    39    42    1
    36    42    43   ar
    37    43    44   ar
    38    44    45   ar
    39    45    46   ar
    40    46    47   ar
    41    39    40   ar
    42    40    41   ar
    43    41    33   ar
    44     6     1   ar
    45    41    36   ar
    46    15    10    1
    47    47    42   ar
    48    23    18   ar
    49    30    31    1
    50    26    27    1
    51     7     8    1
    52     7     9    1
