@<TRIPOS>MOLECULE
*****
 45 50 0 0 0
SMALL
GASTEIGER

@<TRIPOS>ATOM
      1 C          60.6110   86.1740   12.4690 C.ar    1  UNL1        0.0702
      2 C          59.2907   86.4855   12.1081 C.ar    1  UNL1        0.0191
      3 C          58.5440   85.5902   11.3409 C.ar    1  UNL1        0.0356
      4 C          59.1279   84.3867   10.9173 C.ar    1  UNL1        0.1318
      5 N          60.4144   84.1111   11.2702 N.ar    1  UNL1       -0.2279
      6 C          61.1607   84.9685   12.0152 C.ar    1  UNL1        0.1149
      7 N          58.3787   83.4297   10.1454 N.pl3   1  UNL1       -0.2932
      8 C          58.4843   81.9942   10.4601 C.3     1  UNL1        0.0923
      9 C          57.8288   81.1212    9.3766 C.3     1  UNL1        0.0252
     10 C          57.9559   81.7622    7.9828 C.3     1  UNL1        0.0472
     11 C          57.2031   83.1132    7.9617 C.3     1  UNL1        0.0252
     12 C          57.2893   83.9070    9.2826 C.3     1  UNL1        0.0923
     13 C          59.4376   81.8661    7.5476 C.3     1  UNL1        0.2054
     14 O          59.7454   83.1628    7.0300 O.3     1  UNL1       -0.4755
     15 C          60.5948   84.1153    7.6219 C.ar    1  UNL1        0.1388
     16 C          61.9049   83.8204    8.0514 C.ar    1  UNL1        0.0369
     17 C          62.6946   84.8140    8.6325 C.ar    1  UNL1        0.0033
     18 C          62.1945   86.1073    8.7932 C.ar    1  UNL1        0.0066
     19 C          60.8900   86.4211    8.3753 C.ar    1  UNL1        0.0785
     20 C          60.0997   85.4149    7.7921 C.ar    1  UNL1        0.0433
     21 C          60.3521   87.7891    8.5456 C.2     1  UNL1        0.3381
     22 O          59.4459   88.2189    7.7815 O.2     1  UNL1       -0.2451
     23 O          60.8425   88.6160    9.5530 O.3     1  UNL1       -0.4771
     24 H          60.4812   89.5542    9.6781 H       1  UNL1        0.2954
     25 C          61.4536   88.5011   13.0323 C.2     1  UNL1        0.2839
     26 O          60.5620   89.0585   12.3382 O.2     1  UNL1       -0.2665
     27 N          61.4195   87.0795   13.2399 N.am    1  UNL1       -0.2766
     28 H          61.9540   86.6861   14.0473 H       1  UNL1        0.1553
     29 C          64.1397   89.7280   11.7355 C.3     1  UNL1        0.0345
     30 C          63.6347   89.8926   13.1397 C.ar    1  UNL1        0.0206
     31 C          62.4885   89.3134   13.7043 C.ar    1  UNL1        0.1946
     32 O          62.4252   89.6048   14.9873 O.2     1  UNL1       -0.4492
     33 C          63.4511   90.3593   15.2860 C.ar    1  UNL1        0.1456
     34 C          63.7474   90.8875   16.5347 C.ar    1  UNL1        0.0375
     35 C          64.8904   91.6855   16.6589 C.ar    1  UNL1        0.0036
     36 C          65.7136   91.9535   15.5396 C.ar    1  UNL1        0.0056
     37 C          65.3810   91.4182   14.2633 C.ar    1  UNL1        0.0328
     38 I          66.4923   92.0064   12.5380 I       1  UNL1       -0.0424
     39 C          64.2377   90.5942   14.1823 C.ar    1  UNL1        0.0390
     40 C          66.9092   92.7986   15.7370 C.ar    1  UNL1        0.0004
     41 C          66.9510   94.1034   15.2181 C.ar    1  UNL1        0.0000
     42 C          68.0927   94.8923   15.3892 C.ar    1  UNL1        0.0000
     43 C          69.2018   94.3812   16.0694 C.ar    1  UNL1        0.0000
     44 C          69.1723   93.0789   16.5760 C.ar    1  UNL1        0.0000
     45 C          68.0324   92.2866   16.4072 C.ar    1  UNL1        0.0000
@<TRIPOS>BOND
     1    29    30    1
     2    30    31   ar
     3    31    25    1
     4    25    26    2
     5    25    27   am
     6    27     1    1
     7     1     2   ar
     8     2     3   ar
     9     3     4   ar
    10     4     7    1
    11     7     8    1
    12     8     9    1
    13     9    10    1
    14    10    13    1
    15    13    14    1
    16    14    15    1
    17    15    16   ar
    18    16    17   ar
    19    17    18   ar
    20    18    19   ar
    21    19    21    1
    22    21    22    2
    23    21    23    1
    24    19    20   ar
    25    10    11    1
    26    11    12    1
    27     4     5   ar
    28     5     6   ar
    29    31    32   ar
    30    32    33   ar
    31    33    34   ar
    32    34    35   ar
    33    35    36   ar
    34    36    40    1
    35    40    41   ar
    36    41    42   ar
    37    42    43   ar
    38    43    44   ar
    39    44    45   ar
    40    36    37   ar
    41    37    38    1
    42    37    39   ar
    43    39    30   ar
    44     6     1   ar
    45    39    33   ar
    46    12     7    1
    47    45    40   ar
    48    20    15   ar
    49    27    28    1
    50    23    24    1
@<TRIPOS>MOLECULE
*****
 45 50 0 0 0
SMALL
GASTEIGER

@<TRIPOS>ATOM
      1 C          60.3574   89.6902    8.9345 C.ar    1  UNL1        0.0702
      2 C          60.2782   90.3461   10.1731 C.ar    1  UNL1        0.0191
      3 C          59.8224   89.6617   11.3007 C.ar    1  UNL1        0.0356
      4 C          59.4266   88.3207   11.1839 C.ar    1  UNL1        0.1318
      5 N          59.5016   87.7083    9.9694 N.ar    1  UNL1       -0.2279
      6 C          59.9406   88.3554    8.8577 C.ar    1  UNL1        0.1149
      7 N          58.9746   87.5777   12.3313 N.pl3   1  UNL1       -0.2932
      8 C          59.8926   86.6412   13.0030 C.3     1  UNL1        0.0923
      9 C          59.1604   85.7587   14.0282 C.3     1  UNL1        0.0252
     10 C          57.7154   85.4628   13.5874 C.3     1  UNL1        0.0472
     11 C          56.9159   86.7844   13.5073 C.3     1  UNL1        0.0252
     12 C          57.7362   87.9915   13.0051 C.3     1  UNL1        0.0923
     13 C          57.6875   84.6357   12.2795 C.3     1  UNL1        0.2054
     14 O          58.4093   83.4092   12.4158 O.3     1  UNL1       -0.4755
     15 C          58.3511   82.3076   11.5427 C.ar    1  UNL1        0.1388
     16 C          58.2537   80.9736   11.9884 C.ar    1  UNL1        0.0369
     17 C          58.2010   79.9266   11.0667 C.ar    1  UNL1        0.0033
     18 C          58.2443   80.1911    9.6968 C.ar    1  UNL1        0.0066
     19 C          58.3452   81.5134    9.2318 C.ar    1  UNL1        0.0785
     20 C          58.3991   82.5629   10.1660 C.ar    1  UNL1        0.0433
     21 C          58.3949   81.8010    7.7811 C.2     1  UNL1        0.3381
     22 O          59.3220   82.5083    7.3015 O.2     1  UNL1       -0.2451
     23 O          57.4166   81.2924    6.9306 O.3     1  UNL1       -0.4771
     24 H          57.4413   81.4833    5.9359 H       1  UNL1        0.2954
     25 C          60.1186   90.3017    6.4826 C.2     1  UNL1        0.2839
     26 O          58.9383   89.8647    6.4254 O.2     1  UNL1       -0.2665
     27 N          60.8010   90.3669    7.7457 N.am    1  UNL1       -0.2766
     28 H          61.6254   91.0040    7.8284 H       1  UNL1        0.1553
     29 C          58.8166   92.1529    4.1848 C.3     1  UNL1        0.0345
     30 C          60.2348   91.6714    4.2882 C.ar    1  UNL1        0.0206
     31 C          60.7765   90.8264    5.2684 C.ar    1  UNL1        0.1946
     32 O          62.0283   90.5428    4.9729 O.2     1  UNL1       -0.4492
     33 C          62.3405   91.1725    3.8698 C.ar    1  UNL1        0.1456
     34 C          63.5697   91.1433    3.2260 C.ar    1  UNL1        0.0375
     35 C          63.7188   91.8946    2.0547 C.ar    1  UNL1        0.0036
     36 C          62.6485   92.6695    1.5484 C.ar    1  UNL1        0.0056
     37 C          61.4019   92.7013    2.2347 C.ar    1  UNL1        0.0328
     38 I          59.8680   94.0425    1.5977 I       1  UNL1       -0.0424
     39 C          61.2793   91.9083    3.3961 C.ar    1  UNL1        0.0390
     40 C          62.8673   93.4361    0.3046 C.ar    1  UNL1        0.0004
     41 C          61.9231   93.3894   -0.7346 C.ar    1  UNL1        0.0000
     42 C          62.1442   94.0999   -1.9184 C.ar    1  UNL1        0.0000
     43 C          63.3118   94.8521   -2.0763 C.ar    1  UNL1        0.0000
     44 C          64.2619   94.8917   -1.0519 C.ar    1  UNL1        0.0000
     45 C          64.0446   94.1827    0.1336 C.ar    1  UNL1        0.0000
@<TRIPOS>BOND
     1    29    30    1
     2    30    31   ar
     3    31    25    1
     4    25    26    2
     5    25    27   am
     6    27     1    1
     7     1     2   ar
     8     2     3   ar
     9     3     4   ar
    10     4     7    1
    11     7     8    1
    12     8     9    1
    13     9    10    1
    14    10    13    1
    15    13    14    1
    16    14    15    1
    17    15    16   ar
    18    16    17   ar
    19    17    18   ar
    20    18    19   ar
    21    19    21    1
    22    21    22    2
    23    21    23    1
    24    19    20   ar
    25    10    11    1
    26    11    12    1
    27     4     5   ar
    28     5     6   ar
    29    31    32   ar
    30    32    33   ar
    31    33    34   ar
    32    34    35   ar
    33    35    36   ar
    34    36    40    1
    35    40    41   ar
    36    41    42   ar
    37    42    43   ar
    38    43    44   ar
    39    44    45   ar
    40    36    37   ar
    41    37    38    1
    42    37    39   ar
    43    39    30   ar
    44     6     1   ar
    45    39    33   ar
    46    12     7    1
    47    45    40   ar
    48    20    15   ar
    49    27    28    1
    50    23    24    1
@<TRIPOS>MOLECULE
*****
 45 50 0 0 0
SMALL
GASTEIGER

@<TRIPOS>ATOM
      1 C          60.6441   86.0692   12.7345 C.ar    1  UNL1        0.0702
      2 C          59.2802   86.3152   12.5111 C.ar    1  UNL1        0.0191
      3 C          58.5179   85.4130   11.7677 C.ar    1  UNL1        0.0356
      4 C          59.1278   84.2697   11.2297 C.ar    1  UNL1        0.1318
      5 N          60.4552   84.0577   11.4501 N.ar    1  UNL1       -0.2279
      6 C          61.2173   84.9232   12.1694 C.ar    1  UNL1        0.1149
      7 N          58.3661   83.3061   10.4786 N.pl3   1  UNL1       -0.2932
      8 C          58.3650   81.8922   10.8932 C.3     1  UNL1        0.0923
      9 C          57.7195   80.9852    9.8319 C.3     1  UNL1        0.0252
     10 C          57.9647   81.5194    8.4091 C.3     1  UNL1        0.0472
     11 C          57.2990   82.9067    8.2532 C.3     1  UNL1        0.0252
     12 C          57.3589   83.7842    9.5215 C.3     1  UNL1        0.0923
     13 C          59.4723   81.5072    8.0589 C.3     1  UNL1        0.2054
     14 O          59.9127   82.7805    7.5805 O.3     1  UNL1       -0.4755
     15 C          61.0270   83.5037    8.0436 C.ar    1  UNL1        0.1388
     16 C          61.3502   84.7986    7.5891 C.ar    1  UNL1        0.0369
     17 C          62.4726   85.4598    8.0905 C.ar    1  UNL1        0.0033
     18 C          63.2841   84.8453    9.0457 C.ar    1  UNL1        0.0066
     19 C          62.9817   83.5536    9.5093 C.ar    1  UNL1        0.0785
     20 C          61.8503   82.8930    8.9987 C.ar    1  UNL1        0.0433
     21 C          63.8393   82.8947   10.5192 C.2     1  UNL1        0.3381
     22 O          65.0194   82.5562   10.2321 O.2     1  UNL1       -0.2451
     23 O          63.3502   82.6420   11.7983 O.3     1  UNL1       -0.4771
     24 H          63.9290   82.1915   12.4972 H       1  UNL1        0.2954
     25 C          61.3905   88.4149   13.3535 C.2     1  UNL1        0.2839
     26 O          60.3997   88.9463   12.7849 O.2     1  UNL1       -0.2665
     27 N          61.4676   86.9852   13.4765 N.am    1  UNL1       -0.2766
     28 H          62.1050   86.5864   14.2025 H       1  UNL1        0.1553
     29 C          64.0395   89.6041   11.9496 C.3     1  UNL1        0.0345
     30 C          63.5644   89.8217   13.3571 C.ar    1  UNL1        0.0206
     31 C          62.4347   89.2591   13.9696 C.ar    1  UNL1        0.1946
     32 O          62.3978   89.6009   15.2410 O.2     1  UNL1       -0.4492
     33 C          63.4251   90.3724   15.4866 C.ar    1  UNL1        0.1456
     34 C          63.7455   90.9515   16.7066 C.ar    1  UNL1        0.0375
     35 C          64.8857   91.7602   16.7735 C.ar    1  UNL1        0.0036
     36 C          65.6823   91.9879   15.6264 C.ar    1  UNL1        0.0056
     37 C          65.3252   91.4005   14.3801 C.ar    1  UNL1        0.0328
     38 I          66.3944   91.9256   12.6085 I       1  UNL1       -0.0424
     39 C          64.1857   90.5676   14.3573 C.ar    1  UNL1        0.0390
     40 C          66.8766   92.8468   15.7636 C.ar    1  UNL1        0.0004
     41 C          66.9351   94.0918   15.1152 C.ar    1  UNL1        0.0000
     42 C          68.0758   94.8921   15.2307 C.ar    1  UNL1        0.0000
     43 C          69.1674   94.4514   15.9844 C.ar    1  UNL1        0.0000
     44 C          69.1215   93.2077   16.6205 C.ar    1  UNL1        0.0000
     45 C          67.9825   92.4042   16.5077 C.ar    1  UNL1        0.0000
@<TRIPOS>BOND
     1    29    30    1
     2    30    31   ar
     3    31    25    1
     4    25    26    2
     5    25    27   am
     6    27     1    1
     7     1     2   ar
     8     2     3   ar
     9     3     4   ar
    10     4     7    1
    11     7     8    1
    12     8     9    1
    13     9    10    1
    14    10    13    1
    15    13    14    1
    16    14    15    1
    17    15    16   ar
    18    16    17   ar
    19    17    18   ar
    20    18    19   ar
    21    19    21    1
    22    21    22    2
    23    21    23    1
    24    19    20   ar
    25    10    11    1
    26    11    12    1
    27     4     5   ar
    28     5     6   ar
    29    31    32   ar
    30    32    33   ar
    31    33    34   ar
    32    34    35   ar
    33    35    36   ar
    34    36    40    1
    35    40    41   ar
    36    41    42   ar
    37    42    43   ar
    38    43    44   ar
    39    44    45   ar
    40    36    37   ar
    41    37    38    1
    42    37    39   ar
    43    39    30   ar
    44     6     1   ar
    45    39    33   ar
    46    12     7    1
    47    45    40   ar
    48    20    15   ar
    49    27    28    1
    50    23    24    1
@<TRIPOS>MOLECULE
*****
 45 50 0 0 0
SMALL
GASTEIGER

@<TRIPOS>ATOM
      1 C          63.6182   89.4143   13.5565 C.ar    1  UNL1        0.0702
      2 C          63.7277   90.6650   12.9287 C.ar    1  UNL1        0.0191
      3 C          64.6221   91.6185   13.4172 C.ar    1  UNL1        0.0356
      4 C          65.3961   91.3256   14.5502 C.ar    1  UNL1        0.1318
      5 N          65.2646   90.1094   15.1495 N.ar    1  UNL1       -0.2279
      6 C          64.3992   89.1664   14.6923 C.ar    1  UNL1        0.1149
      7 N          66.3459   92.2767   15.0661 N.pl3   1  UNL1       -0.2932
      8 C          66.5357   93.5659   14.3786 C.3     1  UNL1        0.0923
      9 C          67.7610   94.3255   14.9150 C.3     1  UNL1        0.0252
     10 C          68.8710   93.3586   15.3653 C.3     1  UNL1        0.0472
     11 C          68.3577   92.4873   16.5355 C.3     1  UNL1        0.0252
     12 C          66.8691   92.0942   16.4270 C.3     1  UNL1        0.0923
     13 C          69.4190   92.5405   14.1711 C.3     1  UNL1        0.2054
     14 O          68.3628   91.9951   13.3767 O.3     1  UNL1       -0.4755
     15 C          68.1687   92.1970   11.9981 C.ar    1  UNL1        0.1388
     16 C          68.8760   91.4866   11.0067 C.ar    1  UNL1        0.0369
     17 C          68.6345   91.7377    9.6550 C.ar    1  UNL1        0.0033
     18 C          67.6914   92.6934    9.2733 C.ar    1  UNL1        0.0066
     19 C          66.9784   93.4152   10.2458 C.ar    1  UNL1        0.0785
     20 C          67.2278   93.1580   11.6055 C.ar    1  UNL1        0.0433
     21 C          65.9796   94.4321    9.8485 C.2     1  UNL1        0.3381
     22 O          65.1646   94.8914   10.6939 O.2     1  UNL1       -0.2451
     23 O          65.9302   94.8922    8.5351 O.3     1  UNL1       -0.4771
     24 H          65.2503   95.5882    8.2527 H       1  UNL1        0.2954
     25 C          61.6200   87.8856   13.8932 C.2     1  UNL1        0.2839
     26 O          61.2680   88.4769   14.9485 O.2     1  UNL1       -0.2665
     27 N          62.6932   88.4140   13.0966 N.am    1  UNL1       -0.2766
     28 H          62.7614   88.1116   12.0984 H       1  UNL1        0.1553
     29 C          62.8398   85.0451   12.9734 C.3     1  UNL1        0.0345
     30 C          61.3948   85.4412   13.0692 C.ar    1  UNL1        0.0206
     31 C          60.8791   86.6963   13.4251 C.ar    1  UNL1        0.1946
     32 O          59.5680   86.6937   13.2993 O.2     1  UNL1       -0.4492
     33 C          59.1978   85.5029   12.9046 C.ar    1  UNL1        0.1456
     34 C          57.8969   85.0847   12.6616 C.ar    1  UNL1        0.0375
     35 C          57.6950   83.7615   12.2530 C.ar    1  UNL1        0.0036
     36 C          58.7867   82.8738   12.1023 C.ar    1  UNL1        0.0056
     37 C          60.1113   83.3172   12.3757 C.ar    1  UNL1        0.0328
     38 I          61.7261   81.9208   12.3672 I       1  UNL1       -0.0424
     39 C          60.2792   84.6659   12.7572 C.ar    1  UNL1        0.0390
     40 C          58.5083   81.4911   11.6626 C.ar    1  UNL1        0.0004
     41 C          58.7645   80.4076   12.5194 C.ar    1  UNL1        0.0000
     42 C          58.5192   79.0992   12.0915 C.ar    1  UNL1        0.0000
     43 C          58.0270   78.8637   10.8045 C.ar    1  UNL1        0.0000
     44 C          57.7833   79.9362    9.9420 C.ar    1  UNL1        0.0000
     45 C          58.0271   81.2463   10.3660 C.ar    1  UNL1        0.0000
@<TRIPOS>BOND
     1    29    30    1
     2    30    31   ar
     3    31    25    1
     4    25    26    2
     5    25    27   am
     6    27     1    1
     7     1     2   ar
     8     2     3   ar
     9     3     4   ar
    10     4     7    1
    11     7     8    1
    12     8     9    1
    13     9    10    1
    14    10    13    1
    15    13    14    1
    16    14    15    1
    17    15    16   ar
    18    16    17   ar
    19    17    18   ar
    20    18    19   ar
    21    19    21    1
    22    21    22    2
    23    21    23    1
    24    19    20   ar
    25    10    11    1
    26    11    12    1
    27     4     5   ar
    28     5     6   ar
    29    31    32   ar
    30    32    33   ar
    31    33    34   ar
    32    34    35   ar
    33    35    36   ar
    34    36    40    1
    35    40    41   ar
    36    41    42   ar
    37    42    43   ar
    38    43    44   ar
    39    44    45   ar
    40    36    37   ar
    41    37    38    1
    42    37    39   ar
    43    39    30   ar
    44     6     1   ar
    45    39    33   ar
    46    12     7    1
    47    45    40   ar
    48    20    15   ar
    49    27    28    1
    50    23    24    1
@<TRIPOS>MOLECULE
*****
 45 50 0 0 0
SMALL
GASTEIGER

@<TRIPOS>ATOM
      1 C          60.8908   86.8411   11.3035 C.ar    1  UNL1        0.0702
      2 C          59.9827   87.0638   10.2565 C.ar    1  UNL1        0.0191
      3 C          59.2070   86.0124    9.7660 C.ar    1  UNL1        0.0356
      4 C          59.3548   84.7289   10.3131 C.ar    1  UNL1        0.1318
      5 N          60.2504   84.5343   11.3208 N.ar    1  UNL1       -0.2279
      6 C          61.0173   85.5426   11.8130 C.ar    1  UNL1        0.1149
      7 N          58.5534   83.6271    9.8476 N.pl3   1  UNL1       -0.2932
      8 C          58.5518   82.3576   10.5956 C.3     1  UNL1        0.0923
      9 C          57.8553   81.2325    9.8116 C.3     1  UNL1        0.0252
     10 C          58.0517   81.3977    8.2938 C.3     1  UNL1        0.0472
     11 C          57.3967   82.7184    7.8259 C.3     1  UNL1        0.0252
     12 C          57.5157   83.8776    8.8380 C.3     1  UNL1        0.0923
     13 C          59.5444   81.2690    7.9053 C.3     1  UNL1        0.2054
     14 O          60.0234   82.4486    7.2547 O.3     1  UNL1       -0.4755
     15 C          61.0383   83.3033    7.7222 C.ar    1  UNL1        0.1388
     16 C          61.2963   84.5725    7.1651 C.ar    1  UNL1        0.0369
     17 C          62.3209   85.3700    7.6775 C.ar    1  UNL1        0.0033
     18 C          63.0984   84.9183    8.7452 C.ar    1  UNL1        0.0066
     19 C          62.8602   83.6548    9.3124 C.ar    1  UNL1        0.0785
     20 C          61.8273   82.8563    8.7902 C.ar    1  UNL1        0.0433
     21 C          63.6826   83.1680   10.4422 C.2     1  UNL1        0.3381
     22 O          64.8536   82.7445   10.2440 O.2     1  UNL1       -0.2451
     23 O          63.1702   83.1732   11.7370 O.3     1  UNL1       -0.4771
     24 H          63.7248   82.8421   12.5175 H       1  UNL1        0.2954
     25 C          62.1332   89.0410   11.0602 C.2     1  UNL1        0.2839
     26 O          61.5536   89.3190    9.9766 O.2     1  UNL1       -0.2665
     27 N          61.7230   87.8932   11.8215 N.am    1  UNL1       -0.2766
     28 H          61.9795   87.8557   12.8340 H       1  UNL1        0.1553
     29 C          63.5504   88.9021   13.9541 C.3     1  UNL1        0.0345
     30 C          63.8357   89.8578   12.8320 C.ar    1  UNL1        0.0206
     31 C          63.1781   89.9378   11.5954 C.ar    1  UNL1        0.1946
     32 O          63.6362   90.9653   10.9103 O.2     1  UNL1       -0.4492
     33 C          64.5702   91.5452   11.6191 C.ar    1  UNL1        0.1456
     34 C          65.3088   92.6609   11.2504 C.ar    1  UNL1        0.0375
     35 C          66.2780   93.1343   12.1421 C.ar    1  UNL1        0.0036
     36 C          66.5039   92.4863   13.3796 C.ar    1  UNL1        0.0056
     37 C          65.7490   91.3317   13.7301 C.ar    1  UNL1        0.0328
     38 I          66.2451   90.2267   15.4881 I       1  UNL1       -0.0424
     39 C          64.7605   90.9006   12.8192 C.ar    1  UNL1        0.0390
     40 C          67.5375   93.0382   14.2796 C.ar    1  UNL1        0.0004
     41 C          68.8498   92.5379   14.2463 C.ar    1  UNL1        0.0000
     42 C          69.8196   93.0487   15.1144 C.ar    1  UNL1        0.0000
     43 C          69.4840   94.0532   16.0266 C.ar    1  UNL1        0.0000
     44 C          68.1767   94.5457   16.0748 C.ar    1  UNL1        0.0000
     45 C          67.2038   94.0377   15.2083 C.ar    1  UNL1        0.0000
@<TRIPOS>BOND
     1    29    30    1
     2    30    31   ar
     3    31    25    1
     4    25    26    2
     5    25    27   am
     6    27     1    1
     7     1     2   ar
     8     2     3   ar
     9     3     4   ar
    10     4     7    1
    11     7     8    1
    12     8     9    1
    13     9    10    1
    14    10    13    1
    15    13    14    1
    16    14    15    1
    17    15    16   ar
    18    16    17   ar
    19    17    18   ar
    20    18    19   ar
    21    19    21    1
    22    21    22    2
    23    21    23    1
    24    19    20   ar
    25    10    11    1
    26    11    12    1
    27     4     5   ar
    28     5     6   ar
    29    31    32   ar
    30    32    33   ar
    31    33    34   ar
    32    34    35   ar
    33    35    36   ar
    34    36    40    1
    35    40    41   ar
    36    41    42   ar
    37    42    43   ar
    38    43    44   ar
    39    44    45   ar
    40    36    37   ar
    41    37    38    1
    42    37    39   ar
    43    39    30   ar
    44     6     1   ar
    45    39    33   ar
    46    12     7    1
    47    45    40   ar
    48    20    15   ar
    49    27    28    1
    50    23    24    1
@<TRIPOS>MOLECULE
*****
 45 50 0 0 0
SMALL
GASTEIGER

@<TRIPOS>ATOM
      1 C          62.6708   89.6517   11.1507 C.ar    1  UNL1        0.0702
      2 C          63.4423   90.1406   12.2166 C.ar    1  UNL1        0.0191
      3 C          64.2867   91.2354   12.0263 C.ar    1  UNL1        0.0356
      4 C          64.3732   91.8312   10.7589 C.ar    1  UNL1        0.1318
      5 N          63.6234   91.3324    9.7368 N.ar    1  UNL1       -0.2279
      6 C          62.7958   90.2665    9.8986 C.ar    1  UNL1        0.1149
      7 N          65.2154   92.9769   10.5334 N.pl3   1  UNL1       -0.2932
      8 C          65.9818   93.0848    9.2796 C.3     1  UNL1        0.0923
      9 C          67.0100   94.2273    9.3340 C.3     1  UNL1        0.0252
     10 C          67.5578   94.4255   10.7590 C.3     1  UNL1        0.0472
     11 C          66.4060   94.8367   11.7058 C.3     1  UNL1        0.0252
     12 C          65.0555   94.1585   11.3921 C.3     1  UNL1        0.0923
     13 C          68.3429   93.1794   11.2350 C.3     1  UNL1        0.2054
     14 O          67.5574   92.3627   12.1068 O.3     1  UNL1       -0.4755
     15 C          67.5789   92.3860   13.5133 C.ar    1  UNL1        0.1388
     16 C          68.7698   92.4311   14.2665 C.ar    1  UNL1        0.0369
     17 C          68.7190   92.4512   15.6613 C.ar    1  UNL1        0.0033
     18 C          67.4895   92.4271   16.3219 C.ar    1  UNL1        0.0066
     19 C          66.2910   92.3783   15.5899 C.ar    1  UNL1        0.0785
     20 C          66.3499   92.3569   14.1852 C.ar    1  UNL1        0.0433
     21 C          64.9842   92.3491   16.2836 C.2     1  UNL1        0.3381
     22 O          64.0047   91.7392   15.7754 O.2     1  UNL1       -0.2451
     23 O          64.8237   92.9962   17.5062 O.3     1  UNL1       -0.4771
     24 H          63.9334   92.9824   17.9894 H       1  UNL1        0.2954
     25 C          61.9661   87.5117   12.3198 C.2     1  UNL1        0.2839
     26 O          62.7171   87.7315   13.3072 O.2     1  UNL1       -0.2665
     27 N          61.8058   88.5129   11.3013 N.am    1  UNL1       -0.2766
     28 H          60.9676   88.4540   10.6797 H       1  UNL1        0.1553
     29 C          62.9753   84.6155   11.3220 C.3     1  UNL1        0.0345
     30 C          61.6236   84.9866   11.8599 C.ar    1  UNL1        0.0206
     31 C          61.1828   86.2614   12.2455 C.ar    1  UNL1        0.1946
     32 O          59.9069   86.2149   12.5692 O.2     1  UNL1       -0.4492
     33 C          59.4971   84.9796   12.4391 C.ar    1  UNL1        0.1456
     34 C          58.2162   84.5075   12.6898 C.ar    1  UNL1        0.0375
     35 C          57.9680   83.1430   12.5027 C.ar    1  UNL1        0.0036
     36 C          58.9976   82.2693   12.0798 C.ar    1  UNL1        0.0056
     37 C          60.3095   82.7702   11.8473 C.ar    1  UNL1        0.0328
     38 I          61.9086   81.4187   11.4307 I       1  UNL1       -0.0424
     39 C          60.5153   84.1563   12.0179 C.ar    1  UNL1        0.0390
     40 C          58.6705   80.8404   11.8952 C.ar    1  UNL1        0.0004
     41 C          58.9595   79.9086   12.9062 C.ar    1  UNL1        0.0000
     42 C          58.6674   78.5541   12.7188 C.ar    1  UNL1        0.0000
     43 C          58.0953   78.1203   11.5194 C.ar    1  UNL1        0.0000
     44 C          57.8183   79.0399   10.5039 C.ar    1  UNL1        0.0000
     45 C          58.1087   80.3954   10.6873 C.ar    1  UNL1        0.0000
@<TRIPOS>BOND
     1    29    30    1
     2    30    31   ar
     3    31    25    1
     4    25    26    2
     5    25    27   am
     6    27     1    1
     7     1     2   ar
     8     2     3   ar
     9     3     4   ar
    10     4     7    1
    11     7     8    1
    12     8     9    1
    13     9    10    1
    14    10    13    1
    15    13    14    1
    16    14    15    1
    17    15    16   ar
    18    16    17   ar
    19    17    18   ar
    20    18    19   ar
    21    19    21    1
    22    21    22    2
    23    21    23    1
    24    19    20   ar
    25    10    11    1
    26    11    12    1
    27     4     5   ar
    28     5     6   ar
    29    31    32   ar
    30    32    33   ar
    31    33    34   ar
    32    34    35   ar
    33    35    36   ar
    34    36    40    1
    35    40    41   ar
    36    41    42   ar
    37    42    43   ar
    38    43    44   ar
    39    44    45   ar
    40    36    37   ar
    41    37    38    1
    42    37    39   ar
    43    39    30   ar
    44     6     1   ar
    45    39    33   ar
    46    12     7    1
    47    45    40   ar
    48    20    15   ar
    49    27    28    1
    50    23    24    1
@<TRIPOS>MOLECULE
*****
 45 50 0 0 0
SMALL
GASTEIGER

@<TRIPOS>ATOM
      1 C          60.4000   89.6346    8.9044 C.ar    1  UNL1        0.0702
      2 C          60.1748   90.3178   10.1097 C.ar    1  UNL1        0.0191
      3 C          59.7120   89.6274   11.2308 C.ar    1  UNL1        0.0356
      4 C          59.4556   88.2509   11.1394 C.ar    1  UNL1        0.1318
      5 N          59.6708   87.6113    9.9562 N.ar    1  UNL1       -0.2279
      6 C          60.1195   88.2635    8.8513 C.ar    1  UNL1        0.1149
      7 N          59.0009   87.5033   12.2827 N.pl3   1  UNL1       -0.2932
      8 C          59.9109   86.5497   12.9410 C.3     1  UNL1        0.0923
      9 C          59.1736   85.6670   13.9623 C.3     1  UNL1        0.0252
     10 C          57.7227   85.3928   13.5270 C.3     1  UNL1        0.0472
     11 C          56.9390   86.7247   13.4630 C.3     1  UNL1        0.0252
     12 C          57.7713   87.9262   12.9671 C.3     1  UNL1        0.0923
     13 C          57.6775   84.5778   12.2119 C.3     1  UNL1        0.2054
     14 O          58.1720   83.2493   12.3977 O.3     1  UNL1       -0.4755
     15 C          58.6479   82.3898   11.3908 C.ar    1  UNL1        0.1388
     16 C          57.9054   82.0674   10.2365 C.ar    1  UNL1        0.0369
     17 C          58.4379   81.2058    9.2760 C.ar    1  UNL1        0.0033
     18 C          59.7094   80.6564    9.4499 C.ar    1  UNL1        0.0066
     19 C          60.4643   80.9620   10.5951 C.ar    1  UNL1        0.0785
     20 C          59.9209   81.8295   11.5590 C.ar    1  UNL1        0.0433
     21 C          61.8115   80.3807   10.7876 C.2     1  UNL1        0.3381
     22 O          62.1841   79.3908   10.1012 O.2     1  UNL1       -0.2451
     23 O          62.6817   80.9223   11.7302 O.3     1  UNL1       -0.4771
     24 H          63.6060   80.5318   11.8700 H       1  UNL1        0.2954
     25 C          60.1517   90.3050    6.4689 C.2     1  UNL1        0.2839
     26 O          58.9520   89.9229    6.4224 O.2     1  UNL1       -0.2665
     27 N          60.8555   90.3142    7.7218 N.am    1  UNL1       -0.2766
     28 H          61.7092   90.9116    7.8033 H       1  UNL1        0.1553
     29 C          58.8777   92.2005    4.1916 C.3     1  UNL1        0.0345
     30 C          60.2856   91.6873    4.2834 C.ar    1  UNL1        0.0206
     31 C          60.8140   90.8237    5.2545 C.ar    1  UNL1        0.1946
     32 O          62.0576   90.5146    4.9497 O.2     1  UNL1       -0.4492
     33 C          62.3773   91.1451    3.8491 C.ar    1  UNL1        0.1456
     34 C          63.6019   91.0933    3.1980 C.ar    1  UNL1        0.0375
     35 C          63.7608   91.8494    2.0311 C.ar    1  UNL1        0.0036
     36 C          62.7050   92.6512    1.5365 C.ar    1  UNL1        0.0056
     37 C          61.4633   92.7056    2.2303 C.ar    1  UNL1        0.0328
     38 I          59.9558   94.0847    1.6115 I       1  UNL1       -0.0424
     39 C          61.3299   91.9073    3.3868 C.ar    1  UNL1        0.0390
     40 C          62.9335   93.4216    0.2967 C.ar    1  UNL1        0.0004
     41 C          62.0004   93.3734   -0.7524 C.ar    1  UNL1        0.0000
     42 C          62.2309   94.0876   -1.9322 C.ar    1  UNL1        0.0000
     43 C          63.3969   94.8449   -2.0762 C.ar    1  UNL1        0.0000
     44 C          64.3362   94.8860   -1.0419 C.ar    1  UNL1        0.0000
     45 C          64.1095   94.1734    0.1397 C.ar    1  UNL1        0.0000
@<TRIPOS>BOND
     1    29    30    1
     2    30    31   ar
     3    31    25    1
     4    25    26    2
     5    25    27   am
     6    27     1    1
     7     1     2   ar
     8     2     3   ar
     9     3     4   ar
    10     4     7    1
    11     7     8    1
    12     8     9    1
    13     9    10    1
    14    10    13    1
    15    13    14    1
    16    14    15    1
    17    15    16   ar
    18    16    17   ar
    19    17    18   ar
    20    18    19   ar
    21    19    21    1
    22    21    22    2
    23    21    23    1
    24    19    20   ar
    25    10    11    1
    26    11    12    1
    27     4     5   ar
    28     5     6   ar
    29    31    32   ar
    30    32    33   ar
    31    33    34   ar
    32    34    35   ar
    33    35    36   ar
    34    36    40    1
    35    40    41   ar
    36    41    42   ar
    37    42    43   ar
    38    43    44   ar
    39    44    45   ar
    40    36    37   ar
    41    37    38    1
    42    37    39   ar
    43    39    30   ar
    44     6     1   ar
    45    39    33   ar
    46    12     7    1
    47    45    40   ar
    48    20    15   ar
    49    27    28    1
    50    23    24    1
@<TRIPOS>MOLECULE
*****
 45 50 0 0 0
SMALL
GASTEIGER

@<TRIPOS>ATOM
      1 C          61.4181   86.8064   10.5455 C.ar    1  UNL1        0.0702
      2 C          60.0296   86.7192   10.7329 C.ar    1  UNL1        0.0191
      3 C          59.2916   85.7439   10.0607 C.ar    1  UNL1        0.0356
      4 C          59.9435   84.8647    9.1827 C.ar    1  UNL1        0.1318
      5 N          61.2899   84.9756    9.0082 N.ar    1  UNL1       -0.2279
      6 C          62.0284   85.9184    9.6509 C.ar    1  UNL1        0.1149
      7 N          59.2168   83.8316    8.4919 N.pl3   1  UNL1       -0.2932
      8 C          57.7576   83.7241    8.6652 C.3     1  UNL1        0.0923
      9 C          57.2050   82.4190    8.0676 C.3     1  UNL1        0.0252
     10 C          58.2249   81.2713    8.1797 C.3     1  UNL1        0.0472
     11 C          59.4900   81.6188    7.3606 C.3     1  UNL1        0.0252
     12 C          59.8733   83.1136    7.3907 C.3     1  UNL1        0.0923
     13 C          58.5152   80.9231    9.6596 C.3     1  UNL1        0.2054
     14 O          59.9194   80.8595    9.9205 O.3     1  UNL1       -0.4755
     15 C          60.6528   81.7303   10.7469 C.ar    1  UNL1        0.1388
     16 C          60.0640   82.5056   11.7667 C.ar    1  UNL1        0.0369
     17 C          60.8513   83.3511   12.5502 C.ar    1  UNL1        0.0033
     18 C          62.2272   83.4362   12.3311 C.ar    1  UNL1        0.0066
     19 C          62.8332   82.6748   11.3173 C.ar    1  UNL1        0.0785
     20 C          62.0338   81.8263   10.5310 C.ar    1  UNL1        0.0433
     21 C          64.2907   82.7625   11.0772 C.2     1  UNL1        0.3381
     22 O          64.7635   82.5409    9.9295 O.2     1  UNL1       -0.2451
     23 O          65.1552   83.0910   12.1183 O.3     1  UNL1       -0.4771
     24 H          66.1547   83.1536   11.9646 H       1  UNL1        0.2954
     25 C          62.3250   89.1686   10.7464 C.2     1  UNL1        0.2839
     26 O          61.5131   89.6184    9.8944 O.2     1  UNL1       -0.2665
     27 N          62.2098   87.8108   11.2030 N.am    1  UNL1       -0.2766
     28 H          62.6654   87.5546   12.1081 H       1  UNL1        0.1553
     29 C          63.5703   89.0170   13.7177 C.3     1  UNL1        0.0345
     30 C          63.9289   89.9702   12.6146 C.ar    1  UNL1        0.0206
     31 C          63.3451   90.0560   11.3419 C.ar    1  UNL1        0.1946
     32 O          63.8514   91.0792   10.6851 O.2     1  UNL1       -0.4492
     33 C          64.7477   91.6508   11.4472 C.ar    1  UNL1        0.1456
     34 C          65.5166   92.7598   11.1226 C.ar    1  UNL1        0.0375
     35 C          66.4365   93.2245   12.0693 C.ar    1  UNL1        0.0036
     36 C          66.5843   92.5746   13.3176 C.ar    1  UNL1        0.0056
     37 C          65.8000   91.4268   13.6230 C.ar    1  UNL1        0.0328
     38 I          66.1831   90.3175   15.4063 I       1  UNL1       -0.0424
     39 C          64.8622   91.0046   12.6560 C.ar    1  UNL1        0.0390
     40 C          67.5687   93.1172   14.2764 C.ar    1  UNL1        0.0004
     41 C          68.8883   92.6355   14.2895 C.ar    1  UNL1        0.0000
     42 C          69.8111   93.1371   15.2126 C.ar    1  UNL1        0.0000
     43 C          69.4206   94.1135   16.1335 C.ar    1  UNL1        0.0000
     44 C          68.1055   94.5870   16.1353 C.ar    1  UNL1        0.0000
     45 C          67.1796   94.0882   15.2137 C.ar    1  UNL1        0.0000
@<TRIPOS>BOND
     1    29    30    1
     2    30    31   ar
     3    31    25    1
     4    25    26    2
     5    25    27   am
     6    27     1    1
     7     1     2   ar
     8     2     3   ar
     9     3     4   ar
    10     4     7    1
    11     7     8    1
    12     8     9    1
    13     9    10    1
    14    10    13    1
    15    13    14    1
    16    14    15    1
    17    15    16   ar
    18    16    17   ar
    19    17    18   ar
    20    18    19   ar
    21    19    21    1
    22    21    22    2
    23    21    23    1
    24    19    20   ar
    25    10    11    1
    26    11    12    1
    27     4     5   ar
    28     5     6   ar
    29    31    32   ar
    30    32    33   ar
    31    33    34   ar
    32    34    35   ar
    33    35    36   ar
    34    36    40    1
    35    40    41   ar
    36    41    42   ar
    37    42    43   ar
    38    43    44   ar
    39    44    45   ar
    40    36    37   ar
    41    37    38    1
    42    37    39   ar
    43    39    30   ar
    44     6     1   ar
    45    39    33   ar
    46    12     7    1
    47    45    40   ar
    48    20    15   ar
    49    27    28    1
    50    23    24    1
@<TRIPOS>MOLECULE
*****
 45 50 0 0 0
SMALL
GASTEIGER

@<TRIPOS>ATOM
      1 C          63.6916   88.7179   13.5554 C.ar    1  UNL1        0.0702
      2 C          63.7501   90.0022   12.9918 C.ar    1  UNL1        0.0191
      3 C          64.6641   90.9391   13.4759 C.ar    1  UNL1        0.0356
      4 C          65.5099   90.5951   14.5412 C.ar    1  UNL1        0.1318
      5 N          65.4274   89.3466   15.0797 N.ar    1  UNL1       -0.2279
      6 C          64.5442   88.4188   14.6256 C.ar    1  UNL1        0.1149
      7 N          66.4810   91.5288   15.0491 N.pl3   1  UNL1       -0.2932
      8 C          66.1230   92.4195   16.1669 C.3     1  UNL1        0.0923
      9 C          67.1838   93.5104   16.3915 C.3     1  UNL1        0.0252
     10 C          67.8519   93.9281   15.0690 C.3     1  UNL1        0.0472
     11 C          68.5995   92.7188   14.4601 C.3     1  UNL1        0.0252
     12 C          67.8920   91.3638   14.6738 C.3     1  UNL1        0.0923
     13 C          66.8294   94.5793   14.1067 C.3     1  UNL1        0.2054
     14 O          66.4171   93.6711   13.0823 O.3     1  UNL1       -0.4755
     15 C          66.5691   93.8555   11.6959 C.ar    1  UNL1        0.1388
     16 C          65.7883   94.7596   10.9472 C.ar    1  UNL1        0.0369
     17 C          65.9910   94.8925    9.5725 C.ar    1  UNL1        0.0033
     18 C          66.9680   94.1320    8.9277 C.ar    1  UNL1        0.0066
     19 C          67.7544   93.2223    9.6550 C.ar    1  UNL1        0.0785
     20 C          67.5436   93.0928   11.0392 C.ar    1  UNL1        0.0433
     21 C          68.7895   92.4104    8.9775 C.2     1  UNL1        0.3381
     22 O          68.4651   91.5637    8.1014 O.2     1  UNL1       -0.2451
     23 O          70.1338   92.5741    9.3018 O.3     1  UNL1       -0.4771
     24 H          70.8504   92.0233    8.8440 H       1  UNL1        0.2954
     25 C          61.6894   87.1987   13.9099 C.2     1  UNL1        0.2839
     26 O          61.3646   87.7748   14.9822 O.2     1  UNL1       -0.2665
     27 N          62.7493   87.7322   13.0991 N.am    1  UNL1       -0.2766
     28 H          62.7937   87.4460   12.0949 H       1  UNL1        0.1553
     29 C          62.8592   84.3244   13.0309 C.3     1  UNL1        0.0345
     30 C          61.4222   84.7537   13.1001 C.ar    1  UNL1        0.0206
     31 C          60.9294   86.0228   13.4383 C.ar    1  UNL1        0.1946
     32 O          59.6208   86.0488   13.2910 O.2     1  UNL1       -0.4492
     33 C          59.2301   84.8637   12.8990 C.ar    1  UNL1        0.1456
     34 C          57.9242   84.4730   12.6377 C.ar    1  UNL1        0.0375
     35 C          57.6991   83.1517   12.2354 C.ar    1  UNL1        0.0036
     36 C          58.7727   82.2385   12.1091 C.ar    1  UNL1        0.0056
     37 C          60.1024   82.6540   12.4010 C.ar    1  UNL1        0.0328
     38 I          61.6850   81.2214   12.4293 I       1  UNL1       -0.0424
     39 C          60.2946   84.0014   12.7754 C.ar    1  UNL1        0.0390
     40 C          58.4702   80.8591   11.6750 C.ar    1  UNL1        0.0004
     41 C          58.7767   79.7689   12.5063 C.ar    1  UNL1        0.0000
     42 C          58.5079   78.4638   12.0826 C.ar    1  UNL1        0.0000
     43 C          57.9418   78.2383   10.8247 C.ar    1  UNL1        0.0000
     44 C          57.6473   79.3175    9.9867 C.ar    1  UNL1        0.0000
     45 C          57.9144   80.6243   10.4066 C.ar    1  UNL1        0.0000
@<TRIPOS>BOND
     1    29    30    1
     2    30    31   ar
     3    31    25    1
     4    25    26    2
     5    25    27   am
     6    27     1    1
     7     1     2   ar
     8     2     3   ar
     9     3     4   ar
    10     4     7    1
    11     7     8    1
    12     8     9    1
    13     9    10    1
    14    10    13    1
    15    13    14    1
    16    14    15    1
    17    15    16   ar
    18    16    17   ar
    19    17    18   ar
    20    18    19   ar
    21    19    21    1
    22    21    22    2
    23    21    23    1
    24    19    20   ar
    25    10    11    1
    26    11    12    1
    27     4     5   ar
    28     5     6   ar
    29    31    32   ar
    30    32    33   ar
    31    33    34   ar
    32    34    35   ar
    33    35    36   ar
    34    36    40    1
    35    40    41   ar
    36    41    42   ar
    37    42    43   ar
    38    43    44   ar
    39    44    45   ar
    40    36    37   ar
    41    37    38    1
    42    37    39   ar
    43    39    30   ar
    44     6     1   ar
    45    39    33   ar
    46    12     7    1
    47    45    40   ar
    48    20    15   ar
    49    27    28    1
    50    23    24    1
