@<TRIPOS>MOLECULE
*****
 37 41 0 0 0
SMALL
GASTEIGER

@<TRIPOS>ATOM
      1 N         -23.3278   -7.9935  -14.0298 N.3     1  UNL1       -0.2679
      2 C         -22.4291   -7.3504  -13.0154 C.3     1  UNL1        0.0978
      3 C         -23.1433   -6.4993  -11.9303 C.3     1  UNL1        0.0224
      4 C         -22.1369   -5.8089  -10.9715 C.3     1  UNL1        0.0065
      5 C         -20.7601   -6.5068  -10.8477 C.3     1  UNL1        0.0277
      6 C         -20.8323   -7.9737  -11.1754 C.ar    1  UNL1       -0.0073
      7 C         -20.0984   -8.9249  -10.4547 C.ar    1  UNL1       -0.0015
      8 C         -20.2152  -10.2788  -10.7744 C.ar    1  UNL1        0.0203
      9 C         -21.0704  -10.6661  -11.8075 C.ar    1  UNL1        0.0985
     10 N         -21.7603   -9.7276  -12.5085 N.ar    1  UNL1       -0.2471
     11 C         -21.6390   -8.3959  -12.2440 C.ar    1  UNL1        0.0695
     12 C         -22.7589   -7.8117  -15.3957 C.3     1  UNL1        0.0725
     13 C         -21.2215   -7.8229  -15.3445 C.3     1  UNL1        0.0188
     14 C         -20.5975   -8.8995  -16.2501 C.3     1  UNL1        0.0185
     15 C         -21.4957  -10.1372  -16.3779 C.3     1  UNL1        0.0686
     16 N         -21.4031  -10.9643  -15.1663 N.3     1  UNL1       -0.2985
     17 H         -20.5369  -11.5456  -15.2630 H       1  UNL1        0.1232
     18 C         -25.1278  -15.2161  -16.2819 C.3     1  UNL1        0.0000
     19 C         -24.4339  -14.0842  -15.4937 C.3     1  UNL1        0.0001
     20 C         -25.0693  -14.0307  -14.0835 C.3     1  UNL1        0.0000
     21 C         -24.6472  -12.7234  -16.2407 C.3     1  UNL1        0.0014
     22 C         -23.3771  -11.8597  -16.3587 C.3     1  UNL1        0.0157
     23 C         -22.5666  -11.8674  -15.0507 C.3     1  UNL1        0.0540
     24 C         -22.1028  -13.3077  -14.6985 C.3     1  UNL1        0.0157
     25 C         -22.9247  -14.4218  -15.3765 C.3     1  UNL1        0.0014
     26 C         -24.7350   -7.5062  -14.0003 C.3     1  UNL1        0.0886
     27 C         -25.7333   -8.6888  -13.8921 C.3     1  UNL1        0.0748
     28 C         -25.1606   -9.8743  -13.0960 C.3     1  UNL1        0.0432
     29 C         -25.2170   -9.6462  -11.6147 C.ar    1  UNL1       -0.0234
     30 C         -24.3961  -10.4073  -10.7670 C.ar    1  UNL1       -0.0045
     31 C         -24.4843  -10.2604   -9.3808 C.ar    1  UNL1       -0.0003
     32 C         -25.4001   -9.3626   -8.8306 C.ar    1  UNL1       -0.0003
     33 C         -26.2317   -8.6121   -9.6652 C.ar    1  UNL1       -0.0032
     34 C         -26.1590   -8.7585  -11.0602 C.ar    1  UNL1       -0.0103
     35 C         -27.0253   -7.8817  -11.9324 C.3     1  UNL1        0.0953
     36 N         -27.0425   -8.2713  -13.3547 N.3     1  UNL1       -0.2934
     37 H         -27.7099   -9.0717  -13.4630 H       1  UNL1        0.1236
@<TRIPOS>BOND
     1    18    19    1
     2    19    20    1
     3    19    21    1
     4    21    22    1
     5    22    23    1
     6    23    16    1
     7    16    15    1
     8    15    14    1
     9    14    13    1
    10    13    12    1
    11    12     1    1
    12     1    26    1
    13    26    27    1
    14    27    28    1
    15    28    29    1
    16    29    30   ar
    17    30    31   ar
    18    31    32   ar
    19    32    33   ar
    20    33    34   ar
    21    34    35    1
    22    35    36    1
    23     1     2    1
    24     2     3    1
    25     3     4    1
    26     4     5    1
    27     5     6    1
    28     6     7   ar
    29     7     8   ar
    30     8     9   ar
    31     9    10   ar
    32    10    11   ar
    33    23    24    1
    34    24    25    1
    35    25    19    1
    36    36    27    1
    37    11     2    1
    38    34    29   ar
    39    11     6   ar
    40    16    17    1
    41    36    37    1
@<TRIPOS>MOLECULE
*****
 37 41 0 0 0
SMALL
GASTEIGER

@<TRIPOS>ATOM
      1 N         -22.6027  -10.1400  -11.6496 N.3     1  UNL1       -0.2679
      2 C         -23.1136  -10.7405  -12.9257 C.3     1  UNL1        0.0978
      3 C         -24.6513  -10.9448  -13.0025 C.3     1  UNL1        0.0224
      4 C         -25.0843  -11.6408  -14.3203 C.3     1  UNL1        0.0065
      5 C         -24.1103  -11.4620  -15.5107 C.3     1  UNL1        0.0277
      6 C         -23.2721  -10.2190  -15.3807 C.ar    1  UNL1       -0.0073
      7 C         -22.9640   -9.4209  -16.4900 C.ar    1  UNL1       -0.0015
      8 C         -22.2056   -8.2610  -16.3208 C.ar    1  UNL1        0.0203
      9 C         -21.7699   -7.9095  -15.0420 C.ar    1  UNL1        0.0985
     10 N         -22.0624   -8.7061  -13.9799 N.ar    1  UNL1       -0.2471
     11 C         -22.7692   -9.8633  -14.1191 C.ar    1  UNL1        0.0695
     12 C         -21.3334  -10.8112  -11.2484 C.3     1  UNL1        0.0725
     13 C         -20.2188   -9.7725  -11.0359 C.3     1  UNL1        0.0188
     14 C         -19.2177  -10.1804   -9.9404 C.3     1  UNL1        0.0185
     15 C         -19.3271   -9.2869   -8.6975 C.3     1  UNL1        0.0686
     16 N         -18.2275   -9.5712   -7.7644 N.3     1  UNL1       -0.2985
     17 H         -17.9605  -10.5739   -7.9088 H       1  UNL1        0.1232
     18 C         -18.1424   -8.2157   -2.1652 C.3     1  UNL1        0.0000
     19 C         -18.7252   -8.6201   -3.5366 C.3     1  UNL1        0.0001
     20 C         -20.2656   -8.6767   -3.3984 C.3     1  UNL1        0.0000
     21 C         -18.1619  -10.0232   -3.9481 C.3     1  UNL1        0.0014
     22 C         -17.6880  -10.1112   -5.4111 C.3     1  UNL1        0.0157
     23 C         -18.6625   -9.3961   -6.3634 C.3     1  UNL1        0.0540
     24 C         -18.7676   -7.8864   -6.0123 C.3     1  UNL1        0.0157
     25 C         -18.3312   -7.5379   -4.5754 C.3     1  UNL1        0.0014
     26 C         -23.5732  -10.1795  -10.5204 C.3     1  UNL1        0.0886
     27 C         -23.7944   -8.7644   -9.9244 C.3     1  UNL1        0.0748
     28 C         -23.7081   -7.6556  -10.9875 C.3     1  UNL1        0.0432
     29 C         -24.9637   -7.5469  -11.8005 C.ar    1  UNL1       -0.0234
     30 C         -24.9272   -6.8957  -13.0441 C.ar    1  UNL1       -0.0045
     31 C         -26.0988   -6.7216  -13.7842 C.ar    1  UNL1       -0.0003
     32 C         -27.3163   -7.1849  -13.2837 C.ar    1  UNL1       -0.0003
     33 C         -27.3652   -7.8204  -12.0406 C.ar    1  UNL1       -0.0032
     34 C         -26.1952   -7.9923  -11.2828 C.ar    1  UNL1       -0.0103
     35 C         -26.2759   -8.7438   -9.9756 C.3     1  UNL1        0.0953
     36 N         -25.0511   -8.6681   -9.1575 N.3     1  UNL1       -0.2934
     37 H         -25.0556   -7.7500   -8.6524 H       1  UNL1        0.1236
@<TRIPOS>BOND
     1    18    19    1
     2    19    20    1
     3    19    21    1
     4    21    22    1
     5    22    23    1
     6    23    16    1
     7    16    15    1
     8    15    14    1
     9    14    13    1
    10    13    12    1
    11    12     1    1
    12     1    26    1
    13    26    27    1
    14    27    28    1
    15    28    29    1
    16    29    30   ar
    17    30    31   ar
    18    31    32   ar
    19    32    33   ar
    20    33    34   ar
    21    34    35    1
    22    35    36    1
    23     1     2    1
    24     2     3    1
    25     3     4    1
    26     4     5    1
    27     5     6    1
    28     6     7   ar
    29     7     8   ar
    30     8     9   ar
    31     9    10   ar
    32    10    11   ar
    33    23    24    1
    34    24    25    1
    35    25    19    1
    36    36    27    1
    37    11     2    1
    38    34    29   ar
    39    11     6   ar
    40    16    17    1
    41    36    37    1
@<TRIPOS>MOLECULE
*****
 37 41 0 0 0
SMALL
GASTEIGER

@<TRIPOS>ATOM
      1 N         -23.2055   -8.9920  -12.7139 N.3     1  UNL1       -0.2679
      2 C         -24.4555   -8.9752  -11.8848 C.3     1  UNL1        0.0978
      3 C         -24.2514   -9.1828  -10.3593 C.3     1  UNL1        0.0224
      4 C         -25.5983   -9.2294   -9.5895 C.3     1  UNL1        0.0065
      5 C         -26.7764   -8.4976  -10.2781 C.3     1  UNL1        0.0277
      6 C         -26.3080   -7.4137  -11.2110 C.ar    1  UNL1       -0.0073
      7 C         -26.9841   -6.1912  -11.3158 C.ar    1  UNL1       -0.0015
      8 C         -26.5001   -5.2022  -12.1741 C.ar    1  UNL1        0.0203
      9 C         -25.3409   -5.4455  -12.9128 C.ar    1  UNL1        0.0985
     10 N         -24.7086   -6.6448  -12.8126 N.ar    1  UNL1       -0.2471
     11 C         -25.1776   -7.6429  -12.0114 C.ar    1  UNL1        0.0695
     12 C         -23.5309   -9.4024  -14.1097 C.3     1  UNL1        0.0725
     13 C         -23.0225   -8.3522  -15.1121 C.3     1  UNL1        0.0188
     14 C         -22.3144   -8.9751  -16.3283 C.3     1  UNL1        0.0185
     15 C         -21.5906  -10.2796  -15.9686 C.3     1  UNL1        0.0686
     16 N         -21.8169  -11.2939  -17.0082 N.3     1  UNL1       -0.2985
     17 H         -22.3064  -10.8117  -17.7991 H       1  UNL1        0.1232
     18 C         -25.5632  -14.2026  -13.7371 C.3     1  UNL1        0.0000
     19 C         -24.6733  -13.8731  -14.9550 C.3     1  UNL1        0.0001
     20 C         -24.9364  -14.9468  -16.0381 C.3     1  UNL1        0.0000
     21 C         -23.1680  -13.8935  -14.5202 C.3     1  UNL1        0.0014
     22 C         -22.3412  -12.7040  -15.0442 C.3     1  UNL1        0.0157
     23 C         -22.6847  -12.3802  -16.5088 C.3     1  UNL1        0.0540
     24 C         -24.1812  -11.9876  -16.6497 C.3     1  UNL1        0.0157
     25 C         -25.0762  -12.4754  -15.4932 C.3     1  UNL1        0.0014
     26 C         -22.1213   -9.8584  -12.1729 C.3     1  UNL1        0.0886
     27 C         -20.7456   -9.1454  -12.2507 C.3     1  UNL1        0.0748
     28 C         -20.8723   -7.6547  -12.6100 C.3     1  UNL1        0.0432
     29 C         -21.2783   -6.8177  -11.4336 C.ar    1  UNL1       -0.0234
     30 C         -21.8260   -5.5428  -11.6492 C.ar    1  UNL1       -0.0045
     31 C         -22.1448   -4.7194  -10.5670 C.ar    1  UNL1       -0.0003
     32 C         -21.9083   -5.1571   -9.2631 C.ar    1  UNL1       -0.0003
     33 C         -21.3495   -6.4177   -9.0390 C.ar    1  UNL1       -0.0032
     34 C         -21.0157   -7.2504  -10.1196 C.ar    1  UNL1       -0.0103
     35 C         -20.4771   -8.6325   -9.8370 C.3     1  UNL1        0.0953
     36 N         -19.9473   -9.3298  -11.0237 N.3     1  UNL1       -0.2934
     37 H         -18.9805   -8.9692  -11.2062 H       1  UNL1        0.1236
@<TRIPOS>BOND
     1    18    19    1
     2    19    20    1
     3    19    21    1
     4    21    22    1
     5    22    23    1
     6    23    16    1
     7    16    15    1
     8    15    14    1
     9    14    13    1
    10    13    12    1
    11    12     1    1
    12     1    26    1
    13    26    27    1
    14    27    28    1
    15    28    29    1
    16    29    30   ar
    17    30    31   ar
    18    31    32   ar
    19    32    33   ar
    20    33    34   ar
    21    34    35    1
    22    35    36    1
    23     1     2    1
    24     2     3    1
    25     3     4    1
    26     4     5    1
    27     5     6    1
    28     6     7   ar
    29     7     8   ar
    30     8     9   ar
    31     9    10   ar
    32    10    11   ar
    33    23    24    1
    34    24    25    1
    35    25    19    1
    36    36    27    1
    37    11     2    1
    38    34    29   ar
    39    11     6   ar
    40    16    17    1
    41    36    37    1
@<TRIPOS>MOLECULE
*****
 37 41 0 0 0
SMALL
GASTEIGER

@<TRIPOS>ATOM
      1 N         -22.9502   -7.3895  -11.6861 N.3     1  UNL1       -0.2679
      2 C         -24.4229   -7.4022  -11.4010 C.3     1  UNL1        0.0978
      3 C         -25.3409   -7.6666  -12.6255 C.3     1  UNL1        0.0224
      4 C         -26.8463   -7.5850  -12.2570 C.3     1  UNL1        0.0065
      5 C         -27.1768   -7.8651  -10.7704 C.3     1  UNL1        0.0277
      6 C         -26.1301   -8.7159  -10.1034 C.ar    1  UNL1       -0.0073
      7 C         -26.4719   -9.7136   -9.1812 C.ar    1  UNL1       -0.0015
      8 C         -25.4710  -10.4985   -8.6058 C.ar    1  UNL1        0.0203
      9 C         -24.1398  -10.2805   -8.9650 C.ar    1  UNL1        0.0985
     10 N         -23.8251   -9.2953   -9.8472 N.ar    1  UNL1       -0.2471
     11 C         -24.7762   -8.4888  -10.3976 C.ar    1  UNL1        0.0695
     12 C         -22.3221   -6.1993  -11.0449 C.3     1  UNL1        0.0725
     13 C         -21.7347   -6.5737   -9.6733 C.3     1  UNL1        0.0188
     14 C         -20.6348   -7.6464   -9.7628 C.3     1  UNL1        0.0185
     15 C         -20.2917   -8.2368   -8.3884 C.3     1  UNL1        0.0686
     16 N         -19.2392   -7.4428   -7.7386 N.3     1  UNL1       -0.2985
     17 H         -18.4566   -7.3555   -8.4296 H       1  UNL1        0.1232
     18 C         -17.9580   -8.5277   -2.2269 C.3     1  UNL1        0.0000
     19 C         -18.1534   -8.7929   -3.7354 C.3     1  UNL1        0.0001
     20 C         -17.8934  -10.2973   -3.9892 C.3     1  UNL1        0.0000
     21 C         -17.1421   -7.9184   -4.5528 C.3     1  UNL1        0.0014
     22 C         -17.7614   -7.2040   -5.7689 C.3     1  UNL1        0.0157
     23 C         -18.7287   -8.1257   -6.5321 C.3     1  UNL1        0.0540
     24 C         -19.9057   -8.5663   -5.6188 C.3     1  UNL1        0.0157
     25 C         -19.6174   -8.4431   -4.1094 C.3     1  UNL1        0.0014
     26 C         -22.6046   -7.4237  -13.1346 C.3     1  UNL1        0.0886
     27 C         -21.6469   -8.6020  -13.4525 C.3     1  UNL1        0.0748
     28 C         -22.0020   -9.8791  -12.6716 C.3     1  UNL1        0.0432
     29 C         -23.1614  -10.6132  -13.2769 C.ar    1  UNL1       -0.0234
     30 C         -23.8701  -11.5448  -12.5012 C.ar    1  UNL1       -0.0045
     31 C         -24.9073  -12.2900  -13.0664 C.ar    1  UNL1       -0.0003
     32 C         -25.2367  -12.1200  -14.4118 C.ar    1  UNL1       -0.0003
     33 C         -24.5274  -11.2067  -15.1955 C.ar    1  UNL1       -0.0032
     34 C         -23.4759  -10.4588  -14.6408 C.ar    1  UNL1       -0.0103
     35 C         -22.7771   -9.4327  -15.5003 C.3     1  UNL1        0.0953
     36 N         -21.5517   -8.8736  -14.8996 N.3     1  UNL1       -0.2934
     37 H         -20.7743   -9.5594  -15.0523 H       1  UNL1        0.1236
@<TRIPOS>BOND
     1    18    19    1
     2    19    20    1
     3    19    21    1
     4    21    22    1
     5    22    23    1
     6    23    16    1
     7    16    15    1
     8    15    14    1
     9    14    13    1
    10    13    12    1
    11    12     1    1
    12     1    26    1
    13    26    27    1
    14    27    28    1
    15    28    29    1
    16    29    30   ar
    17    30    31   ar
    18    31    32   ar
    19    32    33   ar
    20    33    34   ar
    21    34    35    1
    22    35    36    1
    23     1     2    1
    24     2     3    1
    25     3     4    1
    26     4     5    1
    27     5     6    1
    28     6     7   ar
    29     7     8   ar
    30     8     9   ar
    31     9    10   ar
    32    10    11   ar
    33    23    24    1
    34    24    25    1
    35    25    19    1
    36    36    27    1
    37    11     2    1
    38    34    29   ar
    39    11     6   ar
    40    16    17    1
    41    36    37    1
@<TRIPOS>MOLECULE
*****
 37 41 0 0 0
SMALL
GASTEIGER

@<TRIPOS>ATOM
      1 N         -24.0916   -7.6116  -13.4311 N.3     1  UNL1       -0.2679
      2 C         -25.5731   -7.7742  -13.2613 C.3     1  UNL1        0.0978
      3 C         -26.0938   -7.6930  -11.8004 C.3     1  UNL1        0.0224
      4 C         -27.6218   -7.9489  -11.7084 C.3     1  UNL1        0.0065
      5 C         -28.4206   -7.6384  -12.9980 C.3     1  UNL1        0.0277
      6 C         -27.7267   -6.6269  -13.8696 C.ar    1  UNL1       -0.0073
      7 C         -28.4398   -5.6359  -14.5565 C.ar    1  UNL1       -0.0015
      8 C         -27.7541   -4.7002  -15.3333 C.ar    1  UNL1        0.0203
      9 C         -26.3616   -4.7630  -15.4084 C.ar    1  UNL1        0.0985
     10 N         -25.6876   -5.7431  -14.7503 N.ar    1  UNL1       -0.2471
     11 C         -26.3317   -6.6924  -14.0142 C.ar    1  UNL1        0.0695
     12 C         -23.5904   -8.5810  -14.4468 C.3     1  UNL1        0.0725
     13 C         -23.0424   -7.8371  -15.6767 C.3     1  UNL1        0.0188
     14 C         -21.8782   -8.5780  -16.3581 C.3     1  UNL1        0.0185
     15 C         -21.6519   -9.9723  -15.7583 C.3     1  UNL1        0.0686
     16 N         -21.8129  -11.0061  -16.7907 N.3     1  UNL1       -0.2985
     17 H         -22.2805  -10.5465  -17.6079 H       1  UNL1        0.1232
     18 C         -25.6327  -13.9496  -13.6377 C.3     1  UNL1        0.0000
     19 C         -24.6962  -13.6196  -14.8201 C.3     1  UNL1        0.0001
     20 C         -24.8831  -14.7189  -15.8933 C.3     1  UNL1        0.0000
     21 C         -23.2124  -13.5939  -14.3173 C.3     1  UNL1        0.0014
     22 C         -22.3919  -12.3935  -14.8259 C.3     1  UNL1        0.0157
     23 C         -22.6758  -12.1049  -16.3105 C.3     1  UNL1        0.0540
     24 C         -24.1735  -11.7530  -16.5266 C.3     1  UNL1        0.0157
     25 C         -25.1082  -12.2424  -15.4026 C.3     1  UNL1        0.0014
     26 C         -23.3099   -7.7516  -12.1709 C.3     1  UNL1        0.0886
     27 C         -22.1267   -6.7489  -12.1335 C.3     1  UNL1        0.0748
     28 C         -21.7265   -6.3606  -10.6995 C.3     1  UNL1        0.0432
     29 C         -20.8966   -7.4177  -10.0337 C.ar    1  UNL1       -0.0234
     30 C         -20.7858   -7.4289   -8.6339 C.ar    1  UNL1       -0.0045
     31 C         -19.9618   -8.3607   -7.9987 C.ar    1  UNL1       -0.0003
     32 C         -19.2335   -9.2795   -8.7557 C.ar    1  UNL1       -0.0003
     33 C         -19.3254   -9.2663  -10.1496 C.ar    1  UNL1       -0.0032
     34 C         -20.1430   -8.3276  -10.8000 C.ar    1  UNL1       -0.0103
     35 C         -20.2700   -8.3874  -12.3034 C.3     1  UNL1        0.0953
     36 N         -20.9600   -7.2280  -12.8991 N.3     1  UNL1       -0.2934
     37 H         -20.2706   -6.4420  -12.9691 H       1  UNL1        0.1236
@<TRIPOS>BOND
     1    18    19    1
     2    19    20    1
     3    19    21    1
     4    21    22    1
     5    22    23    1
     6    23    16    1
     7    16    15    1
     8    15    14    1
     9    14    13    1
    10    13    12    1
    11    12     1    1
    12     1    26    1
    13    26    27    1
    14    27    28    1
    15    28    29    1
    16    29    30   ar
    17    30    31   ar
    18    31    32   ar
    19    32    33   ar
    20    33    34   ar
    21    34    35    1
    22    35    36    1
    23     1     2    1
    24     2     3    1
    25     3     4    1
    26     4     5    1
    27     5     6    1
    28     6     7   ar
    29     7     8   ar
    30     8     9   ar
    31     9    10   ar
    32    10    11   ar
    33    23    24    1
    34    24    25    1
    35    25    19    1
    36    36    27    1
    37    11     2    1
    38    34    29   ar
    39    11     6   ar
    40    16    17    1
    41    36    37    1
@<TRIPOS>MOLECULE
*****
 37 41 0 0 0
SMALL
GASTEIGER

@<TRIPOS>ATOM
      1 N         -23.1673   -9.8804  -11.0886 N.3     1  UNL1       -0.2679
      2 C         -22.2441   -9.1783  -10.1373 C.3     1  UNL1        0.0978
      3 C         -20.7980   -9.7404  -10.0680 C.3     1  UNL1        0.0224
      4 C         -19.9356   -9.0080   -9.0056 C.3     1  UNL1        0.0065
      5 C         -20.3891   -7.5663   -8.6688 C.3     1  UNL1        0.0277
      6 C         -21.1630   -6.9339   -9.7938 C.ar    1  UNL1       -0.0073
      7 C         -21.0033   -5.5827  -10.1274 C.ar    1  UNL1       -0.0015
      8 C         -21.7212   -5.0425  -11.1959 C.ar    1  UNL1        0.0203
      9 C         -22.5859   -5.8625  -11.9228 C.ar    1  UNL1        0.0985
     10 N         -22.7425   -7.1668  -11.5729 N.ar    1  UNL1       -0.2471
     11 C         -22.0835   -7.7134  -10.5123 C.ar    1  UNL1        0.0695
     12 C         -24.2806  -10.5208  -10.3317 C.3     1  UNL1        0.0725
     13 C         -24.7594   -9.6000   -9.1962 C.3     1  UNL1        0.0188
     14 C         -26.2818   -9.3746   -9.2063 C.3     1  UNL1        0.0185
     15 C         -26.6973   -8.2873  -10.2064 C.3     1  UNL1        0.0686
     16 N         -25.5481   -7.8818  -11.0285 N.3     1  UNL1       -0.2985
     17 H         -25.0192   -7.1659  -10.4760 H       1  UNL1        0.1232
     18 C         -28.7670   -5.0176  -14.8536 C.3     1  UNL1        0.0000
     19 C         -27.5268   -5.7190  -14.2587 C.3     1  UNL1        0.0001
     20 C         -26.3587   -5.5444  -15.2588 C.3     1  UNL1        0.0000
     21 C         -27.8408   -7.2393  -14.0458 C.3     1  UNL1        0.0014
     22 C         -27.3850   -7.7955  -12.6835 C.3     1  UNL1        0.0157
     23 C         -25.9937   -7.2652  -12.2949 C.3     1  UNL1        0.0540
     24 C         -26.0099   -5.7169  -12.1686 C.3     1  UNL1        0.0157
     25 C         -27.1728   -5.0322  -12.9138 C.3     1  UNL1        0.0014
     26 C         -22.5015  -10.8904  -11.9578 C.3     1  UNL1        0.0886
     27 C         -23.4185  -11.3010  -13.1399 C.3     1  UNL1        0.0748
     28 C         -24.0856  -10.0916  -13.8178 C.3     1  UNL1        0.0432
     29 C         -23.1526   -9.3728  -14.7463 C.ar    1  UNL1       -0.0234
     30 C         -23.4398   -8.0523  -15.1281 C.ar    1  UNL1       -0.0045
     31 C         -22.6225   -7.3897  -16.0467 C.ar    1  UNL1       -0.0003
     32 C         -21.5206   -8.0436  -16.5998 C.ar    1  UNL1       -0.0003
     33 C         -21.2356   -9.3624  -16.2378 C.ar    1  UNL1       -0.0032
     34 C         -22.0560  -10.0422  -15.3226 C.ar    1  UNL1       -0.0103
     35 C         -21.6780  -11.4428  -14.9038 C.3     1  UNL1        0.0953
     36 N         -22.7179  -12.1438  -14.1276 N.3     1  UNL1       -0.2934
     37 H         -23.4287  -12.5162  -14.8014 H       1  UNL1        0.1236
@<TRIPOS>BOND
     1    18    19    1
     2    19    20    1
     3    19    21    1
     4    21    22    1
     5    22    23    1
     6    23    16    1
     7    16    15    1
     8    15    14    1
     9    14    13    1
    10    13    12    1
    11    12     1    1
    12     1    26    1
    13    26    27    1
    14    27    28    1
    15    28    29    1
    16    29    30   ar
    17    30    31   ar
    18    31    32   ar
    19    32    33   ar
    20    33    34   ar
    21    34    35    1
    22    35    36    1
    23     1     2    1
    24     2     3    1
    25     3     4    1
    26     4     5    1
    27     5     6    1
    28     6     7   ar
    29     7     8   ar
    30     8     9   ar
    31     9    10   ar
    32    10    11   ar
    33    23    24    1
    34    24    25    1
    35    25    19    1
    36    36    27    1
    37    11     2    1
    38    34    29   ar
    39    11     6   ar
    40    16    17    1
    41    36    37    1
@<TRIPOS>MOLECULE
*****
 37 41 0 0 0
SMALL
GASTEIGER

@<TRIPOS>ATOM
      1 N         -22.9520  -10.1380  -11.3778 N.3     1  UNL1       -0.2679
      2 C         -22.1103   -9.4323  -10.3562 C.3     1  UNL1        0.0978
      3 C         -20.6105   -9.8345  -10.3291 C.3     1  UNL1        0.0224
      4 C         -19.8322   -9.1164   -9.1945 C.3     1  UNL1        0.0065
      5 C         -20.4424   -7.7728   -8.7251 C.3     1  UNL1        0.0277
      6 C         -21.2846   -7.1252   -9.7908 C.ar    1  UNL1       -0.0073
      7 C         -21.2770   -5.7389   -9.9923 C.ar    1  UNL1       -0.0015
      8 C         -22.0532   -5.1816  -11.0101 C.ar    1  UNL1        0.0203
      9 C         -22.8232   -6.0190  -11.8192 C.ar    1  UNL1        0.0985
     10 N         -22.8329   -7.3601  -11.5969 N.ar    1  UNL1       -0.2471
     11 C         -22.1145   -7.9294  -10.5880 C.ar    1  UNL1        0.0695
     12 C         -24.1324  -10.7625  -10.7151 C.3     1  UNL1        0.0725
     13 C         -24.4667  -10.0271   -9.4060 C.3     1  UNL1        0.0188
     14 C         -25.9797   -9.9230   -9.1442 C.3     1  UNL1        0.0185
     15 C         -26.5574   -8.5847   -9.6243 C.3     1  UNL1        0.0686
     16 N         -25.6476   -7.9512  -10.5895 N.3     1  UNL1       -0.2985
     17 H         -25.1325   -7.2005  -10.0712 H       1  UNL1        0.1232
     18 C         -26.8293   -4.8948  -15.3285 C.3     1  UNL1        0.0000
     19 C         -27.0510   -5.8879  -14.1672 C.3     1  UNL1        0.0001
     20 C         -28.4396   -6.5428  -14.3628 C.3     1  UNL1        0.0000
     21 C         -26.9985   -5.1156  -12.8048 C.3     1  UNL1        0.0014
     22 C         -26.1574   -5.8084  -11.7160 C.3     1  UNL1        0.0157
     23 C         -26.4006   -7.3278  -11.6972 C.3     1  UNL1        0.0540
     24 C         -25.9979   -7.9670  -13.0547 C.3     1  UNL1        0.0157
     25 C         -25.9452   -6.9735  -14.2323 C.3     1  UNL1        0.0014
     26 C         -22.2206  -11.1617  -12.1751 C.3     1  UNL1        0.0886
     27 C         -22.1976  -10.7855  -13.6800 C.3     1  UNL1        0.0748
     28 C         -21.6444  -11.9172  -14.5634 C.3     1  UNL1        0.0432
     29 C         -22.6591  -12.9932  -14.8126 C.ar    1  UNL1       -0.0234
     30 C         -22.2310  -14.2612  -15.2376 C.ar    1  UNL1       -0.0045
     31 C         -23.1635  -15.2551  -15.5431 C.ar    1  UNL1       -0.0003
     32 C         -24.5291  -14.9873  -15.4386 C.ar    1  UNL1       -0.0003
     33 C         -24.9650  -13.7241  -15.0314 C.ar    1  UNL1       -0.0032
     34 C         -24.0368  -12.7137  -14.7311 C.ar    1  UNL1       -0.0103
     35 C         -24.5434  -11.3828  -14.2291 C.3     1  UNL1        0.0953
     36 N         -23.5139  -10.3286  -14.1650 N.3     1  UNL1       -0.2934
     37 H         -23.3891   -9.9391  -15.1297 H       1  UNL1        0.1236
@<TRIPOS>BOND
     1    18    19    1
     2    19    20    1
     3    19    21    1
     4    21    22    1
     5    22    23    1
     6    23    16    1
     7    16    15    1
     8    15    14    1
     9    14    13    1
    10    13    12    1
    11    12     1    1
    12     1    26    1
    13    26    27    1
    14    27    28    1
    15    28    29    1
    16    29    30   ar
    17    30    31   ar
    18    31    32   ar
    19    32    33   ar
    20    33    34   ar
    21    34    35    1
    22    35    36    1
    23     1     2    1
    24     2     3    1
    25     3     4    1
    26     4     5    1
    27     5     6    1
    28     6     7   ar
    29     7     8   ar
    30     8     9   ar
    31     9    10   ar
    32    10    11   ar
    33    23    24    1
    34    24    25    1
    35    25    19    1
    36    36    27    1
    37    11     2    1
    38    34    29   ar
    39    11     6   ar
    40    16    17    1
    41    36    37    1
@<TRIPOS>MOLECULE
*****
 37 41 0 0 0
SMALL
GASTEIGER

@<TRIPOS>ATOM
      1 N         -23.4284   -8.5536  -13.8731 N.3     1  UNL1       -0.2679
      2 C         -24.1795   -7.3602  -13.3614 C.3     1  UNL1        0.0978
      3 C         -25.3529   -7.6710  -12.3926 C.3     1  UNL1        0.0224
      4 C         -26.1222   -6.3894  -11.9748 C.3     1  UNL1        0.0065
      5 C         -25.3063   -5.0758  -12.0548 C.3     1  UNL1        0.0277
      6 C         -23.8252   -5.3158  -11.9405 C.ar    1  UNL1       -0.0073
      7 C         -22.9928   -4.4469  -11.2232 C.ar    1  UNL1       -0.0015
      8 C         -21.6279   -4.7215  -11.1197 C.ar    1  UNL1        0.0203
      9 C         -21.1127   -5.8665  -11.7298 C.ar    1  UNL1        0.0985
     10 N         -21.9321   -6.6883  -12.4378 N.ar    1  UNL1       -0.2471
     11 C         -23.2616   -6.4271  -12.5874 C.ar    1  UNL1        0.0695
     12 C         -23.1126   -8.3698  -15.3184 C.3     1  UNL1        0.0725
     13 C         -21.5914   -8.2855  -15.5308 C.3     1  UNL1        0.0188
     14 C         -21.0097   -9.5348  -16.2160 C.3     1  UNL1        0.0185
     15 C         -22.1023  -10.4068  -16.8491 C.3     1  UNL1        0.0686
     16 N         -21.6010  -11.7695  -17.0782 N.3     1  UNL1       -0.2985
     17 H         -21.4663  -11.8718  -18.1121 H       1  UNL1        0.1232
     18 C         -25.6405  -14.4125  -13.9329 C.3     1  UNL1        0.0000
     19 C         -24.7213  -14.1208  -15.1387 C.3     1  UNL1        0.0001
     20 C         -25.1027  -15.1021  -16.2731 C.3     1  UNL1        0.0000
     21 C         -23.2269  -14.3288  -14.7161 C.3     1  UNL1        0.0014
     22 C         -22.2748  -13.2122  -15.1848 C.3     1  UNL1        0.0157
     23 C         -22.5826  -12.7780  -16.6286 C.3     1  UNL1        0.0540
     24 C         -24.0269  -12.2165  -16.7389 C.3     1  UNL1        0.0157
     25 C         -24.9685  -12.6615  -15.6023 C.3     1  UNL1        0.0014
     26 C         -24.1281   -9.8529  -13.6707 C.3     1  UNL1        0.0886
     27 C         -23.2044  -10.8806  -12.9655 C.3     1  UNL1        0.0748
     28 C         -22.0642  -10.2090  -12.1807 C.3     1  UNL1        0.0432
     29 C         -22.5242   -9.6652  -10.8608 C.ar    1  UNL1       -0.0234
     30 C         -21.7518   -8.6909  -10.2082 C.ar    1  UNL1       -0.0045
     31 C         -22.1252   -8.2232   -8.9462 C.ar    1  UNL1       -0.0003
     32 C         -23.2643   -8.7328   -8.3215 C.ar    1  UNL1       -0.0003
     33 C         -24.0306   -9.7133   -8.9561 C.ar    1  UNL1       -0.0032
     34 C         -23.6596  -10.1985  -10.2209 C.ar    1  UNL1       -0.0103
     35 C         -24.5493  -11.2084  -10.9052 C.3     1  UNL1        0.0953
     36 N         -23.9571  -11.8183  -12.1104 N.3     1  UNL1       -0.2934
     37 H         -23.3023  -12.5756  -11.8014 H       1  UNL1        0.1236
@<TRIPOS>BOND
     1    18    19    1
     2    19    20    1
     3    19    21    1
     4    21    22    1
     5    22    23    1
     6    23    16    1
     7    16    15    1
     8    15    14    1
     9    14    13    1
    10    13    12    1
    11    12     1    1
    12     1    26    1
    13    26    27    1
    14    27    28    1
    15    28    29    1
    16    29    30   ar
    17    30    31   ar
    18    31    32   ar
    19    32    33   ar
    20    33    34   ar
    21    34    35    1
    22    35    36    1
    23     1     2    1
    24     2     3    1
    25     3     4    1
    26     4     5    1
    27     5     6    1
    28     6     7   ar
    29     7     8   ar
    30     8     9   ar
    31     9    10   ar
    32    10    11   ar
    33    23    24    1
    34    24    25    1
    35    25    19    1
    36    36    27    1
    37    11     2    1
    38    34    29   ar
    39    11     6   ar
    40    16    17    1
    41    36    37    1
@<TRIPOS>MOLECULE
*****
 37 41 0 0 0
SMALL
GASTEIGER

@<TRIPOS>ATOM
      1 N         -23.7463  -10.8088  -12.1261 N.3     1  UNL1       -0.2679
      2 C         -24.3129  -11.9668  -12.8930 C.3     1  UNL1        0.0978
      3 C         -25.3713  -11.6044  -13.9703 C.3     1  UNL1        0.0224
      4 C         -25.9603  -12.8642  -14.6593 C.3     1  UNL1        0.0065
      5 C         -25.0472  -14.1146  -14.6376 C.3     1  UNL1        0.0277
      6 C         -23.5917  -13.7563  -14.5060 C.ar    1  UNL1       -0.0073
      7 C         -22.5971  -14.4524  -15.2052 C.ar    1  UNL1       -0.0015
      8 C         -21.2608  -14.0698  -15.0751 C.ar    1  UNL1        0.0203
      9 C         -20.9357  -12.9904  -14.2517 C.ar    1  UNL1        0.0985
     10 N         -21.9120  -12.3386  -13.5661 N.ar    1  UNL1       -0.2471
     11 C         -23.2206  -12.7120  -13.6441 C.ar    1  UNL1        0.0695
     12 C         -24.1476  -10.9071  -10.6937 C.3     1  UNL1        0.0725
     13 C         -24.4879   -9.5156  -10.1331 C.3     1  UNL1        0.0188
     14 C         -25.8688   -9.4614   -9.4559 C.3     1  UNL1        0.0185
     15 C         -26.5992   -8.1419   -9.7398 C.3     1  UNL1        0.0686
     16 N         -27.7226   -8.3665  -10.6607 N.3     1  UNL1       -0.2985
     17 H         -27.5858   -9.3179  -11.0775 H       1  UNL1        0.1232
     18 C         -25.9768   -5.2183  -15.1592 C.3     1  UNL1        0.0000
     19 C         -26.9411   -5.8163  -14.1121 C.3     1  UNL1        0.0001
     20 C         -28.3711   -5.3345  -14.4557 C.3     1  UNL1        0.0000
     21 C         -26.5277   -5.3243  -12.6830 C.3     1  UNL1        0.0014
     22 C         -26.5097   -6.4317  -11.6125 C.3     1  UNL1        0.0157
     23 C         -27.7218   -7.3695  -11.7509 C.3     1  UNL1        0.0540
     24 C         -27.7155   -8.0774  -13.1338 C.3     1  UNL1        0.0157
     25 C         -26.8715   -7.3628  -14.2078 C.3     1  UNL1        0.0014
     26 C         -24.1226   -9.4721  -12.6650 C.3     1  UNL1        0.0886
     27 C         -22.9435   -8.8321  -13.4442 C.3     1  UNL1        0.0748
     28 C         -22.9740   -7.2944  -13.4036 C.3     1  UNL1        0.0432
     29 C         -22.4576   -6.7484  -12.1057 C.ar    1  UNL1       -0.0234
     30 C         -22.7790   -5.4333  -11.7330 C.ar    1  UNL1       -0.0045
     31 C         -22.2506   -4.8821  -10.5635 C.ar    1  UNL1       -0.0003
     32 C         -21.3887   -5.6346   -9.7643 C.ar    1  UNL1       -0.0003
     33 C         -21.0510   -6.9385  -10.1348 C.ar    1  UNL1       -0.0032
     34 C         -21.5682   -7.4999  -11.3137 C.ar    1  UNL1       -0.0103
     35 C         -21.2353   -8.9346  -11.6463 C.3     1  UNL1        0.0953
     36 N         -21.6334   -9.3490  -13.0046 N.3     1  UNL1       -0.2934
     37 H         -20.9052   -9.0044  -13.6746 H       1  UNL1        0.1236
@<TRIPOS>BOND
     1    18    19    1
     2    19    20    1
     3    19    21    1
     4    21    22    1
     5    22    23    1
     6    23    16    1
     7    16    15    1
     8    15    14    1
     9    14    13    1
    10    13    12    1
    11    12     1    1
    12     1    26    1
    13    26    27    1
    14    27    28    1
    15    28    29    1
    16    29    30   ar
    17    30    31   ar
    18    31    32   ar
    19    32    33   ar
    20    33    34   ar
    21    34    35    1
    22    35    36    1
    23     1     2    1
    24     2     3    1
    25     3     4    1
    26     4     5    1
    27     5     6    1
    28     6     7   ar
    29     7     8   ar
    30     8     9   ar
    31     9    10   ar
    32    10    11   ar
    33    23    24    1
    34    24    25    1
    35    25    19    1
    36    36    27    1
    37    11     2    1
    38    34    29   ar
    39    11     6   ar
    40    16    17    1
    41    36    37    1
