@<TRIPOS>MOLECULE
*****
 48 53 0 0 0
SMALL
GASTEIGER

@<TRIPOS>ATOM
      1 O         -65.0916  -40.1039  -21.9771 O.2     1  UNL1       -0.2701
      2 C         -64.0426  -40.4107  -22.6075 C.2     1  UNL1        0.2483
      3 N         -62.7772  -40.4215  -21.9267 N.am    1  UNL1       -0.2945
      4 H         -61.9896  -40.9416  -22.3727 H       1  UNL1        0.1501
      5 C         -64.1418  -40.7991  -24.0329 C.ar    1  UNL1        0.0808
      6 C         -65.1428  -40.2305  -24.8383 C.ar    1  UNL1        0.0080
      7 C         -65.2626  -40.5901  -26.1828 C.ar    1  UNL1        0.0148
      8 C         -64.3757  -41.5159  -26.7531 C.ar    1  UNL1        0.0502
      9 C         -63.3674  -42.0768  -25.9547 C.ar    1  UNL1        0.0443
     10 C         -63.2439  -41.7191  -24.6083 C.ar    1  UNL1        0.1457
     11 F         -62.2161  -42.2358  -23.8897 F       1  UNL1       -0.2040
     12 N         -64.5089  -41.8975  -28.1352 N.pl3   1  UNL1       -0.3040
     13 C         -64.8147  -43.2874  -28.5006 C.3     1  UNL1        0.1122
     14 C         -63.7716  -43.7962  -29.4977 C.3     1  UNL1        0.1122
     15 N         -63.5383  -42.8131  -30.5629 N.pl3   1  UNL1       -0.3037
     16 C         -64.2615  -41.5364  -30.5851 C.3     1  UNL1        0.1122
     17 C         -64.2534  -40.9012  -29.1887 C.3     1  UNL1        0.1122
     18 C         -62.5762  -43.1060  -31.5830 C.ar    1  UNL1        0.0542
     19 C         -62.9305  -42.9263  -32.9245 C.ar    1  UNL1        0.0159
     20 C         -62.0164  -43.2094  -33.9382 C.ar    1  UNL1        0.0135
     21 C         -60.7369  -43.6745  -33.6235 C.ar    1  UNL1        0.0687
     22 CL        -59.6187  -44.0185  -34.9374 Cl      1  UNL1       -0.0813
     23 C         -60.3652  -43.8574  -32.2787 C.ar    1  UNL1        0.0747
     24 CL        -58.7469  -44.4412  -31.8904 Cl      1  UNL1       -0.0809
     25 C         -61.2887  -43.5714  -31.2517 C.ar    1  UNL1        0.0547
     26 I         -60.7515  -43.8168  -29.2051 I       1  UNL1       -0.0403
     27 C         -62.6478  -40.0265  -20.5190 C.3     1  UNL1        0.1535
     28 C         -63.0987  -38.6010  -20.3251 C.2     1  UNL1        0.2443
     29 O         -62.4254  -37.6578  -20.8243 O.2     1  UNL1       -0.2730
     30 N         -64.3389  -38.3322  -19.6525 N.am    1  UNL1       -0.2825
     31 H         -64.9976  -39.1311  -19.5091 H       1  UNL1        0.1549
     32 C         -64.7819  -37.0171  -19.2776 C.ar    1  UNL1        0.0535
     33 C         -65.9846  -36.4790  -19.7662 C.ar    1  UNL1        0.0353
     34 C         -66.3627  -35.1868  -19.3927 C.ar    1  UNL1        0.1002
     35 N         -65.5649  -34.4518  -18.5738 N.ar    1  UNL1       -0.2422
     36 C         -64.3877  -34.9399  -18.1012 C.ar    1  UNL1        0.1002
     37 C         -63.9716  -36.2267  -18.4513 C.ar    1  UNL1        0.0353
     38 C         -63.4069  -40.9980  -19.5914 C.3     1  UNL1        0.0569
     39 C         -63.4076  -42.4218  -20.0805 C.ar    1  UNL1       -0.0017
     40 C         -64.4923  -43.2951  -20.0864 C.ar    1  UNL1        0.0681
     41 N         -64.1418  -44.4812  -20.6331 N.ar    1  UNL1       -0.3523
     42 C         -62.8462  -44.3657  -20.9723 C.ar    1  UNL1        0.0563
     43 C         -62.0429  -45.3309  -21.5782 C.ar    1  UNL1        0.0170
     44 C         -60.7044  -44.9951  -21.8522 C.ar    1  UNL1        0.0015
     45 C         -60.2041  -43.7177  -21.5164 C.ar    1  UNL1        0.0001
     46 C         -61.0374  -42.7642  -20.9041 C.ar    1  UNL1        0.0012
     47 C         -62.3615  -43.1240  -20.6490 C.ar    1  UNL1        0.0131
     48 H         -64.7576  -45.3136  -20.7676 H       1  UNL1        0.1660
@<TRIPOS>BOND
     1     1     2    2
     2     2     3   am
     3     3    27    1
     4    27    38    1
     5    38    39    1
     6    39    40   ar
     7    40    41   ar
     8    41    42   ar
     9    42    43   ar
    10    43    44   ar
    11    44    45   ar
    12    45    46   ar
    13    46    47   ar
    14    27    28    1
    15    28    29    2
    16    28    30   am
    17    30    32    1
    18    32    33   ar
    19    33    34   ar
    20    34    35   ar
    21    35    36   ar
    22    36    37   ar
    23     2     5    1
    24     5     6   ar
    25     6     7   ar
    26     7     8   ar
    27     8    12    1
    28    12    13    1
    29    13    14    1
    30    14    15    1
    31    15    18    1
    32    18    19   ar
    33    19    20   ar
    34    20    21   ar
    35    21    22    1
    36    21    23   ar
    37    23    24    1
    38    23    25   ar
    39    25    26    1
    40    15    16    1
    41    16    17    1
    42     8     9   ar
    43     9    10   ar
    44    10    11    1
    45    47    39   ar
    46    37    32   ar
    47    10     5   ar
    48    47    42   ar
    49    17    12    1
    50    25    18   ar
    51     3     4    1
    52    41    48    1
    53    30    31    1
@<TRIPOS>MOLECULE
*****
 48 53 0 0 0
SMALL
GASTEIGER

@<TRIPOS>ATOM
      1 O         -61.0769  -40.5610  -21.5015 O.2     1  UNL1       -0.2701
      2 C         -62.2923  -40.7290  -21.7954 C.2     1  UNL1        0.2483
      3 N         -63.3118  -40.3903  -20.8411 N.am    1  UNL1       -0.2945
      4 H         -64.2861  -40.2648  -21.1944 H       1  UNL1        0.1501
      5 C         -62.6488  -41.2329  -23.1413 C.ar    1  UNL1        0.0808
      6 C         -61.8590  -42.2284  -23.7405 C.ar    1  UNL1        0.0080
      7 C         -62.1695  -42.7110  -25.0142 C.ar    1  UNL1        0.0148
      8 C         -63.2839  -42.2174  -25.7095 C.ar    1  UNL1        0.0502
      9 C         -64.0817  -41.2316  -25.1091 C.ar    1  UNL1        0.0443
     10 C         -63.7744  -40.7461  -23.8341 C.ar    1  UNL1        0.1457
     11 F         -64.6084  -39.8407  -23.2644 F       1  UNL1       -0.2040
     12 N         -63.5949  -42.7043  -27.0285 N.pl3   1  UNL1       -0.3040
     13 C         -63.5542  -44.1433  -27.3229 C.3     1  UNL1        0.1122
     14 C         -62.6487  -44.3935  -28.5306 C.3     1  UNL1        0.1122
     15 N         -62.9469  -43.4512  -29.6162 N.pl3   1  UNL1       -0.3037
     16 C         -63.9974  -42.4370  -29.4699 C.3     1  UNL1        0.1122
     17 C         -63.8737  -41.7423  -28.1077 C.3     1  UNL1        0.1122
     18 C         -62.1847  -43.5195  -30.8272 C.ar    1  UNL1        0.0542
     19 C         -62.7894  -43.1501  -32.0336 C.ar    1  UNL1        0.0159
     20 C         -62.0734  -43.2125  -33.2281 C.ar    1  UNL1        0.0135
     21 C         -60.7444  -43.6439  -33.2313 C.ar    1  UNL1        0.0687
     22 CL        -59.8824  -43.7063  -34.7638 Cl      1  UNL1       -0.0813
     23 C         -60.1220  -44.0160  -32.0253 C.ar    1  UNL1        0.0747
     24 CL        -58.4429  -44.5557  -32.0381 Cl      1  UNL1       -0.0809
     25 C         -60.8447  -43.9533  -30.8158 C.ar    1  UNL1        0.0547
     26 I         -59.9266  -44.4887  -28.9698 I       1  UNL1       -0.0403
     27 C         -62.9865  -39.9036  -19.4951 C.3     1  UNL1        0.1535
     28 C         -63.9657  -38.8412  -19.0647 C.2     1  UNL1        0.2443
     29 O         -64.9135  -39.1409  -18.2874 O.2     1  UNL1       -0.2730
     30 N         -63.7601  -37.4783  -19.4686 N.am    1  UNL1       -0.2825
     31 H         -62.8268  -37.2239  -19.8645 H       1  UNL1        0.1549
     32 C         -64.7100  -36.4222  -19.2482 C.ar    1  UNL1        0.0535
     33 C         -65.9808  -36.4388  -19.8478 C.ar    1  UNL1        0.0353
     34 C         -66.8621  -35.3781  -19.6232 C.ar    1  UNL1        0.1002
     35 N         -66.4859  -34.3317  -18.8414 N.ar    1  UNL1       -0.2422
     36 C         -65.2565  -34.2805  -18.2640 C.ar    1  UNL1        0.1002
     37 C         -64.3445  -35.3196  -18.4639 C.ar    1  UNL1        0.0353
     38 C         -62.9179  -41.0637  -18.4802 C.3     1  UNL1        0.0569
     39 C         -63.9760  -42.1134  -18.6920 C.ar    1  UNL1       -0.0017
     40 C         -65.2167  -42.1776  -18.0631 C.ar    1  UNL1        0.0681
     41 N         -65.9267  -43.2323  -18.5237 N.ar    1  UNL1       -0.3523
     42 C         -65.1462  -43.8351  -19.4372 C.ar    1  UNL1        0.0563
     43 C         -65.4505  -44.9668  -20.1926 C.ar    1  UNL1        0.0170
     44 C         -64.4825  -45.4302  -21.1023 C.ar    1  UNL1        0.0015
     45 C         -63.2456  -44.7611  -21.2335 C.ar    1  UNL1        0.0001
     46 C         -62.9654  -43.6223  -20.4569 C.ar    1  UNL1        0.0012
     47 C         -63.9464  -43.1831  -19.5668 C.ar    1  UNL1        0.0131
     48 H         -66.8882  -43.5144  -18.2303 H       1  UNL1        0.1660
@<TRIPOS>BOND
     1     1     2    2
     2     2     3   am
     3     3    27    1
     4    27    38    1
     5    38    39    1
     6    39    40   ar
     7    40    41   ar
     8    41    42   ar
     9    42    43   ar
    10    43    44   ar
    11    44    45   ar
    12    45    46   ar
    13    46    47   ar
    14    27    28    1
    15    28    29    2
    16    28    30   am
    17    30    32    1
    18    32    33   ar
    19    33    34   ar
    20    34    35   ar
    21    35    36   ar
    22    36    37   ar
    23     2     5    1
    24     5     6   ar
    25     6     7   ar
    26     7     8   ar
    27     8    12    1
    28    12    13    1
    29    13    14    1
    30    14    15    1
    31    15    18    1
    32    18    19   ar
    33    19    20   ar
    34    20    21   ar
    35    21    22    1
    36    21    23   ar
    37    23    24    1
    38    23    25   ar
    39    25    26    1
    40    15    16    1
    41    16    17    1
    42     8     9   ar
    43     9    10   ar
    44    10    11    1
    45    47    39   ar
    46    37    32   ar
    47    10     5   ar
    48    47    42   ar
    49    17    12    1
    50    25    18   ar
    51     3     4    1
    52    41    48    1
    53    30    31    1
@<TRIPOS>MOLECULE
*****
 48 53 0 0 0
SMALL
GASTEIGER

@<TRIPOS>ATOM
      1 O         -62.6694  -42.2729  -21.8717 O.2     1  UNL1       -0.2701
      2 C         -63.4808  -41.5042  -22.4570 C.2     1  UNL1        0.2483
      3 N         -64.2394  -40.5513  -21.6943 N.am    1  UNL1       -0.2945
      4 H         -64.6742  -39.7533  -22.2078 H       1  UNL1        0.1501
      5 C         -63.6042  -41.5682  -23.9311 C.ar    1  UNL1        0.0808
      6 C         -62.8103  -42.4739  -24.6546 C.ar    1  UNL1        0.0080
      7 C         -62.9015  -42.5440  -26.0468 C.ar    1  UNL1        0.0148
      8 C         -63.7979  -41.7191  -26.7432 C.ar    1  UNL1        0.0502
      9 C         -64.6008  -40.8219  -26.0228 C.ar    1  UNL1        0.0443
     10 C         -64.5128  -40.7489  -24.6290 C.ar    1  UNL1        0.1457
     11 F         -65.3526  -39.9144  -23.9669 F       1  UNL1       -0.2040
     12 N         -63.8808  -41.7812  -28.1794 N.pl3   1  UNL1       -0.3040
     13 C         -64.6194  -42.8665  -28.8393 C.3     1  UNL1        0.1122
     14 C         -63.7121  -43.5568  -29.8598 C.3     1  UNL1        0.1122
     15 N         -63.0031  -42.5713  -30.6853 N.pl3   1  UNL1       -0.3037
     16 C         -63.2053  -41.1317  -30.4850 C.3     1  UNL1        0.1122
     17 C         -63.1480  -40.7940  -28.9896 C.3     1  UNL1        0.1122
     18 C         -62.0894  -43.0307  -31.6884 C.ar    1  UNL1        0.0542
     19 C         -62.4311  -42.8869  -33.0374 C.ar    1  UNL1        0.0159
     20 C         -61.5639  -43.3306  -34.0347 C.ar    1  UNL1        0.0135
     21 C         -60.3444  -43.9226  -33.6957 C.ar    1  UNL1        0.0687
     22 CL        -59.2839  -44.4673  -34.9895 Cl      1  UNL1       -0.0813
     23 C         -59.9859  -44.0715  -32.3432 C.ar    1  UNL1        0.0747
     24 CL        -58.4429  -44.8163  -31.9245 Cl      1  UNL1       -0.0809
     25 C         -60.8619  -43.6230  -31.3329 C.ar    1  UNL1        0.0547
     26 I         -60.3407  -43.8136  -29.2764 I       1  UNL1       -0.0403
     27 C         -64.1480  -40.4767  -20.2313 C.3     1  UNL1        0.1535
     28 C         -63.4661  -39.2007  -19.8074 C.2     1  UNL1        0.2443
     29 O         -63.1868  -39.0140  -18.5911 O.2     1  UNL1       -0.2730
     30 N         -63.0574  -38.2481  -20.8015 N.am    1  UNL1       -0.2825
     31 H         -63.0467  -38.5604  -21.7990 H       1  UNL1        0.1549
     32 C         -62.5462  -36.9391  -20.4990 C.ar    1  UNL1        0.0535
     33 C         -61.4859  -36.3765  -21.2299 C.ar    1  UNL1        0.0353
     34 C         -61.0068  -35.1104  -20.8841 C.ar    1  UNL1        0.1002
     35 N         -61.5541  -34.4352  -19.8391 N.ar    1  UNL1       -0.2422
     36 C         -62.5679  -34.9628  -19.1034 C.ar    1  UNL1        0.1002
     37 C         -63.0757  -36.2264  -19.4146 C.ar    1  UNL1        0.0353
     38 C         -65.5354  -40.6299  -19.5737 C.3     1  UNL1        0.0569
     39 C         -65.6550  -41.8464  -18.6950 C.ar    1  UNL1       -0.0017
     40 C         -66.0036  -41.8635  -17.3470 C.ar    1  UNL1        0.0681
     41 N         -66.0516  -43.1341  -16.8867 N.ar    1  UNL1       -0.3523
     42 C         -65.7363  -43.9198  -17.9309 C.ar    1  UNL1        0.0563
     43 C         -65.6613  -45.3119  -17.9476 C.ar    1  UNL1        0.0170
     44 C         -65.3157  -45.9375  -19.1594 C.ar    1  UNL1        0.0015
     45 C         -65.0539  -45.1664  -20.3135 C.ar    1  UNL1        0.0001
     46 C         -65.1356  -43.7630  -20.2666 C.ar    1  UNL1        0.0012
     47 C         -65.4853  -43.1708  -19.0523 C.ar    1  UNL1        0.0131
     48 H         -66.2909  -43.4389  -15.9171 H       1  UNL1        0.1660
@<TRIPOS>BOND
     1     1     2    2
     2     2     3   am
     3     3    27    1
     4    27    38    1
     5    38    39    1
     6    39    40   ar
     7    40    41   ar
     8    41    42   ar
     9    42    43   ar
    10    43    44   ar
    11    44    45   ar
    12    45    46   ar
    13    46    47   ar
    14    27    28    1
    15    28    29    2
    16    28    30   am
    17    30    32    1
    18    32    33   ar
    19    33    34   ar
    20    34    35   ar
    21    35    36   ar
    22    36    37   ar
    23     2     5    1
    24     5     6   ar
    25     6     7   ar
    26     7     8   ar
    27     8    12    1
    28    12    13    1
    29    13    14    1
    30    14    15    1
    31    15    18    1
    32    18    19   ar
    33    19    20   ar
    34    20    21   ar
    35    21    22    1
    36    21    23   ar
    37    23    24    1
    38    23    25   ar
    39    25    26    1
    40    15    16    1
    41    16    17    1
    42     8     9   ar
    43     9    10   ar
    44    10    11    1
    45    47    39   ar
    46    37    32   ar
    47    10     5   ar
    48    47    42   ar
    49    17    12    1
    50    25    18   ar
    51     3     4    1
    52    41    48    1
    53    30    31    1
@<TRIPOS>MOLECULE
*****
 48 53 0 0 0
SMALL
GASTEIGER

@<TRIPOS>ATOM
      1 O         -60.4775  -41.1157  -21.1376 O.2     1  UNL1       -0.2701
      2 C         -61.6002  -41.2536  -21.6963 C.2     1  UNL1        0.2483
      3 N         -62.7577  -40.6049  -21.1445 N.am    1  UNL1       -0.2945
      4 H         -63.5930  -40.4941  -21.7607 H       1  UNL1        0.1501
      5 C         -61.6966  -42.0489  -22.9416 C.ar    1  UNL1        0.0808
      6 C         -60.6301  -42.8836  -23.3153 C.ar    1  UNL1        0.0080
      7 C         -60.6938  -43.6346  -24.4915 C.ar    1  UNL1        0.0148
      8 C         -61.8310  -43.5765  -25.3115 C.ar    1  UNL1        0.0502
      9 C         -62.9029  -42.7530  -24.9352 C.ar    1  UNL1        0.0443
     10 C         -62.8430  -41.9999  -23.7583 C.ar    1  UNL1        0.1457
     11 F         -63.9266  -41.2674  -23.3989 F       1  UNL1       -0.2040
     12 N         -61.8902  -44.3392  -26.5314 N.pl3   1  UNL1       -0.3040
     13 C         -60.8502  -45.3285  -26.8456 C.3     1  UNL1        0.1122
     14 C         -60.2683  -45.0377  -28.2305 C.3     1  UNL1        0.1122
     15 N         -61.3351  -44.7889  -29.2080 N.pl3   1  UNL1       -0.3037
     16 C         -62.7479  -44.8372  -28.8140 C.3     1  UNL1        0.1122
     17 C         -62.9578  -44.0622  -27.5068 C.3     1  UNL1        0.1122
     18 C         -60.9819  -44.4789  -30.5612 C.ar    1  UNL1        0.0542
     19 C         -59.6771  -44.7306  -30.9988 C.ar    1  UNL1        0.0159
     20 C         -59.3040  -44.4330  -32.3086 C.ar    1  UNL1        0.0135
     21 C         -60.2305  -43.8811  -33.1970 C.ar    1  UNL1        0.0687
     22 CL        -59.7123  -43.5221  -34.8396 Cl      1  UNL1       -0.0813
     23 C         -61.5473  -43.6250  -32.7721 C.ar    1  UNL1        0.0747
     24 CL        -62.7113  -42.9318  -33.9014 Cl      1  UNL1       -0.0809
     25 C         -61.9267  -43.9256  -31.4474 C.ar    1  UNL1        0.0547
     26 I         -63.9174  -43.5704  -30.7777 I       1  UNL1       -0.0403
     27 C         -62.6938  -39.8236  -19.9036 C.3     1  UNL1        0.1535
     28 C         -63.8415  -38.8487  -19.8315 C.2     1  UNL1        0.2443
     29 O         -64.9403  -39.1331  -20.3827 O.2     1  UNL1       -0.2730
     30 N         -63.7056  -37.6454  -19.0592 N.am    1  UNL1       -0.2825
     31 H         -62.9006  -37.5817  -18.3955 H       1  UNL1        0.1549
     32 C         -64.6720  -36.5813  -19.0515 C.ar    1  UNL1        0.0535
     33 C         -65.8816  -36.6810  -19.7598 C.ar    1  UNL1        0.0353
     34 C         -66.7801  -35.6112  -19.7421 C.ar    1  UNL1        0.1002
     35 N         -66.4784  -34.4774  -19.0557 N.ar    1  UNL1       -0.2422
     36 C         -65.3080  -34.3464  -18.3772 C.ar    1  UNL1        0.1002
     37 C         -64.3812  -35.3916  -18.3701 C.ar    1  UNL1        0.0353
     38 C         -62.6438  -40.7414  -18.6643 C.3     1  UNL1        0.0569
     39 C         -63.8540  -41.6249  -18.5193 C.ar    1  UNL1       -0.0017
     40 C         -64.9559  -41.3925  -17.7002 C.ar    1  UNL1        0.0681
     41 N         -65.8733  -42.3745  -17.8513 N.ar    1  UNL1       -0.3523
     42 C         -65.3614  -43.2250  -18.7576 C.ar    1  UNL1        0.0563
     43 C         -65.9480  -44.3918  -19.2460 C.ar    1  UNL1        0.0170
     44 C         -65.2339  -45.1363  -20.2027 C.ar    1  UNL1        0.0015
     45 C         -63.9635  -44.7040  -20.6431 C.ar    1  UNL1        0.0001
     46 C         -63.3955  -43.5233  -20.1314 C.ar    1  UNL1        0.0012
     47 C         -64.1290  -42.8032  -19.1875 C.ar    1  UNL1        0.0131
     48 H         -66.7939  -42.4498  -17.3645 H       1  UNL1        0.1660
@<TRIPOS>BOND
     1     1     2    2
     2     2     3   am
     3     3    27    1
     4    27    38    1
     5    38    39    1
     6    39    40   ar
     7    40    41   ar
     8    41    42   ar
     9    42    43   ar
    10    43    44   ar
    11    44    45   ar
    12    45    46   ar
    13    46    47   ar
    14    27    28    1
    15    28    29    2
    16    28    30   am
    17    30    32    1
    18    32    33   ar
    19    33    34   ar
    20    34    35   ar
    21    35    36   ar
    22    36    37   ar
    23     2     5    1
    24     5     6   ar
    25     6     7   ar
    26     7     8   ar
    27     8    12    1
    28    12    13    1
    29    13    14    1
    30    14    15    1
    31    15    18    1
    32    18    19   ar
    33    19    20   ar
    34    20    21   ar
    35    21    22    1
    36    21    23   ar
    37    23    24    1
    38    23    25   ar
    39    25    26    1
    40    15    16    1
    41    16    17    1
    42     8     9   ar
    43     9    10   ar
    44    10    11    1
    45    47    39   ar
    46    37    32   ar
    47    10     5   ar
    48    47    42   ar
    49    17    12    1
    50    25    18   ar
    51     3     4    1
    52    41    48    1
    53    30    31    1
@<TRIPOS>MOLECULE
*****
 48 53 0 0 0
SMALL
GASTEIGER

@<TRIPOS>ATOM
      1 O         -62.4645  -43.6987  -20.6240 O.2     1  UNL1       -0.2701
      2 C         -62.6493  -42.9215  -21.6004 C.2     1  UNL1        0.2483
      3 N         -63.2877  -41.6511  -21.3917 N.am    1  UNL1       -0.2945
      4 H         -63.1742  -40.9226  -22.1308 H       1  UNL1        0.1501
      5 C         -62.1626  -43.3158  -22.9421 C.ar    1  UNL1        0.0808
      6 C         -61.5593  -42.3549  -23.7707 C.ar    1  UNL1        0.0080
      7 C         -61.1028  -42.7011  -25.0447 C.ar    1  UNL1        0.0148
      8 C         -61.2282  -44.0185  -25.5114 C.ar    1  UNL1        0.0502
      9 C         -61.8195  -44.9834  -24.6818 C.ar    1  UNL1        0.0443
     10 C         -62.2775  -44.6408  -23.4057 C.ar    1  UNL1        0.1457
     11 F         -62.7836  -45.6176  -22.6122 F       1  UNL1       -0.2040
     12 N         -60.7711  -44.3716  -26.8304 N.pl3   1  UNL1       -0.3040
     13 C         -59.6697  -43.6325  -27.4625 C.3     1  UNL1        0.1122
     14 C         -60.1135  -43.1292  -28.8377 C.3     1  UNL1        0.1122
     15 N         -60.7871  -44.1916  -29.5947 N.pl3   1  UNL1       -0.3037
     16 C         -60.9629  -45.5319  -29.0237 C.3     1  UNL1        0.1122
     17 C         -61.4713  -45.4278  -27.5801 C.3     1  UNL1        0.1122
     18 C         -61.2919  -43.9018  -30.9037 C.ar    1  UNL1        0.0542
     19 C         -62.6321  -43.5274  -31.0488 C.ar    1  UNL1        0.0159
     20 C         -63.1518  -43.2457  -32.3113 C.ar    1  UNL1        0.0135
     21 C         -62.3381  -43.3339  -33.4438 C.ar    1  UNL1        0.0687
     22 CL        -63.0396  -42.9693  -35.0156 Cl      1  UNL1       -0.0813
     23 C         -60.9875  -43.7065  -33.3132 C.ar    1  UNL1        0.0747
     24 CL        -59.9668  -43.8114  -34.7477 Cl      1  UNL1       -0.0809
     25 C         -60.4600  -43.9916  -32.0367 C.ar    1  UNL1        0.0547
     26 I         -58.4145  -44.5377  -31.8011 I       1  UNL1       -0.0403
     27 C         -63.7934  -41.2415  -20.0761 C.3     1  UNL1        0.1535
     28 C         -63.2626  -39.8802  -19.7047 C.2     1  UNL1        0.2443
     29 O         -62.7984  -39.6831  -18.5480 O.2     1  UNL1       -0.2730
     30 N         -63.2047  -38.8439  -20.6975 N.am    1  UNL1       -0.2825
     31 H         -63.3271  -39.1213  -21.6978 H       1  UNL1        0.1549
     32 C         -62.8671  -37.4758  -20.4133 C.ar    1  UNL1        0.0535
     33 C         -61.8722  -36.7979  -21.1380 C.ar    1  UNL1        0.0353
     34 C         -61.5618  -35.4756  -20.8102 C.ar    1  UNL1        0.1002
     35 N         -62.2088  -34.8557  -19.7882 N.ar    1  UNL1       -0.2422
     36 C         -63.1621  -35.4930  -19.0585 C.ar    1  UNL1        0.1002
     37 C         -63.5018  -36.8158  -19.3522 C.ar    1  UNL1        0.0353
     38 C         -65.3348  -41.2873  -20.0280 C.3     1  UNL1        0.0569
     39 C         -65.9963  -40.4459  -21.0867 C.ar    1  UNL1       -0.0017
     40 C         -66.9207  -39.4259  -20.8764 C.ar    1  UNL1        0.0681
     41 N         -67.2748  -38.8585  -22.0517 N.ar    1  UNL1       -0.3523
     42 C         -66.5833  -39.5105  -23.0024 C.ar    1  UNL1        0.0563
     43 C         -66.6100  -39.2758  -24.3765 C.ar    1  UNL1        0.0170
     44 C         -65.7964  -40.0785  -25.1968 C.ar    1  UNL1        0.0015
     45 C         -64.9854  -41.0876  -24.6321 C.ar    1  UNL1        0.0001
     46 C         -64.9799  -41.3029  -23.2421 C.ar    1  UNL1        0.0012
     47 C         -65.7932  -40.4882  -22.4533 C.ar    1  UNL1        0.0131
     48 H         -67.9457  -38.0702  -22.1880 H       1  UNL1        0.1660
@<TRIPOS>BOND
     1     1     2    2
     2     2     3   am
     3     3    27    1
     4    27    38    1
     5    38    39    1
     6    39    40   ar
     7    40    41   ar
     8    41    42   ar
     9    42    43   ar
    10    43    44   ar
    11    44    45   ar
    12    45    46   ar
    13    46    47   ar
    14    27    28    1
    15    28    29    2
    16    28    30   am
    17    30    32    1
    18    32    33   ar
    19    33    34   ar
    20    34    35   ar
    21    35    36   ar
    22    36    37   ar
    23     2     5    1
    24     5     6   ar
    25     6     7   ar
    26     7     8   ar
    27     8    12    1
    28    12    13    1
    29    13    14    1
    30    14    15    1
    31    15    18    1
    32    18    19   ar
    33    19    20   ar
    34    20    21   ar
    35    21    22    1
    36    21    23   ar
    37    23    24    1
    38    23    25   ar
    39    25    26    1
    40    15    16    1
    41    16    17    1
    42     8     9   ar
    43     9    10   ar
    44    10    11    1
    45    47    39   ar
    46    37    32   ar
    47    10     5   ar
    48    47    42   ar
    49    17    12    1
    50    25    18   ar
    51     3     4    1
    52    41    48    1
    53    30    31    1
@<TRIPOS>MOLECULE
*****
 48 53 0 0 0
SMALL
GASTEIGER

@<TRIPOS>ATOM
      1 O         -60.8205  -42.8391  -20.4445 O.2     1  UNL1       -0.2701
      2 C         -61.4818  -42.3337  -21.3927 C.2     1  UNL1        0.2483
      3 N         -62.2466  -41.1372  -21.1723 N.am    1  UNL1       -0.2945
      4 H         -62.5424  -40.5882  -22.0095 H       1  UNL1        0.1501
      5 C         -61.4217  -42.9609  -22.7326 C.ar    1  UNL1        0.0808
      6 C         -60.3724  -43.8437  -23.0383 C.ar    1  UNL1        0.0080
      7 C         -60.2888  -44.4385  -24.2995 C.ar    1  UNL1        0.0148
      8 C         -61.2602  -44.1730  -25.2768 C.ar    1  UNL1        0.0502
      9 C         -62.3160  -43.3010  -24.9709 C.ar    1  UNL1        0.0443
     10 C         -62.4034  -42.7038  -23.7093 C.ar    1  UNL1        0.1457
     11 F         -63.4746  -41.9186  -23.4341 F       1  UNL1       -0.2040
     12 N         -61.1654  -44.7746  -26.5816 N.pl3   1  UNL1       -0.3040
     13 C         -59.8890  -44.7844  -27.3092 C.3     1  UNL1        0.1122
     14 C         -60.0880  -44.1801  -28.7007 C.3     1  UNL1        0.1122
     15 N         -61.2832  -44.7339  -29.3490 N.pl3   1  UNL1       -0.3037
     16 C         -62.1154  -45.7350  -28.6718 C.3     1  UNL1        0.1122
     17 C         -62.3791  -45.3084  -27.2220 C.3     1  UNL1        0.1122
     18 C         -61.6443  -44.2721  -30.6561 C.ar    1  UNL1        0.0542
     19 C         -62.9603  -43.8607  -30.8931 C.ar    1  UNL1        0.0159
     20 C         -63.3412  -43.4125  -32.1570 C.ar    1  UNL1        0.0135
     21 C         -62.4112  -43.3692  -33.1990 C.ar    1  UNL1        0.0687
     22 CL        -62.9394  -42.7967  -34.7765 Cl      1  UNL1       -0.0813
     23 C         -61.0832  -43.7771  -32.9749 C.ar    1  UNL1        0.0747
     24 CL        -59.9150  -43.7154  -34.2948 Cl      1  UNL1       -0.0809
     25 C         -60.6960  -44.2306  -31.6968 C.ar    1  UNL1        0.0547
     26 I         -58.6889  -44.8351  -31.3178 I       1  UNL1       -0.0403
     27 C         -62.3361  -40.5034  -19.8515 C.3     1  UNL1        0.1535
     28 C         -62.7428  -39.0578  -19.9838 C.2     1  UNL1        0.2443
     29 O         -62.2994  -38.3677  -20.9426 O.2     1  UNL1       -0.2730
     30 N         -63.7028  -38.5022  -19.0713 N.am    1  UNL1       -0.2825
     31 H         -64.2533  -39.1661  -18.4806 H       1  UNL1        0.1549
     32 C         -64.0395  -37.1061  -19.0096 C.ar    1  UNL1        0.0535
     33 C         -63.1533  -36.1589  -18.4691 C.ar    1  UNL1        0.0353
     34 C         -63.5338  -34.8159  -18.4085 C.ar    1  UNL1        0.1002
     35 N         -64.7584  -34.4323  -18.8567 N.ar    1  UNL1       -0.2422
     36 C         -65.6426  -35.3296  -19.3672 C.ar    1  UNL1        0.1002
     37 C         -65.3026  -36.6822  -19.4447 C.ar    1  UNL1        0.0353
     38 C         -63.2867  -41.2823  -18.9185 C.3     1  UNL1        0.0569
     39 C         -64.4092  -41.9754  -19.6437 C.ar    1  UNL1       -0.0017
     40 C         -64.7096  -43.3343  -19.5995 C.ar    1  UNL1        0.0681
     41 N         -65.8084  -43.6005  -20.3415 N.ar    1  UNL1       -0.3523
     42 C         -66.2046  -42.4227  -20.8544 C.ar    1  UNL1        0.0563
     43 C         -67.3018  -42.1889  -21.6823 C.ar    1  UNL1        0.0170
     44 C         -67.5387  -40.8673  -22.1026 C.ar    1  UNL1        0.0015
     45 C         -66.6824  -39.8216  -21.6925 C.ar    1  UNL1        0.0001
     46 C         -65.5818  -40.0876  -20.8580 C.ar    1  UNL1        0.0012
     47 C         -65.3747  -41.4069  -20.4532 C.ar    1  UNL1        0.0131
     48 H         -66.2577  -44.5326  -20.4807 H       1  UNL1        0.1660
@<TRIPOS>BOND
     1     1     2    2
     2     2     3   am
     3     3    27    1
     4    27    38    1
     5    38    39    1
     6    39    40   ar
     7    40    41   ar
     8    41    42   ar
     9    42    43   ar
    10    43    44   ar
    11    44    45   ar
    12    45    46   ar
    13    46    47   ar
    14    27    28    1
    15    28    29    2
    16    28    30   am
    17    30    32    1
    18    32    33   ar
    19    33    34   ar
    20    34    35   ar
    21    35    36   ar
    22    36    37   ar
    23     2     5    1
    24     5     6   ar
    25     6     7   ar
    26     7     8   ar
    27     8    12    1
    28    12    13    1
    29    13    14    1
    30    14    15    1
    31    15    18    1
    32    18    19   ar
    33    19    20   ar
    34    20    21   ar
    35    21    22    1
    36    21    23   ar
    37    23    24    1
    38    23    25   ar
    39    25    26    1
    40    15    16    1
    41    16    17    1
    42     8     9   ar
    43     9    10   ar
    44    10    11    1
    45    47    39   ar
    46    37    32   ar
    47    10     5   ar
    48    47    42   ar
    49    17    12    1
    50    25    18   ar
    51     3     4    1
    52    41    48    1
    53    30    31    1
@<TRIPOS>MOLECULE
*****
 48 53 0 0 0
SMALL
GASTEIGER

@<TRIPOS>ATOM
      1 O         -60.3286  -51.0521  -23.7981 O.2     1  UNL1       -0.2701
      2 C         -61.5092  -50.6384  -23.6345 C.2     1  UNL1        0.2483
      3 N         -61.7694  -49.2265  -23.5715 N.am    1  UNL1       -0.2945
      4 H         -62.7512  -48.9059  -23.7235 H       1  UNL1        0.1501
      5 C         -62.6157  -51.6191  -23.5547 C.ar    1  UNL1        0.0808
      6 C         -62.4994  -52.7273  -22.6991 C.ar    1  UNL1        0.0080
      7 C         -63.5256  -53.6715  -22.6157 C.ar    1  UNL1        0.0148
      8 C         -64.6949  -53.5200  -23.3765 C.ar    1  UNL1        0.0502
      9 C         -64.8193  -52.4081  -24.2232 C.ar    1  UNL1        0.0443
     10 C         -63.7944  -51.4605  -24.3092 C.ar    1  UNL1        0.1457
     11 F         -63.9827  -50.3678  -25.0905 F       1  UNL1       -0.2040
     12 N         -65.7460  -54.5013  -23.3015 N.pl3   1  UNL1       -0.3040
     13 C         -66.6876  -54.6746  -24.4160 C.3     1  UNL1        0.1122
     14 C         -68.1223  -54.5587  -23.8970 C.3     1  UNL1        0.1122
     15 N         -68.3066  -55.3543  -22.6770 N.pl3   1  UNL1       -0.3037
     16 C         -67.1993  -56.1295  -22.1055 C.3     1  UNL1        0.1122
     17 C         -65.9250  -55.2764  -22.0625 C.3     1  UNL1        0.1122
     18 C         -69.5856  -55.3549  -22.0320 C.ar    1  UNL1        0.0542
     19 C         -70.5987  -56.1813  -22.5302 C.ar    1  UNL1        0.0159
     20 C         -71.8549  -56.1976  -21.9261 C.ar    1  UNL1        0.0135
     21 C         -72.1136  -55.3889  -20.8164 C.ar    1  UNL1        0.0687
     22 CL        -73.7146  -55.4436  -20.0889 Cl      1  UNL1       -0.0813
     23 C         -71.1038  -54.5546  -20.3023 C.ar    1  UNL1        0.0747
     24 CL        -71.4379  -53.5400  -18.8989 Cl      1  UNL1       -0.0809
     25 C         -69.8321  -54.5370  -20.9120 C.ar    1  UNL1        0.0547
     26 I         -68.2746  -53.3019  -20.1464 I       1  UNL1       -0.0403
     27 C         -60.6905  -48.2333  -23.6325 C.3     1  UNL1        0.1535
     28 C         -60.9896  -47.1896  -24.6786 C.2     1  UNL1        0.2443
     29 O         -60.2046  -47.0385  -25.6549 O.2     1  UNL1       -0.2730
     30 N         -62.2116  -46.4385  -24.6054 N.am    1  UNL1       -0.2825
     31 H         -62.9566  -46.7836  -23.9585 H       1  UNL1        0.1549
     32 C         -62.5199  -45.3195  -25.4534 C.ar    1  UNL1        0.0535
     33 C         -63.0825  -45.4963  -26.7290 C.ar    1  UNL1        0.0353
     34 C         -63.3431  -44.3797  -27.5274 C.ar    1  UNL1        0.1002
     35 N         -63.0410  -43.1332  -27.0775 N.ar    1  UNL1       -0.2422
     36 C         -62.4794  -42.9341  -25.8559 C.ar    1  UNL1        0.1002
     37 C         -62.2012  -44.0232  -25.0265 C.ar    1  UNL1        0.0353
     38 C         -60.4319  -47.5998  -22.2496 C.3     1  UNL1        0.0569
     39 C         -59.7239  -46.2729  -22.3172 C.ar    1  UNL1       -0.0017
     40 C         -58.4130  -46.0538  -22.7328 C.ar    1  UNL1        0.0681
     41 N         -58.1216  -44.7336  -22.7030 N.ar    1  UNL1       -0.3523
     42 C         -59.2357  -44.1168  -22.2724 C.ar    1  UNL1        0.0563
     43 C         -59.4243  -42.7480  -22.0858 C.ar    1  UNL1        0.0170
     44 C         -60.6821  -42.3136  -21.6291 C.ar    1  UNL1        0.0015
     45 C         -61.7105  -43.2465  -21.3701 C.ar    1  UNL1        0.0001
     46 C         -61.4910  -44.6219  -21.5659 C.ar    1  UNL1        0.0012
     47 C         -60.2353  -45.0227  -22.0241 C.ar    1  UNL1        0.0131
     48 H         -57.2153  -44.2876  -22.9672 H       1  UNL1        0.1660
@<TRIPOS>BOND
     1     1     2    2
     2     2     3   am
     3     3    27    1
     4    27    38    1
     5    38    39    1
     6    39    40   ar
     7    40    41   ar
     8    41    42   ar
     9    42    43   ar
    10    43    44   ar
    11    44    45   ar
    12    45    46   ar
    13    46    47   ar
    14    27    28    1
    15    28    29    2
    16    28    30   am
    17    30    32    1
    18    32    33   ar
    19    33    34   ar
    20    34    35   ar
    21    35    36   ar
    22    36    37   ar
    23     2     5    1
    24     5     6   ar
    25     6     7   ar
    26     7     8   ar
    27     8    12    1
    28    12    13    1
    29    13    14    1
    30    14    15    1
    31    15    18    1
    32    18    19   ar
    33    19    20   ar
    34    20    21   ar
    35    21    22    1
    36    21    23   ar
    37    23    24    1
    38    23    25   ar
    39    25    26    1
    40    15    16    1
    41    16    17    1
    42     8     9   ar
    43     9    10   ar
    44    10    11    1
    45    47    39   ar
    46    37    32   ar
    47    10     5   ar
    48    47    42   ar
    49    17    12    1
    50    25    18   ar
    51     3     4    1
    52    41    48    1
    53    30    31    1
@<TRIPOS>MOLECULE
*****
 48 53 0 0 0
SMALL
GASTEIGER

@<TRIPOS>ATOM
      1 O         -59.9809  -50.5752  -24.0941 O.2     1  UNL1       -0.2701
      2 C         -61.1066  -50.2093  -23.6572 C.2     1  UNL1        0.2483
      3 N         -61.3337  -48.8271  -23.3365 N.am    1  UNL1       -0.2945
      4 H         -62.3228  -48.5027  -23.2566 H       1  UNL1        0.1501
      5 C         -62.1915  -51.2081  -23.5246 C.ar    1  UNL1        0.0808
      6 C         -63.4043  -51.0089  -24.2054 C.ar    1  UNL1        0.0080
      7 C         -64.4460  -51.9320  -24.0863 C.ar    1  UNL1        0.0148
      8 C         -64.2918  -53.0801  -23.2945 C.ar    1  UNL1        0.0502
      9 C         -63.0776  -53.2882  -22.6227 C.ar    1  UNL1        0.0443
     10 C         -62.0322  -52.3666  -22.7396 C.ar    1  UNL1        0.1457
     11 F         -60.8536  -52.6387  -22.1258 F       1  UNL1       -0.2040
     12 N         -65.3711  -54.0237  -23.1601 N.pl3   1  UNL1       -0.3040
     13 C         -66.4061  -54.1282  -24.1978 C.3     1  UNL1        0.1122
     14 C         -67.7884  -53.9752  -23.5596 C.3     1  UNL1        0.1122
     15 N         -67.9042  -54.8000  -22.3506 N.pl3   1  UNL1       -0.3037
     16 C         -66.7856  -55.6326  -21.8934 C.3     1  UNL1        0.1122
     17 C         -65.4794  -54.8289  -21.9321 C.3     1  UNL1        0.1122
     18 C         -69.1257  -54.7729  -21.6029 C.ar    1  UNL1        0.0542
     19 C         -69.2454  -53.8872  -20.5265 C.ar    1  UNL1        0.0159
     20 C         -70.4203  -53.8439  -19.7775 C.ar    1  UNL1        0.0135
     21 C         -71.4901  -54.6845  -20.0958 C.ar    1  UNL1        0.0687
     22 CL        -72.9519  -54.5936  -19.1210 Cl      1  UNL1       -0.0813
     23 C         -71.3855  -55.5786  -21.1774 C.ar    1  UNL1        0.0747
     24 CL        -72.7423  -56.6332  -21.5744 Cl      1  UNL1       -0.0809
     25 C         -70.1977  -55.6237  -21.9364 C.ar    1  UNL1        0.0547
     26 I         -70.0139  -56.9500  -23.5930 I       1  UNL1       -0.0403
     27 C         -60.2723  -47.8190  -23.4439 C.3     1  UNL1        0.1535
     28 C         -60.6252  -46.7867  -24.4844 C.2     1  UNL1        0.2443
     29 O         -59.7638  -46.4378  -25.3379 O.2     1  UNL1       -0.2730
     30 N         -61.9657  -46.2757  -24.5537 N.am    1  UNL1       -0.2825
     31 H         -62.7094  -46.7881  -24.0275 H       1  UNL1        0.1549
     32 C         -62.3672  -45.1828  -25.3967 C.ar    1  UNL1        0.0535
     33 C         -62.9114  -45.4005  -26.6739 C.ar    1  UNL1        0.0353
     34 C         -63.2653  -44.3062  -27.4673 C.ar    1  UNL1        0.1002
     35 N         -63.0709  -43.0407  -27.0109 N.ar    1  UNL1       -0.2422
     36 C         -62.5296  -42.8006  -25.7875 C.ar    1  UNL1        0.1002
     37 C         -62.1606  -43.8662  -24.9630 C.ar    1  UNL1        0.0353
     38 C         -59.9713  -47.1728  -22.0756 C.3     1  UNL1        0.0569
     39 C         -59.6756  -45.6989  -22.1569 C.ar    1  UNL1       -0.0017
     40 C         -58.4824  -45.1153  -22.5749 C.ar    1  UNL1        0.0681
     41 N         -58.5841  -43.7669  -22.5588 N.ar    1  UNL1       -0.3523
     42 C         -59.8298  -43.4933  -22.1343 C.ar    1  UNL1        0.0563
     43 C         -60.4056  -42.2352  -21.9617 C.ar    1  UNL1        0.0170
     44 C         -61.7365  -42.1774  -21.5093 C.ar    1  UNL1        0.0015
     45 C         -62.4530  -43.3645  -21.2406 C.ar    1  UNL1        0.0001
     46 C         -61.8458  -44.6202  -21.4223 C.ar    1  UNL1        0.0012
     47 C         -60.5265  -44.6464  -21.8766 C.ar    1  UNL1        0.0131
     48 H         -57.8440  -43.0812  -22.8276 H       1  UNL1        0.1660
@<TRIPOS>BOND
     1     1     2    2
     2     2     3   am
     3     3    27    1
     4    27    38    1
     5    38    39    1
     6    39    40   ar
     7    40    41   ar
     8    41    42   ar
     9    42    43   ar
    10    43    44   ar
    11    44    45   ar
    12    45    46   ar
    13    46    47   ar
    14    27    28    1
    15    28    29    2
    16    28    30   am
    17    30    32    1
    18    32    33   ar
    19    33    34   ar
    20    34    35   ar
    21    35    36   ar
    22    36    37   ar
    23     2     5    1
    24     5     6   ar
    25     6     7   ar
    26     7     8   ar
    27     8    12    1
    28    12    13    1
    29    13    14    1
    30    14    15    1
    31    15    18    1
    32    18    19   ar
    33    19    20   ar
    34    20    21   ar
    35    21    22    1
    36    21    23   ar
    37    23    24    1
    38    23    25   ar
    39    25    26    1
    40    15    16    1
    41    16    17    1
    42     8     9   ar
    43     9    10   ar
    44    10    11    1
    45    47    39   ar
    46    37    32   ar
    47    10     5   ar
    48    47    42   ar
    49    17    12    1
    50    25    18   ar
    51     3     4    1
    52    41    48    1
    53    30    31    1
@<TRIPOS>MOLECULE
*****
 48 53 0 0 0
SMALL
GASTEIGER

@<TRIPOS>ATOM
      1 O         -59.9051  -46.2043  -24.9652 O.2     1  UNL1       -0.2701
      2 C         -60.5029  -45.1200  -25.2076 C.2     1  UNL1        0.2483
      3 N         -60.5876  -44.6370  -26.5583 N.am    1  UNL1       -0.2945
      4 H         -61.3106  -43.9150  -26.7721 H       1  UNL1        0.1501
      5 C         -61.1477  -44.3844  -24.0960 C.ar    1  UNL1        0.0808
      6 C         -61.9084  -45.0886  -23.1477 C.ar    1  UNL1        0.0080
      7 C         -62.5352  -44.4145  -22.0970 C.ar    1  UNL1        0.0148
      8 C         -62.4032  -43.0237  -21.9651 C.ar    1  UNL1        0.0502
      9 C         -61.6344  -42.3188  -22.9036 C.ar    1  UNL1        0.0443
     10 C         -61.0051  -42.9900  -23.9568 C.ar    1  UNL1        0.1457
     11 F         -60.2190  -42.2797  -24.8037 F       1  UNL1       -0.2040
     12 N         -63.0617  -42.3273  -20.8905 N.pl3   1  UNL1       -0.3040
     13 C         -64.5155  -42.1159  -20.9168 C.3     1  UNL1        0.1122
     14 C         -64.8199  -40.6275  -20.7342 C.3     1  UNL1        0.1122
     15 N         -64.0364  -40.0617  -19.6290 N.pl3   1  UNL1       -0.3037
     16 C         -63.1087  -40.8953  -18.8556 C.3     1  UNL1        0.1122
     17 C         -62.2562  -41.7519  -19.8005 C.3     1  UNL1        0.1122
     18 C         -64.1737  -38.6701  -19.3183 C.ar    1  UNL1        0.0542
     19 C         -65.1309  -38.2739  -18.3780 C.ar    1  UNL1        0.0159
     20 C         -65.2905  -36.9258  -18.0609 C.ar    1  UNL1        0.0135
     21 C         -64.4949  -35.9576  -18.6790 C.ar    1  UNL1        0.0687
     22 CL        -64.7339  -34.2691  -18.2464 Cl      1  UNL1       -0.0813
     23 C         -63.5261  -36.3412  -19.6247 C.ar    1  UNL1        0.0747
     24 CL        -62.5236  -35.1128  -20.3971 Cl      1  UNL1       -0.0809
     25 C         -63.3630  -37.7046  -19.9466 C.ar    1  UNL1        0.0547
     26 I         -61.8915  -38.3217  -21.3577 I       1  UNL1       -0.0403
     27 C         -59.9450  -45.3376  -27.6766 C.3     1  UNL1        0.1535
     28 C         -60.8377  -46.4353  -28.1973 C.2     1  UNL1        0.2443
     29 O         -60.3275  -47.5050  -28.6304 O.2     1  UNL1       -0.2730
     30 N         -62.2643  -46.2928  -28.1121 N.am    1  UNL1       -0.2825
     31 H         -62.6417  -45.5353  -27.4985 H       1  UNL1        0.1549
     32 C         -63.2008  -47.2005  -28.7165 C.ar    1  UNL1        0.0535
     33 C         -63.3624  -48.5137  -28.2432 C.ar    1  UNL1        0.0353
     34 C         -64.2680  -49.3678  -28.8778 C.ar    1  UNL1        0.1002
     35 N         -64.9764  -48.9343  -29.9537 N.ar    1  UNL1       -0.2422
     36 C         -64.8267  -47.6755  -30.4442 C.ar    1  UNL1        0.1002
     37 C         -63.9309  -46.7900  -29.8402 C.ar    1  UNL1        0.0353
     38 C         -59.5351  -44.3552  -28.7934 C.3     1  UNL1        0.0569
     39 C         -60.6843  -43.9144  -29.6603 C.ar    1  UNL1       -0.0017
     40 C         -61.9268  -43.4635  -29.2224 C.ar    1  UNL1        0.0681
     41 N         -62.7013  -43.1147  -30.2746 N.ar    1  UNL1       -0.3523
     42 C         -61.9601  -43.3413  -31.3729 C.ar    1  UNL1        0.0563
     43 C         -62.3293  -43.1251  -32.6999 C.ar    1  UNL1        0.0170
     44 C         -61.3893  -43.4280  -33.7019 C.ar    1  UNL1        0.0015
     45 C         -60.1169  -43.9363  -33.3591 C.ar    1  UNL1        0.0001
     46 C         -59.7725  -44.1459  -32.0116 C.ar    1  UNL1        0.0012
     47 C         -60.7233  -43.8318  -31.0395 C.ar    1  UNL1        0.0131
     48 H         -63.6753  -42.7404  -30.2367 H       1  UNL1        0.1660
@<TRIPOS>BOND
     1     1     2    2
     2     2     3   am
     3     3    27    1
     4    27    38    1
     5    38    39    1
     6    39    40   ar
     7    40    41   ar
     8    41    42   ar
     9    42    43   ar
    10    43    44   ar
    11    44    45   ar
    12    45    46   ar
    13    46    47   ar
    14    27    28    1
    15    28    29    2
    16    28    30   am
    17    30    32    1
    18    32    33   ar
    19    33    34   ar
    20    34    35   ar
    21    35    36   ar
    22    36    37   ar
    23     2     5    1
    24     5     6   ar
    25     6     7   ar
    26     7     8   ar
    27     8    12    1
    28    12    13    1
    29    13    14    1
    30    14    15    1
    31    15    18    1
    32    18    19   ar
    33    19    20   ar
    34    20    21   ar
    35    21    22    1
    36    21    23   ar
    37    23    24    1
    38    23    25   ar
    39    25    26    1
    40    15    16    1
    41    16    17    1
    42     8     9   ar
    43     9    10   ar
    44    10    11    1
    45    47    39   ar
    46    37    32   ar
    47    10     5   ar
    48    47    42   ar
    49    17    12    1
    50    25    18   ar
    51     3     4    1
    52    41    48    1
    53    30    31    1
