@<TRIPOS>MOLECULE
*****
 37 42 0 0 0
SMALL
GASTEIGER

@<TRIPOS>ATOM
      1 C         -20.4401   -7.5884   -9.1114 C.ar    1  UNL1        0.1095
      2 N         -20.0091   -7.1063   -7.9178 N.ar    1  UNL1       -0.1677
      3 N         -19.1688   -7.9914   -7.3944 N.ar    1  UNL1       -0.2319
      4 C         -18.4374   -7.7934   -6.1503 C.3     1  UNL1        0.1554
      5 C         -19.0418   -9.0149   -8.2524 C.ar    1  UNL1        0.1650
      6 N         -18.2344  -10.0949   -8.1235 N.ar    1  UNL1       -0.2095
      7 C         -18.2373  -11.0266   -9.1238 C.ar    1  UNL1        0.1717
      8 N         -19.0761  -10.8826  -10.1996 N.ar    1  UNL1       -0.2133
      9 C         -19.8952   -9.7969  -10.3335 C.ar    1  UNL1        0.1376
     10 C         -19.8408   -8.8217   -9.3361 C.ar    1  UNL1        0.0865
     11 C         -22.6231   -7.0145  -10.3241 C.ar    1  UNL1        0.0809
     12 C         -21.2864   -6.8112  -10.0296 C.ar    1  UNL1        0.0577
     13 C         -20.9520   -5.6352  -10.6748 C.ar    1  UNL1        0.1231
     14 N         -22.0257   -5.1734  -11.3449 N.ar    1  UNL1       -0.1676
     15 N         -23.0276   -6.0154  -11.1405 N.ar    1  UNL1       -0.2488
     16 C         -24.3500   -5.8338  -11.7300 C.3     1  UNL1        0.1537
     17 C         -25.8420  -11.5193   -8.6204 C.3     1  UNL1        0.0310
     18 C         -25.0316  -10.3298   -9.0421 C.ar    1  UNL1       -0.0218
     19 C         -25.2953   -9.6923  -10.2634 C.ar    1  UNL1       -0.0042
     20 C         -24.5158   -8.6077  -10.6748 C.ar    1  UNL1        0.0012
     21 C         -23.4551   -8.1523   -9.8756 C.ar    1  UNL1        0.0174
     22 C         -23.1778   -8.8057   -8.6652 C.ar    1  UNL1        0.0012
     23 C         -23.9580   -9.8901   -8.2534 C.ar    1  UNL1       -0.0042
     24 N         -20.8406   -9.7426  -11.4065 N.pl3   1  UNL1       -0.2917
     25 C         -21.7106  -10.8597  -11.7294 C.3     1  UNL1        0.0937
     26 C         -22.1865  -10.6084  -13.1549 C.3     1  UNL1        0.0391
     27 C         -21.8747   -9.1305  -13.4548 C.3     1  UNL1        0.0790
     28 C         -20.7053   -8.8143  -12.5114 C.3     1  UNL1        0.1081
     29 N         -21.5391   -8.8970  -14.8863 N.3     1  UNL1       -0.2723
     30 C         -21.6803  -10.1346  -15.7077 C.3     1  UNL1        0.0721
     31 C         -23.0172  -10.2040  -16.4592 C.3     1  UNL1        0.0174
     32 C         -23.1642   -9.0260  -17.4356 C.3     1  UNL1        0.0029
     33 C         -22.3937   -7.7805  -16.9702 C.3     1  UNL1        0.0174
     34 C         -22.2950   -7.7381  -15.4407 C.3     1  UNL1        0.0721
     35 C         -17.3848  -12.2494   -9.0045 C.3     1  UNL1        0.2032
     36 O         -17.9371  -13.2947   -9.7561 O.3     1  UNL1       -0.3748
     37 H         -17.7288  -13.1012  -10.7076 H       1  UNL1        0.2110
@<TRIPOS>BOND
     1    17    18    1
     2    18    19   ar
     3    19    20   ar
     4    20    21   ar
     5    21    11    1
     6    11    12   ar
     7    12     1    1
     8     1     2   ar
     9     2     3   ar
    10     3     4    1
    11     3     5   ar
    12     5     6   ar
    13     6     7   ar
    14     7    35    1
    15    35    36    1
    16     7     8   ar
    17     8     9   ar
    18     9    24    1
    19    24    25    1
    20    25    26    1
    21    26    27    1
    22    27    29    1
    23    29    30    1
    24    30    31    1
    25    31    32    1
    26    32    33    1
    27    33    34    1
    28    27    28    1
    29     9    10   ar
    30    12    13   ar
    31    13    14   ar
    32    14    15   ar
    33    15    16    1
    34    21    22   ar
    35    22    23   ar
    36    23    18   ar
    37    15    11   ar
    38    10     1   ar
    39    10     5   ar
    40    28    24    1
    41    34    29    1
    42    36    37    1
@<TRIPOS>MOLECULE
*****
 37 42 0 0 0
SMALL
GASTEIGER

@<TRIPOS>ATOM
      1 C         -21.6253   -7.6784  -12.5849 C.ar    1  UNL1        0.1095
      2 N         -21.6553   -6.3226  -12.5234 N.ar    1  UNL1       -0.1677
      3 N         -21.3679   -5.9595  -11.2788 N.ar    1  UNL1       -0.2319
      4 C         -21.2278   -4.5783  -10.8380 C.3     1  UNL1        0.1554
      5 C         -21.1306   -7.0659  -10.5580 C.ar    1  UNL1        0.1650
      6 N         -20.7468   -7.1301   -9.2606 N.ar    1  UNL1       -0.2095
      7 C         -20.5380   -8.3634   -8.7090 C.ar    1  UNL1        0.1717
      8 N         -20.7621   -9.4974   -9.4475 N.ar    1  UNL1       -0.2133
      9 C         -21.1526   -9.4389  -10.7559 C.ar    1  UNL1        0.1376
     10 C         -21.3048   -8.1742  -11.3270 C.ar    1  UNL1        0.0865
     11 C         -22.9319   -8.6481  -14.5643 C.ar    1  UNL1        0.0809
     12 C         -21.7720   -8.4257  -13.8432 C.ar    1  UNL1        0.0577
     13 C         -20.7569   -8.9354  -14.6311 C.ar    1  UNL1        0.1231
     14 N         -21.2849   -9.4618  -15.7532 N.ar    1  UNL1       -0.1676
     15 N         -22.5982   -9.2974  -15.7024 N.ar    1  UNL1       -0.2488
     16 C         -23.4978   -9.7627  -16.7530 C.3     1  UNL1        0.1537
     17 C         -28.3335   -7.2577  -12.9999 C.3     1  UNL1        0.0310
     18 C         -26.9233   -7.6099  -13.3696 C.ar    1  UNL1       -0.0218
     19 C         -26.0812   -6.6455  -13.9425 C.ar    1  UNL1       -0.0042
     20 C         -24.7793   -6.9831  -14.3226 C.ar    1  UNL1        0.0012
     21 C         -24.3052   -8.2926  -14.1448 C.ar    1  UNL1        0.0174
     22 C         -25.1564   -9.2621  -13.5931 C.ar    1  UNL1        0.0012
     23 C         -26.4582   -8.9240  -13.2123 C.ar    1  UNL1       -0.0042
     24 N         -21.4919  -10.6406  -11.4551 N.pl3   1  UNL1       -0.2917
     25 C         -20.4895  -11.4722  -12.0974 C.3     1  UNL1        0.0937
     26 C         -21.2523  -12.3348  -13.0953 C.3     1  UNL1        0.0391
     27 C         -22.7367  -12.2363  -12.6976 C.3     1  UNL1        0.0790
     28 C         -22.8231  -10.8848  -11.9740 C.3     1  UNL1        0.1081
     29 N         -23.6489  -12.3206  -13.8711 N.3     1  UNL1       -0.2723
     30 C         -23.0280  -13.0471  -15.0169 C.3     1  UNL1        0.0721
     31 C         -23.4595  -14.5182  -15.0964 C.3     1  UNL1        0.0174
     32 C         -24.9796  -14.6387  -15.2895 C.3     1  UNL1        0.0029
     33 C         -25.7426  -13.4512  -14.6821 C.3     1  UNL1        0.0174
     34 C         -24.9817  -12.8659  -13.4865 C.3     1  UNL1        0.0721
     35 C         -20.1453   -8.4786   -7.2707 C.3     1  UNL1        0.2032
     36 O         -19.6562   -7.2505   -6.8069 O.3     1  UNL1       -0.3748
     37 H         -20.4460   -6.6657   -6.6644 H       1  UNL1        0.2110
@<TRIPOS>BOND
     1    17    18    1
     2    18    19   ar
     3    19    20   ar
     4    20    21   ar
     5    21    11    1
     6    11    12   ar
     7    12     1    1
     8     1     2   ar
     9     2     3   ar
    10     3     4    1
    11     3     5   ar
    12     5     6   ar
    13     6     7   ar
    14     7    35    1
    15    35    36    1
    16     7     8   ar
    17     8     9   ar
    18     9    24    1
    19    24    25    1
    20    25    26    1
    21    26    27    1
    22    27    29    1
    23    29    30    1
    24    30    31    1
    25    31    32    1
    26    32    33    1
    27    33    34    1
    28    27    28    1
    29     9    10   ar
    30    12    13   ar
    31    13    14   ar
    32    14    15   ar
    33    15    16    1
    34    21    22   ar
    35    22    23   ar
    36    23    18   ar
    37    15    11   ar
    38    10     1   ar
    39    10     5   ar
    40    28    24    1
    41    34    29    1
    42    36    37    1
@<TRIPOS>MOLECULE
*****
 37 42 0 0 0
SMALL
GASTEIGER

@<TRIPOS>ATOM
      1 C         -21.6483  -10.7558  -12.1813 C.ar    1  UNL1        0.1095
      2 N         -20.6141  -11.5940  -12.4473 N.ar    1  UNL1       -0.1677
      3 N         -21.1022  -12.6755  -13.0435 N.ar    1  UNL1       -0.2319
      4 C         -20.2879  -13.7708  -13.5525 C.3     1  UNL1        0.1554
      5 C         -22.4278  -12.5218  -13.1821 C.ar    1  UNL1        0.1650
      6 N         -23.2901  -13.3700  -13.7920 N.ar    1  UNL1       -0.2095
      7 C         -24.6111  -13.0215  -13.8435 C.ar    1  UNL1        0.1717
      8 N         -25.0441  -11.8646  -13.2469 N.ar    1  UNL1       -0.2133
      9 C         -24.1793  -11.0068  -12.6274 C.ar    1  UNL1        0.1376
     10 C         -22.8242  -11.3424  -12.6327 C.ar    1  UNL1        0.0865
     11 C         -21.6998   -8.1956  -12.2712 C.ar    1  UNL1        0.0809
     12 C         -21.4614   -9.4022  -11.6372 C.ar    1  UNL1        0.0577
     13 C         -21.1443   -9.0659  -10.3343 C.ar    1  UNL1        0.1231
     14 N         -21.1637   -7.7253  -10.2025 N.ar    1  UNL1       -0.1676
     15 N         -21.4869   -7.2043  -11.3766 N.ar    1  UNL1       -0.2488
     16 C         -21.5895   -5.7669  -11.6061 C.3     1  UNL1        0.1537
     17 C         -23.1531   -7.5533  -17.8420 C.3     1  UNL1        0.0310
     18 C         -22.7640   -7.6838  -16.3994 C.ar    1  UNL1       -0.0218
     19 C         -21.5131   -8.2137  -16.0501 C.ar    1  UNL1       -0.0042
     20 C         -21.1651   -8.3713  -14.7057 C.ar    1  UNL1        0.0012
     21 C         -22.0674   -8.0110  -13.6921 C.ar    1  UNL1        0.0174
     22 C         -23.3272   -7.5028  -14.0432 C.ar    1  UNL1        0.0012
     23 C         -23.6749   -7.3445  -15.3879 C.ar    1  UNL1       -0.0042
     24 N         -24.6846   -9.8737  -11.9140 N.pl3   1  UNL1       -0.2917
     25 C         -25.0803   -9.9504  -10.5189 C.3     1  UNL1        0.0937
     26 C         -25.9751   -8.7404  -10.2806 C.3     1  UNL1        0.0391
     27 C         -25.7335   -7.7903  -11.4681 C.3     1  UNL1        0.0790
     28 C         -25.2682   -8.7313  -12.5887 C.3     1  UNL1        0.1081
     29 N         -26.9500   -7.0147  -11.8355 N.3     1  UNL1       -0.2723
     30 C         -26.6418   -5.5822  -12.1169 C.3     1  UNL1        0.0721
     31 C         -26.5013   -5.2844  -13.6164 C.3     1  UNL1        0.0174
     32 C         -27.8069   -5.5942  -14.3661 C.3     1  UNL1        0.0029
     33 C         -28.6238   -6.7035  -13.6852 C.3     1  UNL1        0.0174
     34 C         -27.7062   -7.6771  -12.9360 C.3     1  UNL1        0.0721
     35 C         -25.6003  -13.9455  -14.4790 C.3     1  UNL1        0.2032
     36 O         -26.8619  -13.7732  -13.8947 O.3     1  UNL1       -0.3748
     37 H         -27.2347  -12.9314  -14.2668 H       1  UNL1        0.2110
@<TRIPOS>BOND
     1    17    18    1
     2    18    19   ar
     3    19    20   ar
     4    20    21   ar
     5    21    11    1
     6    11    12   ar
     7    12     1    1
     8     1     2   ar
     9     2     3   ar
    10     3     4    1
    11     3     5   ar
    12     5     6   ar
    13     6     7   ar
    14     7    35    1
    15    35    36    1
    16     7     8   ar
    17     8     9   ar
    18     9    24    1
    19    24    25    1
    20    25    26    1
    21    26    27    1
    22    27    29    1
    23    29    30    1
    24    30    31    1
    25    31    32    1
    26    32    33    1
    27    33    34    1
    28    27    28    1
    29     9    10   ar
    30    12    13   ar
    31    13    14   ar
    32    14    15   ar
    33    15    16    1
    34    21    22   ar
    35    22    23   ar
    36    23    18   ar
    37    15    11   ar
    38    10     1   ar
    39    10     5   ar
    40    28    24    1
    41    34    29    1
    42    36    37    1
@<TRIPOS>MOLECULE
*****
 37 42 0 0 0
SMALL
GASTEIGER

@<TRIPOS>ATOM
      1 C         -22.9301   -9.3428  -14.7353 C.ar    1  UNL1        0.1095
      2 N         -22.8329   -9.2121  -16.0831 N.ar    1  UNL1       -0.1677
      3 N         -23.3460  -10.3023  -16.6414 N.ar    1  UNL1       -0.2319
      4 C         -23.4908  -10.4990  -18.0774 C.3     1  UNL1        0.1554
      5 C         -23.7904  -11.1095  -15.6663 C.ar    1  UNL1        0.1650
      6 N         -24.4337  -12.2925  -15.8134 N.ar    1  UNL1       -0.2095
      7 C         -24.8233  -12.9605  -14.6861 C.ar    1  UNL1        0.1717
      8 N         -24.5210  -12.4578  -13.4461 N.ar    1  UNL1       -0.2133
      9 C         -23.8693  -11.2666  -13.2914 C.ar    1  UNL1        0.1376
     10 C         -23.5291  -10.5633  -14.4483 C.ar    1  UNL1        0.0865
     11 C         -23.4257   -7.3629  -13.1860 C.ar    1  UNL1        0.0809
     12 C         -22.5746   -8.2653  -13.7994 C.ar    1  UNL1        0.0577
     13 C         -21.3347   -8.0287  -13.2357 C.ar    1  UNL1        0.1231
     14 N         -21.4328   -7.0172  -12.3512 N.ar    1  UNL1       -0.1676
     15 N         -22.6933   -6.6106  -12.3341 N.ar    1  UNL1       -0.2488
     16 C         -23.1623   -5.5137  -11.4937 C.3     1  UNL1        0.1537
     17 C         -29.0798   -6.7746  -14.3008 C.3     1  UNL1        0.0310
     18 C         -27.6203   -6.9055  -13.9811 C.ar    1  UNL1       -0.0218
     19 C         -26.6905   -6.0223  -14.5494 C.ar    1  UNL1       -0.0042
     20 C         -25.3263   -6.1675  -14.2823 C.ar    1  UNL1        0.0012
     21 C         -24.8722   -7.2043  -13.4517 C.ar    1  UNL1        0.0174
     22 C         -25.8012   -8.1011  -12.9026 C.ar    1  UNL1        0.0012
     23 C         -27.1657   -7.9554  -13.1692 C.ar    1  UNL1       -0.0042
     24 N         -23.4664  -10.8361  -11.9874 N.pl3   1  UNL1       -0.2917
     25 C         -24.3684  -10.1361  -11.0900 C.3     1  UNL1        0.0937
     26 C         -23.4740   -9.4511  -10.0639 C.3     1  UNL1        0.0391
     27 C         -22.0925  -10.1200  -10.1877 C.3     1  UNL1        0.0790
     28 C         -22.0750  -10.6374  -11.6332 C.3     1  UNL1        0.1081
     29 N         -20.9751   -9.1795   -9.8991 N.3     1  UNL1       -0.2723
     30 C         -21.3359   -8.1795   -8.8522 C.3     1  UNL1        0.0721
     31 C         -20.8254   -8.5646   -7.4565 C.3     1  UNL1        0.0174
     32 C         -19.2919   -8.6664   -7.4375 C.3     1  UNL1        0.0029
     33 C         -18.7142   -9.0567   -8.8069 C.3     1  UNL1        0.0174
     34 C         -19.7118   -9.9111   -9.5980 C.3     1  UNL1        0.0721
     35 C         -25.5070  -14.2851  -14.8047 C.3     1  UNL1        0.2032
     36 O         -25.1713  -14.8911  -16.0223 O.3     1  UNL1       -0.3748
     37 H         -24.2495  -15.2459  -15.9184 H       1  UNL1        0.2110
@<TRIPOS>BOND
     1    17    18    1
     2    18    19   ar
     3    19    20   ar
     4    20    21   ar
     5    21    11    1
     6    11    12   ar
     7    12     1    1
     8     1     2   ar
     9     2     3   ar
    10     3     4    1
    11     3     5   ar
    12     5     6   ar
    13     6     7   ar
    14     7    35    1
    15    35    36    1
    16     7     8   ar
    17     8     9   ar
    18     9    24    1
    19    24    25    1
    20    25    26    1
    21    26    27    1
    22    27    29    1
    23    29    30    1
    24    30    31    1
    25    31    32    1
    26    32    33    1
    27    33    34    1
    28    27    28    1
    29     9    10   ar
    30    12    13   ar
    31    13    14   ar
    32    14    15   ar
    33    15    16    1
    34    21    22   ar
    35    22    23   ar
    36    23    18   ar
    37    15    11   ar
    38    10     1   ar
    39    10     5   ar
    40    28    24    1
    41    34    29    1
    42    36    37    1
@<TRIPOS>MOLECULE
*****
 37 42 0 0 0
SMALL
GASTEIGER

@<TRIPOS>ATOM
      1 C         -22.1490   -7.2956  -13.0676 C.ar    1  UNL1        0.1095
      2 N         -21.6812   -6.0700  -12.7184 N.ar    1  UNL1       -0.1677
      3 N         -21.6683   -5.9956  -11.3926 N.ar    1  UNL1       -0.2319
      4 C         -21.1566   -4.8590  -10.6388 C.3     1  UNL1        0.1554
      5 C         -22.0967   -7.1667  -10.8976 C.ar    1  UNL1        0.1650
      6 N         -22.1769   -7.5230   -9.5932 N.ar    1  UNL1       -0.2095
      7 C         -22.6271   -8.7785   -9.2931 C.ar    1  UNL1        0.1717
      8 N         -23.0289   -9.6259  -10.2941 N.ar    1  UNL1       -0.2133
      9 C         -22.9534   -9.2708  -11.6116 C.ar    1  UNL1        0.1376
     10 C         -22.4360   -8.0090  -11.9103 C.ar    1  UNL1        0.0865
     11 C         -23.1528   -7.5355  -15.4129 C.ar    1  UNL1        0.0809
     12 C         -22.1799   -7.7737  -14.4581 C.ar    1  UNL1        0.0577
     13 C         -21.1727   -8.4398  -15.1313 C.ar    1  UNL1        0.1231
     14 N         -21.5365   -8.6167  -16.4163 N.ar    1  UNL1       -0.1676
     15 N         -22.7369   -8.0808  -16.5782 N.ar    1  UNL1       -0.2488
     16 C         -23.4500   -8.1006  -17.8512 C.3     1  UNL1        0.1537
     17 C         -28.2579   -4.9191  -14.6065 C.3     1  UNL1        0.0310
     18 C         -26.9196   -5.5698  -14.7939 C.ar    1  UNL1       -0.0218
     19 C         -26.1355   -5.2627  -15.9157 C.ar    1  UNL1       -0.0042
     20 C         -24.9056   -5.8972  -16.1108 C.ar    1  UNL1        0.0012
     21 C         -24.4477   -6.8553  -15.1923 C.ar    1  UNL1        0.0174
     22 C         -25.2437   -7.1784  -14.0829 C.ar    1  UNL1        0.0012
     23 C         -26.4736   -6.5432  -13.8875 C.ar    1  UNL1       -0.0042
     24 N         -23.4935  -10.1343  -12.6170 N.pl3   1  UNL1       -0.2917
     25 C         -24.9150  -10.1879  -12.9094 C.3     1  UNL1        0.0937
     26 C         -25.1316  -11.5050  -13.6445 C.3     1  UNL1        0.0391
     27 C         -23.7368  -11.9765  -14.0956 C.3     1  UNL1        0.0790
     28 C         -22.7916  -11.3134  -13.0835 C.3     1  UNL1        0.1081
     29 N         -23.6136  -13.4600  -14.1126 N.3     1  UNL1       -0.2723
     30 C         -24.9203  -14.1315  -14.3732 C.3     1  UNL1        0.0721
     31 C         -25.0993  -14.5414  -15.8418 C.3     1  UNL1        0.0174
     32 C         -24.0138  -15.5405  -16.2730 C.3     1  UNL1        0.0029
     33 C         -22.7074  -15.3623  -15.4837 C.3     1  UNL1        0.0174
     34 C         -22.5326  -13.9060  -15.0369 C.3     1  UNL1        0.0721
     35 C         -22.7615   -9.1992   -7.8644 C.3     1  UNL1        0.2032
     36 O         -23.3890   -8.1892   -7.1237 O.3     1  UNL1       -0.3748
     37 H         -24.3556   -8.2313   -7.3478 H       1  UNL1        0.2110
@<TRIPOS>BOND
     1    17    18    1
     2    18    19   ar
     3    19    20   ar
     4    20    21   ar
     5    21    11    1
     6    11    12   ar
     7    12     1    1
     8     1     2   ar
     9     2     3   ar
    10     3     4    1
    11     3     5   ar
    12     5     6   ar
    13     6     7   ar
    14     7    35    1
    15    35    36    1
    16     7     8   ar
    17     8     9   ar
    18     9    24    1
    19    24    25    1
    20    25    26    1
    21    26    27    1
    22    27    29    1
    23    29    30    1
    24    30    31    1
    25    31    32    1
    26    32    33    1
    27    33    34    1
    28    27    28    1
    29     9    10   ar
    30    12    13   ar
    31    13    14   ar
    32    14    15   ar
    33    15    16    1
    34    21    22   ar
    35    22    23   ar
    36    23    18   ar
    37    15    11   ar
    38    10     1   ar
    39    10     5   ar
    40    28    24    1
    41    34    29    1
    42    36    37    1
@<TRIPOS>MOLECULE
*****
 37 42 0 0 0
SMALL
GASTEIGER

@<TRIPOS>ATOM
      1 C         -21.7997  -10.9187  -11.1464 C.ar    1  UNL1        0.1095
      2 N         -20.7249  -11.7235  -11.3463 N.ar    1  UNL1       -0.1677
      3 N         -19.7686  -11.3518  -10.5032 N.ar    1  UNL1       -0.2319
      4 C         -18.4871  -12.0302  -10.3642 C.3     1  UNL1        0.1554
      5 C         -20.2326  -10.3398   -9.7545 C.ar    1  UNL1        0.1650
      6 N         -19.5926   -9.7143   -8.7377 N.ar    1  UNL1       -0.2095
      7 C         -20.2482   -8.7090   -8.0830 C.ar    1  UNL1        0.1717
      8 N         -21.5008   -8.3230   -8.4875 N.ar    1  UNL1       -0.2133
      9 C         -22.1501   -8.9481   -9.5147 C.ar    1  UNL1        0.1376
     10 C         -21.4962  -10.0128  -10.1375 C.ar    1  UNL1        0.0865
     11 C         -23.4122  -10.8426  -13.1363 C.ar    1  UNL1        0.0809
     12 C         -23.0904  -11.1256  -11.8206 C.ar    1  UNL1        0.0577
     13 C         -24.1995  -11.7756  -11.3123 C.ar    1  UNL1        0.1231
     14 N         -25.1476  -11.8523  -12.2663 N.ar    1  UNL1       -0.1676
     15 N         -24.6728  -11.2769  -13.3608 N.ar    1  UNL1       -0.2488
     16 C         -25.4410  -11.1659  -14.5965 C.3     1  UNL1        0.1537
     17 C         -20.1178   -8.0860  -17.0230 C.3     1  UNL1        0.0310
     18 C         -20.9400   -8.8046  -15.9949 C.ar    1  UNL1       -0.0218
     19 C         -21.1705  -10.1833  -16.1121 C.ar    1  UNL1       -0.0042
     20 C         -21.9683  -10.8465  -15.1756 C.ar    1  UNL1        0.0012
     21 C         -22.5553  -10.1382  -14.1150 C.ar    1  UNL1        0.0174
     22 C         -22.3429   -8.7550  -14.0122 C.ar    1  UNL1        0.0012
     23 C         -21.5443   -8.0919  -14.9486 C.ar    1  UNL1       -0.0042
     24 N         -23.4024   -8.4389   -9.9843 N.pl3   1  UNL1       -0.2917
     25 C         -24.6701   -9.0503   -9.6266 C.3     1  UNL1        0.0937
     26 C         -25.6709   -8.5519  -10.6619 C.3     1  UNL1        0.0391
     27 C         -25.0075   -7.3447  -11.3502 C.3     1  UNL1        0.0790
     28 C         -23.5063   -7.6121  -11.1702 C.3     1  UNL1        0.1081
     29 N         -25.4020   -7.2149  -12.7799 N.3     1  UNL1       -0.2723
     30 C         -26.4776   -8.1775  -13.1576 C.3     1  UNL1        0.0721
     31 C         -27.8771   -7.5467  -13.1415 C.3     1  UNL1        0.0174
     32 C         -27.9721   -6.3867  -14.1455 C.3     1  UNL1        0.0029
     33 C         -26.6172   -5.6991  -14.3753 C.3     1  UNL1        0.0174
     34 C         -25.7322   -5.8036  -13.1275 C.3     1  UNL1        0.0721
     35 C         -19.5642   -7.9715   -6.9765 C.3     1  UNL1        0.2032
     36 O         -18.6107   -7.0911   -7.5041 O.3     1  UNL1       -0.3748
     37 H         -19.1117   -6.3146   -7.8680 H       1  UNL1        0.2110
@<TRIPOS>BOND
     1    17    18    1
     2    18    19   ar
     3    19    20   ar
     4    20    21   ar
     5    21    11    1
     6    11    12   ar
     7    12     1    1
     8     1     2   ar
     9     2     3   ar
    10     3     4    1
    11     3     5   ar
    12     5     6   ar
    13     6     7   ar
    14     7    35    1
    15    35    36    1
    16     7     8   ar
    17     8     9   ar
    18     9    24    1
    19    24    25    1
    20    25    26    1
    21    26    27    1
    22    27    29    1
    23    29    30    1
    24    30    31    1
    25    31    32    1
    26    32    33    1
    27    33    34    1
    28    27    28    1
    29     9    10   ar
    30    12    13   ar
    31    13    14   ar
    32    14    15   ar
    33    15    16    1
    34    21    22   ar
    35    22    23   ar
    36    23    18   ar
    37    15    11   ar
    38    10     1   ar
    39    10     5   ar
    40    28    24    1
    41    34    29    1
    42    36    37    1
@<TRIPOS>MOLECULE
*****
 37 42 0 0 0
SMALL
GASTEIGER

@<TRIPOS>ATOM
      1 C         -24.0410   -7.3896  -13.9339 C.ar    1  UNL1        0.1095
      2 N         -24.7627   -6.3897  -14.5017 N.ar    1  UNL1       -0.1677
      3 N         -25.8669   -6.2190  -13.7841 N.ar    1  UNL1       -0.2319
      4 C         -26.8581   -5.1818  -14.0364 C.3     1  UNL1        0.1554
      5 C         -25.8415   -7.0793  -12.7549 C.ar    1  UNL1        0.1650
      6 N         -26.7504   -7.1870  -11.7563 N.ar    1  UNL1       -0.2095
      7 C         -26.5337   -8.1231  -10.7839 C.ar    1  UNL1        0.1717
      8 N         -25.4463   -8.9561  -10.8569 N.ar    1  UNL1       -0.2133
      9 C         -24.5277   -8.8543  -11.8636 C.ar    1  UNL1        0.1376
     10 C         -24.7264   -7.8555  -12.8186 C.ar    1  UNL1        0.0865
     11 C         -22.2428   -7.8663  -15.6960 C.ar    1  UNL1        0.0809
     12 C         -22.6944   -7.7639  -14.3920 C.ar    1  UNL1        0.0577
     13 C         -21.5713   -7.9513  -13.6080 C.ar    1  UNL1        0.1231
     14 N         -20.5073   -8.1825  -14.4014 N.ar    1  UNL1       -0.1676
     15 N         -20.9198   -8.1428  -15.6594 N.ar    1  UNL1       -0.2488
     16 C         -20.0296   -8.3648  -16.7942 C.3     1  UNL1        0.1537
     17 C         -25.4058   -7.3827  -20.5250 C.3     1  UNL1        0.0310
     18 C         -24.6184   -7.5171  -19.2556 C.ar    1  UNL1       -0.0218
     19 C         -24.3719   -6.3924  -18.4545 C.ar    1  UNL1       -0.0042
     20 C         -23.6058   -6.5098  -17.2915 C.ar    1  UNL1        0.0012
     21 C         -23.0667   -7.7515  -16.9192 C.ar    1  UNL1        0.0174
     22 C         -23.2946   -8.8711  -17.7338 C.ar    1  UNL1        0.0012
     23 C         -24.0615   -8.7537  -18.8966 C.ar    1  UNL1       -0.0042
     24 N         -23.4750   -9.8177  -11.9712 N.pl3   1  UNL1       -0.2917
     25 C         -22.2184   -9.6746  -11.2575 C.3     1  UNL1        0.0937
     26 C         -21.2327  -10.5859  -11.9784 C.3     1  UNL1        0.0391
     27 C         -22.0822  -11.5281  -12.8511 C.3     1  UNL1        0.0790
     28 C         -23.3675  -10.7247  -13.0966 C.3     1  UNL1        0.1081
     29 N         -21.3935  -11.9127  -14.1136 N.3     1  UNL1       -0.2723
     30 C         -21.0193  -13.3570  -14.1345 C.3     1  UNL1        0.0721
     31 C         -22.0260  -14.2242  -14.9034 C.3     1  UNL1        0.0174
     32 C         -22.1214  -13.7879  -16.3741 C.3     1  UNL1        0.0029
     33 C         -21.8055  -12.2961  -16.5637 C.3     1  UNL1        0.0174
     34 C         -22.1773  -11.4946  -15.3105 C.3     1  UNL1        0.0721
     35 C         -27.5299   -8.2962   -9.6821 C.3     1  UNL1        0.2032
     36 O         -26.9588   -9.0213   -8.6283 O.3     1  UNL1       -0.3748
     37 H         -26.3592   -8.3947   -8.1444 H       1  UNL1        0.2110
@<TRIPOS>BOND
     1    17    18    1
     2    18    19   ar
     3    19    20   ar
     4    20    21   ar
     5    21    11    1
     6    11    12   ar
     7    12     1    1
     8     1     2   ar
     9     2     3   ar
    10     3     4    1
    11     3     5   ar
    12     5     6   ar
    13     6     7   ar
    14     7    35    1
    15    35    36    1
    16     7     8   ar
    17     8     9   ar
    18     9    24    1
    19    24    25    1
    20    25    26    1
    21    26    27    1
    22    27    29    1
    23    29    30    1
    24    30    31    1
    25    31    32    1
    26    32    33    1
    27    33    34    1
    28    27    28    1
    29     9    10   ar
    30    12    13   ar
    31    13    14   ar
    32    14    15   ar
    33    15    16    1
    34    21    22   ar
    35    22    23   ar
    36    23    18   ar
    37    15    11   ar
    38    10     1   ar
    39    10     5   ar
    40    28    24    1
    41    34    29    1
    42    36    37    1
@<TRIPOS>MOLECULE
*****
 37 42 0 0 0
SMALL
GASTEIGER

@<TRIPOS>ATOM
      1 C         -22.9598   -8.8169  -10.3897 C.ar    1  UNL1        0.1095
      2 N         -22.3533   -8.0892   -9.4173 N.ar    1  UNL1       -0.1677
      3 N         -21.2085   -8.6869   -9.1080 N.ar    1  UNL1       -0.2319
      4 C         -20.2382   -8.1610   -8.1573 C.3     1  UNL1        0.1554
      5 C         -21.0697   -9.7685   -9.8895 C.ar    1  UNL1        0.1650
      6 N         -20.0147  -10.6171   -9.9318 N.ar    1  UNL1       -0.2095
      7 C         -20.0584  -11.6584  -10.8164 C.ar    1  UNL1        0.1717
      8 N         -21.1678  -11.8538  -11.5992 N.ar    1  UNL1       -0.2133
      9 C         -22.2364  -11.0030  -11.5585 C.ar    1  UNL1        0.1376
     10 C         -22.1566   -9.9088  -10.6952 C.ar    1  UNL1        0.0865
     11 C         -24.3753   -8.1404  -12.4156 C.ar    1  UNL1        0.0809
     12 C         -24.1912   -8.3804  -11.0653 C.ar    1  UNL1        0.0577
     13 C         -25.4491   -8.2590  -10.5049 C.ar    1  UNL1        0.1231
     14 N         -26.3359   -7.9345  -11.4658 N.ar    1  UNL1       -0.1676
     15 N         -25.6812   -7.8517  -12.6143 N.ar    1  UNL1       -0.2488
     16 C         -26.3297   -7.5041  -13.8744 C.3     1  UNL1        0.1537
     17 C         -20.2840   -8.0698  -16.5160 C.3     1  UNL1        0.0310
     18 C         -21.3353   -8.1247  -15.4478 C.ar    1  UNL1       -0.0218
     19 C         -22.6694   -8.3992  -15.7827 C.ar    1  UNL1       -0.0042
     20 C         -23.6561   -8.4125  -14.7930 C.ar    1  UNL1        0.0012
     21 C         -23.3239   -8.1411  -13.4561 C.ar    1  UNL1        0.0174
     22 C         -21.9930   -7.8438  -13.1260 C.ar    1  UNL1        0.0012
     23 C         -21.0061   -7.8312  -14.1160 C.ar    1  UNL1       -0.0042
     24 N         -23.4218  -11.3079  -12.3003 N.pl3   1  UNL1       -0.2917
     25 C         -24.5773  -11.9396  -11.6882 C.3     1  UNL1        0.0937
     26 C         -25.3884  -12.5145  -12.8430 C.3     1  UNL1        0.0391
     27 C         -24.8551  -11.8364  -14.1185 C.3     1  UNL1        0.0790
     28 C         -23.4172  -11.4505  -13.7427 C.3     1  UNL1        0.1081
     29 N         -24.9197  -12.7282  -15.3088 N.3     1  UNL1       -0.2723
     30 C         -23.6215  -12.7846  -16.0422 C.3     1  UNL1        0.0721
     31 C         -22.7820  -14.0171  -15.6776 C.3     1  UNL1        0.0174
     32 C         -23.5256  -15.3158  -16.0280 C.3     1  UNL1        0.0029
     33 C         -25.0523  -15.1495  -15.9717 C.3     1  UNL1        0.0174
     34 C         -25.4482  -14.0754  -14.9517 C.3     1  UNL1        0.0721
     35 C         -18.9285  -12.6364  -10.8711 C.3     1  UNL1        0.2032
     36 O         -19.3576  -13.8330  -11.4600 O.3     1  UNL1       -0.3748
     37 H         -19.4122  -13.6650  -12.4372 H       1  UNL1        0.2110
@<TRIPOS>BOND
     1    17    18    1
     2    18    19   ar
     3    19    20   ar
     4    20    21   ar
     5    21    11    1
     6    11    12   ar
     7    12     1    1
     8     1     2   ar
     9     2     3   ar
    10     3     4    1
    11     3     5   ar
    12     5     6   ar
    13     6     7   ar
    14     7    35    1
    15    35    36    1
    16     7     8   ar
    17     8     9   ar
    18     9    24    1
    19    24    25    1
    20    25    26    1
    21    26    27    1
    22    27    29    1
    23    29    30    1
    24    30    31    1
    25    31    32    1
    26    32    33    1
    27    33    34    1
    28    27    28    1
    29     9    10   ar
    30    12    13   ar
    31    13    14   ar
    32    14    15   ar
    33    15    16    1
    34    21    22   ar
    35    22    23   ar
    36    23    18   ar
    37    15    11   ar
    38    10     1   ar
    39    10     5   ar
    40    28    24    1
    41    34    29    1
    42    36    37    1
@<TRIPOS>MOLECULE
*****
 37 42 0 0 0
SMALL
GASTEIGER

@<TRIPOS>ATOM
      1 C         -21.8985   -9.8072  -13.0712 C.ar    1  UNL1        0.1095
      2 N         -20.9225  -10.7350  -12.8989 N.ar    1  UNL1       -0.1677
      3 N         -21.0551  -11.2524  -11.6831 N.ar    1  UNL1       -0.2319
      4 C         -20.2366  -12.3373  -11.1587 C.3     1  UNL1        0.1554
      5 C         -22.1174  -10.6836  -11.0933 C.ar    1  UNL1        0.1650
      6 N         -22.6283  -10.9742   -9.8729 N.ar    1  UNL1       -0.2095
      7 C         -23.7351  -10.2885   -9.4561 C.ar    1  UNL1        0.1717
      8 N         -24.2736   -9.3021  -10.2427 N.ar    1  UNL1       -0.2133
      9 C         -23.7605   -9.0024  -11.4734 C.ar    1  UNL1        0.1376
     10 C         -22.6670   -9.7494  -11.9151 C.ar    1  UNL1        0.0865
     11 C         -22.8462   -9.5880  -15.4418 C.ar    1  UNL1        0.0809
     12 C         -22.1336   -9.1217  -14.3511 C.ar    1  UNL1        0.0577
     13 C         -21.8087   -7.8157  -14.6671 C.ar    1  UNL1        0.1231
     14 N         -22.2777   -7.5244  -15.8960 N.ar    1  UNL1       -0.1676
     15 N         -22.8917   -8.6005  -16.3643 N.ar    1  UNL1       -0.2488
     16 C         -23.5125   -8.6492  -17.6840 C.3     1  UNL1        0.1537
     17 C         -25.0189  -14.9284  -16.0060 C.3     1  UNL1        0.0310
     18 C         -24.4717  -13.5364  -15.8935 C.ar    1  UNL1       -0.0218
     19 C         -23.1685  -13.2523  -16.3274 C.ar    1  UNL1       -0.0042
     20 C         -22.6443  -11.9643  -16.1876 C.ar    1  UNL1        0.0012
     21 C         -23.4124  -10.9452  -15.6022 C.ar    1  UNL1        0.0174
     22 C         -24.7074  -11.2365  -15.1474 C.ar    1  UNL1        0.0012
     23 C         -25.2318  -12.5247  -15.2879 C.ar    1  UNL1       -0.0042
     24 N         -24.2744   -7.8882  -12.2102 N.pl3   1  UNL1       -0.2917
     25 C         -23.7508   -6.5436  -12.0461 C.3     1  UNL1        0.0937
     26 C         -24.8258   -5.6161  -12.5992 C.3     1  UNL1        0.0391
     27 C         -25.7701   -6.5046  -13.4299 C.3     1  UNL1        0.0790
     28 C         -25.5984   -7.8942  -12.7998 C.3     1  UNL1        0.1081
     29 N         -27.1798   -6.0273  -13.3963 N.3     1  UNL1       -0.2723
     30 C         -27.3167   -4.6362  -13.9183 C.3     1  UNL1        0.0721
     31 C         -27.7693   -4.5898  -15.3845 C.3     1  UNL1        0.0174
     32 C         -29.1477   -5.2473  -15.5585 C.3     1  UNL1        0.0029
     33 C         -29.4105   -6.3415  -14.5122 C.3     1  UNL1        0.0174
     34 C         -28.0981   -6.9944  -14.0620 C.3     1  UNL1        0.0721
     35 C         -24.3104  -10.5564   -8.1020 C.3     1  UNL1        0.2032
     36 O         -25.6607  -10.1845   -8.0722 O.3     1  UNL1       -0.3748
     37 H         -26.1616  -10.8946   -8.5529 H       1  UNL1        0.2110
@<TRIPOS>BOND
     1    17    18    1
     2    18    19   ar
     3    19    20   ar
     4    20    21   ar
     5    21    11    1
     6    11    12   ar
     7    12     1    1
     8     1     2   ar
     9     2     3   ar
    10     3     4    1
    11     3     5   ar
    12     5     6   ar
    13     6     7   ar
    14     7    35    1
    15    35    36    1
    16     7     8   ar
    17     8     9   ar
    18     9    24    1
    19    24    25    1
    20    25    26    1
    21    26    27    1
    22    27    29    1
    23    29    30    1
    24    30    31    1
    25    31    32    1
    26    32    33    1
    27    33    34    1
    28    27    28    1
    29     9    10   ar
    30    12    13   ar
    31    13    14   ar
    32    14    15   ar
    33    15    16    1
    34    21    22   ar
    35    22    23   ar
    36    23    18   ar
    37    15    11   ar
    38    10     1   ar
    39    10     5   ar
    40    28    24    1
    41    34    29    1
    42    36    37    1
