@<TRIPOS>MOLECULE
*****
 38 42 0 0 0
SMALL
GASTEIGER

@<TRIPOS>ATOM
      1 C         -30.1795   49.0515  -10.5738 C.ar    1  UNL1        0.1317
      2 C         -31.4087   49.0319   -9.8852 C.ar    1  UNL1        0.0286
      3 C         -31.5392   49.6743   -8.6399 C.ar    1  UNL1        0.0777
      4 C         -30.4400   50.3467   -8.0893 C.ar    1  UNL1        0.2970
      5 N         -29.2774   50.3600   -8.7915 N.ar    1  UNL1       -0.1224
      6 C         -28.0953   50.9303   -8.5094 C.ar    1  UNL1        0.2715
      7 S         -27.7109   51.7676   -6.9681 S.3     1  UNL1       -0.0718
      8 C         -27.2349   50.6510   -9.5689 C.ar    1  UNL1        0.1320
      9 N         -27.8838   49.9023  -10.4939 N.ar    1  UNL1       -0.2938
     10 C         -29.1214   49.7500   -9.9790 C.ar    1  UNL1        0.3126
     11 H         -28.1501   53.0064   -7.4709 H       1  UNL1        0.1129
     12 H         -27.5332   49.5512  -11.3442 H       1  UNL1        0.1718
     13 N         -31.1332   46.9524  -13.8828 N.3     1  UNL1       -0.2647
     14 C         -29.8806   46.4190  -13.3140 C.3     1  UNL1        0.0941
     15 C         -29.6913   46.9708  -11.8976 C.3     1  UNL1        0.1084
     16 N         -30.0280   48.3981  -11.8458 N.pl3   1  UNL1       -0.2988
     17 C         -30.1687   49.1488  -13.0977 C.3     1  UNL1        0.1084
     18 C         -31.1403   48.4277  -14.0494 C.3     1  UNL1        0.0941
     19 C         -31.5832   46.2298  -15.0931 C.3     1  UNL1        0.1199
     20 C         -29.6199   47.5674  -17.7914 C.ar    1  UNL1        0.1165
     21 N         -30.3576   47.7638  -16.6777 N.ar    1  UNL1       -0.2344
     22 C         -30.7461   46.5240  -16.3161 C.ar    1  UNL1        0.0878
     23 C         -30.2339   45.6057  -17.2163 C.ar    1  UNL1        0.0499
     24 C         -30.4013   44.1191  -17.1938 C.3     1  UNL1        0.0511
     25 N         -29.5159   46.2691  -18.1364 N.ar    1  UNL1       -0.3443
     26 H         -28.9827   45.8665  -18.9393 H       1  UNL1        0.1668
     27 C         -27.5085   48.2360  -18.9106 C.3     1  UNL1        0.0084
     28 C         -28.9121   48.6731  -18.5094 C.3     1  UNL1        0.0637
     29 C         -25.8135   51.0340   -9.7078 C.ar    1  UNL1        0.0221
     30 C         -24.9661   51.1172   -8.5950 C.ar    1  UNL1        0.0013
     31 C         -23.6293   51.4971   -8.7441 C.ar    1  UNL1       -0.0042
     32 C         -23.1005   51.8170  -10.0165 C.ar    1  UNL1       -0.0228
     33 C         -23.9743   51.7512  -11.1240 C.ar    1  UNL1       -0.0042
     34 C         -25.3095   51.3723  -10.9699 C.ar    1  UNL1        0.0013
     35 C         -21.6320   52.2399  -10.2285 C.3     1  UNL1        0.0189
     36 C         -20.9674   52.4961   -8.8585 C.3     1  UNL1        0.0044
     37 C         -21.5848   53.5332  -11.0713 C.3     1  UNL1        0.0044
     38 C         -20.7922   51.1690  -10.9659 C.3     1  UNL1        0.0044
@<TRIPOS>BOND
     1    27    28    1
     2    28    20    1
     3    20    21   ar
     4    21    22   ar
     5    22    19    1
     6    19    13    1
     7    13    14    1
     8    14    15    1
     9    15    16    1
    10    16     1    1
    11     1     2   ar
    12     2     3   ar
    13     3     4   ar
    14     4     5   ar
    15     5     6   ar
    16     6     7    1
    17     6     8   ar
    18     8    29    1
    19    29    30   ar
    20    30    31   ar
    21    31    32   ar
    22    32    35    1
    23    35    36    1
    24    35    37    1
    25    35    38    1
    26    32    33   ar
    27    33    34   ar
    28     8     9   ar
    29     9    10   ar
    30    16    17    1
    31    17    18    1
    32    22    23   ar
    33    23    24    1
    34    23    25   ar
    35    25    20   ar
    36    18    13    1
    37    10     1   ar
    38    10     5   ar
    39    34    29   ar
    40     7    11    1
    41    25    26    1
    42     9    12    1
@<TRIPOS>MOLECULE
*****
 38 42 0 0 0
SMALL
GASTEIGER

@<TRIPOS>ATOM
      1 C         -28.8908   48.6975   -6.8795 C.ar    1  UNL1        0.1317
      2 C         -30.2806   48.5352   -7.0451 C.ar    1  UNL1        0.0286
      3 C         -30.9375   49.0983   -8.1550 C.ar    1  UNL1        0.0777
      4 C         -30.1991   49.8152   -9.1059 C.ar    1  UNL1        0.2970
      5 N         -28.8586   49.9341   -8.9222 N.ar    1  UNL1       -0.1224
      6 C         -27.9268   50.5442   -9.6717 C.ar    1  UNL1        0.2715
      7 S         -28.2782   51.5211  -11.1367 S.3     1  UNL1       -0.0718
      8 C         -26.6990   50.3617   -9.0394 C.ar    1  UNL1        0.1320
      9 N         -26.8778   49.6506   -7.8994 N.ar    1  UNL1       -0.2938
     10 C         -28.2055   49.4132   -7.8692 C.ar    1  UNL1        0.3126
     11 H         -28.1688   50.3971  -11.9764 H       1  UNL1        0.1129
     12 H         -26.1968   49.3719   -7.2453 H       1  UNL1        0.1718
     13 N         -28.2718   46.5704   -3.5094 N.3     1  UNL1       -0.2647
     14 C         -27.7025   47.9213   -3.3420 C.3     1  UNL1        0.0941
     15 C         -28.2189   48.8315   -4.4606 C.3     1  UNL1        0.1084
     16 N         -28.2042   48.1312   -5.7500 N.pl3   1  UNL1       -0.2988
     17 C         -27.4547   46.8772   -5.8777 C.3     1  UNL1        0.1084
     18 C         -27.8609   45.8936   -4.7654 C.3     1  UNL1        0.0941
     19 C         -28.1165   45.7150   -2.3120 C.3     1  UNL1        0.1199
     20 C         -30.5764   46.2552    0.2536 C.ar    1  UNL1        0.1165
     21 N         -29.3402   46.4783   -0.2417 N.ar    1  UNL1       -0.2344
     22 C         -29.3067   45.7592   -1.3821 C.ar    1  UNL1        0.0878
     23 C         -30.5222   45.1194   -1.5528 C.ar    1  UNL1        0.0499
     24 C         -30.9311   44.2305   -2.6847 C.3     1  UNL1        0.0511
     25 N         -31.3211   45.4456   -0.5246 N.ar    1  UNL1       -0.3443
     26 H         -32.3094   45.1467   -0.3666 H       1  UNL1        0.1668
     27 C         -30.2283   48.1193    1.8540 C.3     1  UNL1        0.0084
     28 C         -31.0943   46.9192    1.4904 C.3     1  UNL1        0.0637
     29 C         -25.3775   50.8753   -9.4595 C.ar    1  UNL1        0.0221
     30 C         -25.0587   51.0547  -10.8121 C.ar    1  UNL1        0.0013
     31 C         -23.7983   51.5256  -11.1907 C.ar    1  UNL1       -0.0042
     32 C         -22.8106   51.8227  -10.2226 C.ar    1  UNL1       -0.0228
     33 C         -23.1404   51.6135   -8.8654 C.ar    1  UNL1       -0.0042
     34 C         -24.4005   51.1415   -8.4920 C.ar    1  UNL1        0.0013
     35 C         -21.4074   52.3454  -10.5940 C.3     1  UNL1        0.0189
     36 C         -20.7259   52.9281   -9.3369 C.3     1  UNL1        0.0044
     37 C         -21.5360   53.4496  -11.6661 C.3     1  UNL1        0.0044
     38 C         -20.4806   51.2444  -11.1639 C.3     1  UNL1        0.0044
@<TRIPOS>BOND
     1    27    28    1
     2    28    20    1
     3    20    21   ar
     4    21    22   ar
     5    22    19    1
     6    19    13    1
     7    13    14    1
     8    14    15    1
     9    15    16    1
    10    16     1    1
    11     1     2   ar
    12     2     3   ar
    13     3     4   ar
    14     4     5   ar
    15     5     6   ar
    16     6     7    1
    17     6     8   ar
    18     8    29    1
    19    29    30   ar
    20    30    31   ar
    21    31    32   ar
    22    32    35    1
    23    35    36    1
    24    35    37    1
    25    35    38    1
    26    32    33   ar
    27    33    34   ar
    28     8     9   ar
    29     9    10   ar
    30    16    17    1
    31    17    18    1
    32    22    23   ar
    33    23    24    1
    34    23    25   ar
    35    25    20   ar
    36    18    13    1
    37    10     1   ar
    38    10     5   ar
    39    34    29   ar
    40     7    11    1
    41    25    26    1
    42     9    12    1
@<TRIPOS>MOLECULE
*****
 38 42 0 0 0
SMALL
GASTEIGER

@<TRIPOS>ATOM
      1 C         -29.9417   47.9141  -10.3221 C.ar    1  UNL1        0.1317
      2 C         -30.6519   46.8779   -9.6838 C.ar    1  UNL1        0.0286
      3 C         -30.0847   46.1893   -8.5954 C.ar    1  UNL1        0.0777
      4 C         -28.8091   46.5470   -8.1389 C.ar    1  UNL1        0.2970
      5 N         -28.1634   47.5635   -8.7673 N.ar    1  UNL1       -0.1224
      6 C         -26.9602   48.1099   -8.5310 C.ar    1  UNL1        0.2715
      7 S         -25.7856   47.4999   -7.3174 S.3     1  UNL1       -0.0718
      8 C         -26.7777   49.1323   -9.4594 C.ar    1  UNL1        0.1320
      9 N         -27.8614   49.2065  -10.2703 N.ar    1  UNL1       -0.2938
     10 C         -28.6770   48.2341   -9.8127 C.ar    1  UNL1        0.3126
     11 H         -26.3199   48.3237   -6.3092 H       1  UNL1        0.1129
     12 H         -28.0171   49.8262  -11.0193 H       1  UNL1        0.1718
     13 N         -30.4052   49.2890  -14.0851 N.3     1  UNL1       -0.2647
     14 C         -30.5271   50.4145  -13.1388 C.3     1  UNL1        0.0941
     15 C         -30.0249   49.9746  -11.7601 C.3     1  UNL1        0.1084
     16 N         -30.5052   48.6261  -11.4372 N.pl3   1  UNL1       -0.2988
     17 C         -31.5837   48.0370  -12.2373 C.3     1  UNL1        0.1084
     18 C         -31.2431   48.1139  -13.7365 C.3     1  UNL1        0.0941
     19 C         -30.5370   49.6957  -15.5017 C.3     1  UNL1        0.1199
     20 C         -27.3525   49.6013  -17.1674 C.ar    1  UNL1        0.1165
     21 N         -28.2147   50.2234  -16.3350 N.ar    1  UNL1       -0.2344
     22 C         -29.2995   49.4222  -16.3243 C.ar    1  UNL1        0.0878
     23 C         -29.0695   48.3334  -17.1474 C.ar    1  UNL1        0.0499
     24 C         -29.9935   47.1890  -17.4214 C.3     1  UNL1        0.0511
     25 N         -27.8366   48.4470  -17.6661 N.ar    1  UNL1       -0.3443
     26 H         -27.3522   47.7805  -18.3081 H       1  UNL1        0.1668
     27 C         -25.3204   49.3074  -18.5607 C.3     1  UNL1        0.0084
     28 C         -25.9656   50.0983  -17.4292 C.3     1  UNL1        0.0637
     29 C         -25.5962   50.0055   -9.6262 C.ar    1  UNL1        0.0221
     30 C         -24.8710   50.4738   -8.5224 C.ar    1  UNL1        0.0013
     31 C         -23.7665   51.3120   -8.6990 C.ar    1  UNL1       -0.0042
     32 C         -23.3590   51.7175   -9.9915 C.ar    1  UNL1       -0.0228
     33 C         -24.1153   51.2559  -11.0912 C.ar    1  UNL1       -0.0042
     34 C         -25.2188   50.4196  -10.9097 C.ar    1  UNL1        0.0013
     35 C         -22.1465   52.6401  -10.2340 C.3     1  UNL1        0.0189
     36 C         -22.6410   54.0328  -10.6811 C.3     1  UNL1        0.0044
     37 C         -21.2512   52.0351  -11.3374 C.3     1  UNL1        0.0044
     38 C         -21.2699   52.8346   -8.9732 C.3     1  UNL1        0.0044
@<TRIPOS>BOND
     1    27    28    1
     2    28    20    1
     3    20    21   ar
     4    21    22   ar
     5    22    19    1
     6    19    13    1
     7    13    14    1
     8    14    15    1
     9    15    16    1
    10    16     1    1
    11     1     2   ar
    12     2     3   ar
    13     3     4   ar
    14     4     5   ar
    15     5     6   ar
    16     6     7    1
    17     6     8   ar
    18     8    29    1
    19    29    30   ar
    20    30    31   ar
    21    31    32   ar
    22    32    35    1
    23    35    36    1
    24    35    37    1
    25    35    38    1
    26    32    33   ar
    27    33    34   ar
    28     8     9   ar
    29     9    10   ar
    30    16    17    1
    31    17    18    1
    32    22    23   ar
    33    23    24    1
    34    23    25   ar
    35    25    20   ar
    36    18    13    1
    37    10     1   ar
    38    10     5   ar
    39    34    29   ar
    40     7    11    1
    41    25    26    1
    42     9    12    1
@<TRIPOS>MOLECULE
*****
 38 42 0 0 0
SMALL
GASTEIGER

@<TRIPOS>ATOM
      1 C         -29.8883   48.4382   -8.4437 C.ar    1  UNL1        0.1317
      2 C         -31.2016   48.3161   -8.9394 C.ar    1  UNL1        0.0286
      3 C         -31.5834   48.9806  -10.1197 C.ar    1  UNL1        0.0777
      4 C         -30.6449   49.7591  -10.8102 C.ar    1  UNL1        0.2970
      5 N         -29.3837   49.8373  -10.3120 N.ar    1  UNL1       -0.1224
      6 C         -28.3039   50.4892  -10.7716 C.ar    1  UNL1        0.2715
      7 S         -28.3064   51.5894  -12.1906 S.3     1  UNL1       -0.0718
      8 C         -27.2563   50.2324   -9.8900 C.ar    1  UNL1        0.1320
      9 N         -27.6943   49.4337   -8.8864 N.ar    1  UNL1       -0.2938
     10 C         -28.9925   49.2196   -9.1842 C.ar    1  UNL1        0.3126
     11 H         -28.0042   50.5362  -13.0737 H       1  UNL1        0.1129
     12 H         -27.1835   49.0895   -8.1183 H       1  UNL1        0.1718
     13 N         -30.1174   46.1560   -5.1263 N.3     1  UNL1       -0.2647
     14 C         -29.4589   47.4334   -4.7920 C.3     1  UNL1        0.0941
     15 C         -29.6667   48.4267   -5.9395 C.3     1  UNL1        0.1084
     16 N         -29.4822   47.7683   -7.2377 N.pl3   1  UNL1       -0.2988
     17 C         -28.8492   46.4465   -7.2892 C.3     1  UNL1        0.1084
     18 C         -29.5493   45.4781   -6.3188 C.3     1  UNL1        0.0941
     19 C         -30.2718   45.2531   -3.9643 C.3     1  UNL1        0.1199
     20 C         -27.0741   44.9224   -2.3550 C.ar    1  UNL1        0.1165
     21 N         -27.8587   44.7373   -3.4382 N.ar    1  UNL1       -0.2344
     22 C         -29.0603   45.2204   -3.0620 C.ar    1  UNL1        0.0878
     23 C         -28.9761   45.6886   -1.7622 C.ar    1  UNL1        0.0499
     24 C         -30.0631   46.3195   -0.9505 C.3     1  UNL1        0.0511
     25 N         -27.7190   45.5082   -1.3272 N.ar    1  UNL1       -0.3443
     26 H         -27.3226   45.7740   -0.3980 H       1  UNL1        0.1668
     27 C         -24.7969   45.7840   -2.8340 C.3     1  UNL1        0.0084
     28 C         -25.6136   44.5972   -2.3375 C.3     1  UNL1        0.0637
     29 C         -25.8738   50.7538   -9.9483 C.ar    1  UNL1        0.0221
     30 C         -25.1791   51.1163   -8.7866 C.ar    1  UNL1        0.0013
     31 C         -23.8787   51.6231   -8.8629 C.ar    1  UNL1       -0.0042
     32 C         -23.2351   51.7930  -10.1110 C.ar    1  UNL1       -0.0228
     33 C         -23.9583   51.4453  -11.2731 C.ar    1  UNL1       -0.0042
     34 C         -25.2578   50.9406  -11.1921 C.ar    1  UNL1        0.0013
     35 C         -21.8013   52.3473  -10.2429 C.3     1  UNL1        0.0189
     36 C         -21.1506   52.4287   -8.8450 C.3     1  UNL1        0.0044
     37 C         -21.8500   53.7582  -10.8689 C.3     1  UNL1        0.0044
     38 C         -20.8909   51.4696  -11.1354 C.3     1  UNL1        0.0044
@<TRIPOS>BOND
     1    27    28    1
     2    28    20    1
     3    20    21   ar
     4    21    22   ar
     5    22    19    1
     6    19    13    1
     7    13    14    1
     8    14    15    1
     9    15    16    1
    10    16     1    1
    11     1     2   ar
    12     2     3   ar
    13     3     4   ar
    14     4     5   ar
    15     5     6   ar
    16     6     7    1
    17     6     8   ar
    18     8    29    1
    19    29    30   ar
    20    30    31   ar
    21    31    32   ar
    22    32    35    1
    23    35    36    1
    24    35    37    1
    25    35    38    1
    26    32    33   ar
    27    33    34   ar
    28     8     9   ar
    29     9    10   ar
    30    16    17    1
    31    17    18    1
    32    22    23   ar
    33    23    24    1
    34    23    25   ar
    35    25    20   ar
    36    18    13    1
    37    10     1   ar
    38    10     5   ar
    39    34    29   ar
    40     7    11    1
    41    25    26    1
    42     9    12    1
@<TRIPOS>MOLECULE
*****
 38 42 0 0 0
SMALL
GASTEIGER

@<TRIPOS>ATOM
      1 C         -29.6188   50.9880  -10.0002 C.ar    1  UNL1        0.1317
      2 C         -30.7340   50.6878   -9.1930 C.ar    1  UNL1        0.0286
      3 C         -30.5843   50.5177   -7.8040 C.ar    1  UNL1        0.0777
      4 C         -29.3177   50.6599   -7.2218 C.ar    1  UNL1        0.2970
      5 N         -28.2702   50.9685   -8.0296 N.ar    1  UNL1       -0.1224
      6 C         -26.9757   51.1724   -7.7385 C.ar    1  UNL1        0.2715
      7 S         -26.2506   50.9490   -6.1110 S.3     1  UNL1       -0.0718
      8 C         -26.3226   51.4705   -8.9324 C.ar    1  UNL1        0.1320
      9 N         -27.2116   51.4395   -9.9550 N.ar    1  UNL1       -0.2938
     10 C         -28.3818   51.1300   -9.3593 C.ar    1  UNL1        0.3126
     11 H         -26.5059   52.2867   -5.7563 H       1  UNL1        0.1129
     12 H         -27.0426   51.6045  -10.9108 H       1  UNL1        0.1718
     13 N         -30.7631   50.2863  -13.8033 N.3     1  UNL1       -0.2647
     14 C         -29.3146   50.5653  -13.7761 C.3     1  UNL1        0.0941
     15 C         -28.8123   50.4986  -12.3305 C.3     1  UNL1        0.1084
     16 N         -29.7535   51.1623  -11.4213 N.pl3   1  UNL1       -0.2988
     17 C         -30.7994   52.0275  -11.9764 C.3     1  UNL1        0.1084
     18 C         -31.5840   51.2848  -13.0730 C.3     1  UNL1        0.0941
     19 C         -31.2790   49.9907  -15.1583 C.3     1  UNL1        0.1199
     20 C         -28.7135   49.2318  -17.5597 C.ar    1  UNL1        0.1165
     21 N         -29.5306   50.1318  -16.9719 N.ar    1  UNL1       -0.2344
     22 C         -30.2386   49.4045  -16.0840 C.ar    1  UNL1        0.0878
     23 C         -29.8336   48.0826  -16.1523 C.ar    1  UNL1        0.0499
     24 C         -30.3392   46.9332  -15.3390 C.3     1  UNL1        0.0511
     25 N         -28.8644   47.9834  -17.0759 N.ar    1  UNL1       -0.3443
     26 H         -28.3339   47.1271  -17.3524 H       1  UNL1        0.1668
     27 C         -26.3082   49.0932  -18.1540 C.3     1  UNL1        0.0084
     28 C         -27.6801   49.6060  -18.5751 C.3     1  UNL1        0.0637
     29 C         -24.8828   51.7394   -9.1357 C.ar    1  UNL1        0.0221
     30 C         -23.9052   51.1315   -8.3368 C.ar    1  UNL1        0.0013
     31 C         -22.5498   51.4108   -8.5332 C.ar    1  UNL1       -0.0042
     32 C         -22.1306   52.3195   -9.5330 C.ar    1  UNL1       -0.0228
     33 C         -23.1302   52.9414  -10.3130 C.ar    1  UNL1       -0.0042
     34 C         -24.4832   52.6602  -10.1123 C.ar    1  UNL1        0.0013
     35 C         -20.6466   52.6570   -9.7859 C.3     1  UNL1        0.0189
     36 C         -20.5204   54.1362  -10.2104 C.3     1  UNL1        0.0044
     37 C         -20.0968   51.7521  -10.9102 C.3     1  UNL1        0.0044
     38 C         -19.7552   52.4480   -8.5379 C.3     1  UNL1        0.0044
@<TRIPOS>BOND
     1    27    28    1
     2    28    20    1
     3    20    21   ar
     4    21    22   ar
     5    22    19    1
     6    19    13    1
     7    13    14    1
     8    14    15    1
     9    15    16    1
    10    16     1    1
    11     1     2   ar
    12     2     3   ar
    13     3     4   ar
    14     4     5   ar
    15     5     6   ar
    16     6     7    1
    17     6     8   ar
    18     8    29    1
    19    29    30   ar
    20    30    31   ar
    21    31    32   ar
    22    32    35    1
    23    35    36    1
    24    35    37    1
    25    35    38    1
    26    32    33   ar
    27    33    34   ar
    28     8     9   ar
    29     9    10   ar
    30    16    17    1
    31    17    18    1
    32    22    23   ar
    33    23    24    1
    34    23    25   ar
    35    25    20   ar
    36    18    13    1
    37    10     1   ar
    38    10     5   ar
    39    34    29   ar
    40     7    11    1
    41    25    26    1
    42     9    12    1
@<TRIPOS>MOLECULE
*****
 38 42 0 0 0
SMALL
GASTEIGER

@<TRIPOS>ATOM
      1 C         -29.8872   48.9987   -8.0769 C.ar    1  UNL1        0.1317
      2 C         -31.2061   48.8819   -8.5591 C.ar    1  UNL1        0.0286
      3 C         -31.5558   49.4106   -9.8156 C.ar    1  UNL1        0.0777
      4 C         -30.5803   50.0470  -10.5946 C.ar    1  UNL1        0.2970
      5 N         -29.3157   50.1233  -10.1046 N.ar    1  UNL1       -0.1224
      6 C         -28.2050   50.6562  -10.6379 C.ar    1  UNL1        0.2715
      7 S         -28.1542   51.5672  -12.1845 S.3     1  UNL1       -0.0718
      8 C         -27.1701   50.4599   -9.7263 C.ar    1  UNL1        0.1320
      9 N         -27.6462   49.8176   -8.6318 N.ar    1  UNL1       -0.2938
     10 C         -28.9543   49.6339   -8.9061 C.ar    1  UNL1        0.3126
     11 H         -27.9078   50.3969  -12.9262 H       1  UNL1        0.1129
     12 H         -27.1522   49.5478   -7.8242 H       1  UNL1        0.1718
     13 N         -27.6237   48.1603   -4.8460 N.3     1  UNL1       -0.2647
     14 C         -28.2823   46.9245   -5.3109 C.3     1  UNL1        0.0941
     15 C         -28.8623   47.1545   -6.7100 C.3     1  UNL1        0.1084
     16 N         -29.5135   48.4667   -6.7942 N.pl3   1  UNL1       -0.2988
     17 C         -29.8085   49.2028   -5.5606 C.3     1  UNL1        0.1084
     18 C         -28.5462   49.3126   -4.6865 C.3     1  UNL1        0.0941
     19 C         -26.7466   47.9526   -3.6725 C.3     1  UNL1        0.1199
     20 C         -28.6322   46.2123   -1.1545 C.ar    1  UNL1        0.1165
     21 N         -28.4522   47.3025   -1.9305 N.ar    1  UNL1       -0.2344
     22 C         -27.3370   47.0249   -2.6363 C.ar    1  UNL1        0.0878
     23 C         -26.8686   45.7737   -2.2740 C.ar    1  UNL1        0.0499
     24 C         -25.6685   45.0608   -2.8125 C.3     1  UNL1        0.0511
     25 N         -27.6960   45.2629   -1.3486 N.ar    1  UNL1       -0.3443
     26 H         -27.6349   44.3281   -0.8866 H       1  UNL1        0.1668
     27 C         -30.4703   47.3855    0.0298 C.3     1  UNL1        0.0084
     28 C         -29.8078   46.0409   -0.2447 C.3     1  UNL1        0.0637
     29 C         -25.7629   50.8989   -9.8437 C.ar    1  UNL1        0.0221
     30 C         -24.9816   51.1614   -8.7105 C.ar    1  UNL1        0.0013
     31 C         -23.6582   51.5916   -8.8416 C.ar    1  UNL1       -0.0042
     32 C         -23.0773   51.7831  -10.1172 C.ar    1  UNL1       -0.0228
     33 C         -23.8862   51.5371  -11.2483 C.ar    1  UNL1       -0.0042
     34 C         -25.2083   51.1087  -11.1125 C.ar    1  UNL1        0.0013
     35 C         -21.6212   52.2554  -10.3096 C.3     1  UNL1        0.0189
     36 C         -20.9768   52.5113   -8.9300 C.3     1  UNL1        0.0044
     37 C         -21.6079   53.5623  -11.1322 C.3     1  UNL1        0.0044
     38 C         -20.7417   51.2230  -11.0555 C.3     1  UNL1        0.0044
@<TRIPOS>BOND
     1    27    28    1
     2    28    20    1
     3    20    21   ar
     4    21    22   ar
     5    22    19    1
     6    19    13    1
     7    13    14    1
     8    14    15    1
     9    15    16    1
    10    16     1    1
    11     1     2   ar
    12     2     3   ar
    13     3     4   ar
    14     4     5   ar
    15     5     6   ar
    16     6     7    1
    17     6     8   ar
    18     8    29    1
    19    29    30   ar
    20    30    31   ar
    21    31    32   ar
    22    32    35    1
    23    35    36    1
    24    35    37    1
    25    35    38    1
    26    32    33   ar
    27    33    34   ar
    28     8     9   ar
    29     9    10   ar
    30    16    17    1
    31    17    18    1
    32    22    23   ar
    33    23    24    1
    34    23    25   ar
    35    25    20   ar
    36    18    13    1
    37    10     1   ar
    38    10     5   ar
    39    34    29   ar
    40     7    11    1
    41    25    26    1
    42     9    12    1
@<TRIPOS>MOLECULE
*****
 38 42 0 0 0
SMALL
GASTEIGER

@<TRIPOS>ATOM
      1 C         -29.5288   47.7329   -7.3196 C.ar    1  UNL1        0.1317
      2 C         -30.4994   47.6540   -6.3012 C.ar    1  UNL1        0.0286
      3 C         -30.4855   48.5668   -5.2301 C.ar    1  UNL1        0.0777
      4 C         -29.5048   49.5667   -5.1855 C.ar    1  UNL1        0.2970
      5 N         -28.5979   49.6227   -6.1952 N.ar    1  UNL1       -0.1224
      6 C         -27.5789   50.4711   -6.4054 C.ar    1  UNL1        0.2715
      7 S         -27.0642   51.7492   -5.2540 S.3     1  UNL1       -0.0718
      8 C         -26.9638   50.0955   -7.5975 C.ar    1  UNL1        0.1320
      9 N         -27.5967   49.0131   -8.1124 N.ar    1  UNL1       -0.2938
     10 C         -28.5825   48.7610   -7.2266 C.ar    1  UNL1        0.3126
     11 H         -27.9275   52.6953   -5.8370 H       1  UNL1        0.1129
     12 H         -27.3859   48.5243   -8.9406 H       1  UNL1        0.1718
     13 N         -29.6989   46.3644  -11.1096 N.3     1  UNL1       -0.2647
     14 C         -30.5926   45.5537  -10.2604 C.3     1  UNL1        0.0941
     15 C         -30.7950   46.2611   -8.9169 C.3     1  UNL1        0.1084
     16 N         -29.5268   46.8067   -8.4197 N.pl3   1  UNL1       -0.2988
     17 C         -28.2677   46.3684   -9.0306 C.3     1  UNL1        0.1084
     18 C         -28.3293   46.5283  -10.5603 C.3     1  UNL1        0.0941
     19 C         -29.7085   45.9546  -12.5314 C.3     1  UNL1        0.1199
     20 C         -31.1636   48.7967  -14.1837 C.ar    1  UNL1        0.1165
     21 N         -30.6549   48.2311  -13.0681 N.ar    1  UNL1       -0.2344
     22 C         -30.3414   46.9756  -13.4479 C.ar    1  UNL1        0.0878
     23 C         -30.6648   46.8098  -14.7836 C.ar    1  UNL1        0.0499
     24 C         -30.4755   45.5838  -15.6198 C.3     1  UNL1        0.0511
     25 N         -31.1716   47.9647  -15.2436 N.ar    1  UNL1       -0.3443
     26 H         -31.4923   48.1770  -16.2147 H       1  UNL1        0.1668
     27 C         -31.3288   50.9284  -12.9244 C.3     1  UNL1        0.0084
     28 C         -31.5839   50.2310  -14.2551 C.3     1  UNL1        0.0637
     29 C         -25.7755   50.7022   -8.2351 C.ar    1  UNL1        0.0221
     30 C         -25.8818   51.4590   -9.4096 C.ar    1  UNL1        0.0013
     31 C         -24.7450   52.0108  -10.0070 C.ar    1  UNL1       -0.0042
     32 C         -23.4600   51.8120   -9.4499 C.ar    1  UNL1       -0.0228
     33 C         -23.3682   51.0268   -8.2797 C.ar    1  UNL1       -0.0042
     34 C         -24.5066   50.4764   -7.6871 C.ar    1  UNL1        0.0013
     35 C         -22.1786   52.4025  -10.0740 C.3     1  UNL1        0.0189
     36 C         -21.1178   52.6101   -8.9714 C.3     1  UNL1        0.0044
     37 C         -22.5052   53.7601  -10.7337 C.3     1  UNL1        0.0044
     38 C         -21.5566   51.4914  -11.1597 C.3     1  UNL1        0.0044
@<TRIPOS>BOND
     1    27    28    1
     2    28    20    1
     3    20    21   ar
     4    21    22   ar
     5    22    19    1
     6    19    13    1
     7    13    14    1
     8    14    15    1
     9    15    16    1
    10    16     1    1
    11     1     2   ar
    12     2     3   ar
    13     3     4   ar
    14     4     5   ar
    15     5     6   ar
    16     6     7    1
    17     6     8   ar
    18     8    29    1
    19    29    30   ar
    20    30    31   ar
    21    31    32   ar
    22    32    35    1
    23    35    36    1
    24    35    37    1
    25    35    38    1
    26    32    33   ar
    27    33    34   ar
    28     8     9   ar
    29     9    10   ar
    30    16    17    1
    31    17    18    1
    32    22    23   ar
    33    23    24    1
    34    23    25   ar
    35    25    20   ar
    36    18    13    1
    37    10     1   ar
    38    10     5   ar
    39    34    29   ar
    40     7    11    1
    41    25    26    1
    42     9    12    1
@<TRIPOS>MOLECULE
*****
 38 42 0 0 0
SMALL
GASTEIGER

@<TRIPOS>ATOM
      1 C         -29.6965   47.8418   -8.9258 C.ar    1  UNL1        0.1317
      2 C         -31.0462   47.7577   -9.3216 C.ar    1  UNL1        0.0286
      3 C         -31.5670   48.6516  -10.2755 C.ar    1  UNL1        0.0777
      4 C         -30.7316   49.6237  -10.8418 C.ar    1  UNL1        0.2970
      5 N         -29.4318   49.6614  -10.4494 N.ar    1  UNL1       -0.1224
      6 C         -28.4282   50.4659  -10.8340 C.ar    1  UNL1        0.2715
      7 S         -28.6121   51.8610  -11.9493 S.3     1  UNL1       -0.0718
      8 C         -27.2902   50.0770  -10.1308 C.ar    1  UNL1        0.1320
      9 N         -27.5967   49.0436   -9.3090 N.ar    1  UNL1       -0.2938
     10 C         -28.9085   48.8256   -9.5361 C.ar    1  UNL1        0.3126
     11 H         -28.3568   51.0597  -13.0776 H       1  UNL1        0.1129
     12 H         -27.0003   48.5636   -8.6900 H       1  UNL1        0.1718
     13 N         -29.3578   45.7052   -5.5220 N.3     1  UNL1       -0.2647
     14 C         -28.0802   46.3918   -5.7931 C.3     1  UNL1        0.0941
     15 C         -28.2954   47.4552   -6.8744 C.3     1  UNL1        0.1084
     16 N         -29.1488   46.9381   -7.9503 N.pl3   1  UNL1       -0.2988
     17 C         -29.4010   45.4961   -8.0370 C.3     1  UNL1        0.1084
     18 C         -29.8990   44.9563   -6.6841 C.3     1  UNL1        0.0941
     19 C         -29.3438   44.9094   -4.2746 C.3     1  UNL1        0.1199
     20 C         -29.7083   47.1205   -1.4634 C.ar    1  UNL1        0.1165
     21 N         -30.1940   46.6088   -2.6147 N.ar    1  UNL1       -0.2344
     22 C         -29.2372   45.7513   -3.0245 C.ar    1  UNL1        0.0878
     23 C         -28.1960   45.7612   -2.1124 C.ar    1  UNL1        0.0499
     24 C         -26.9367   44.9547   -2.1607 C.3     1  UNL1        0.0511
     25 N         -28.5049   46.6173   -1.1257 N.ar    1  UNL1       -0.3443
     26 H         -27.9408   46.8381   -0.2747 H       1  UNL1        0.1668
     27 C         -31.4817   48.8560   -1.4423 C.3     1  UNL1        0.0084
     28 C         -30.4760   48.0756   -0.6046 C.3     1  UNL1        0.0637
     29 C         -25.9414   50.6808  -10.1834 C.ar    1  UNL1        0.0221
     30 C         -25.3038   50.9416  -11.4036 C.ar    1  UNL1        0.0013
     31 C         -24.0217   51.4974  -11.4330 C.ar    1  UNL1       -0.0042
     32 C         -23.3315   51.8007  -10.2361 C.ar    1  UNL1       -0.0228
     33 C         -23.9789   51.5093   -9.0153 C.ar    1  UNL1       -0.0042
     34 C         -25.2594   50.9527   -8.9908 C.ar    1  UNL1        0.0013
     35 C         -21.9165   52.4155  -10.2206 C.3     1  UNL1        0.0189
     36 C         -21.0047   51.6324  -11.1898 C.3     1  UNL1        0.0044
     37 C         -21.3355   52.3352   -8.7920 C.3     1  UNL1        0.0044
     38 C         -21.8957   53.9018  -10.6522 C.3     1  UNL1        0.0044
@<TRIPOS>BOND
     1    27    28    1
     2    28    20    1
     3    20    21   ar
     4    21    22   ar
     5    22    19    1
     6    19    13    1
     7    13    14    1
     8    14    15    1
     9    15    16    1
    10    16     1    1
    11     1     2   ar
    12     2     3   ar
    13     3     4   ar
    14     4     5   ar
    15     5     6   ar
    16     6     7    1
    17     6     8   ar
    18     8    29    1
    19    29    30   ar
    20    30    31   ar
    21    31    32   ar
    22    32    35    1
    23    35    36    1
    24    35    37    1
    25    35    38    1
    26    32    33   ar
    27    33    34   ar
    28     8     9   ar
    29     9    10   ar
    30    16    17    1
    31    17    18    1
    32    22    23   ar
    33    23    24    1
    34    23    25   ar
    35    25    20   ar
    36    18    13    1
    37    10     1   ar
    38    10     5   ar
    39    34    29   ar
    40     7    11    1
    41    25    26    1
    42     9    12    1
@<TRIPOS>MOLECULE
*****
 38 42 0 0 0
SMALL
GASTEIGER

@<TRIPOS>ATOM
      1 C         -29.1946   50.6954   -8.3447 C.ar    1  UNL1        0.1317
      2 C         -30.4252   50.4413   -8.9822 C.ar    1  UNL1        0.0286
      3 C         -30.5137   50.4371  -10.3867 C.ar    1  UNL1        0.0777
      4 C         -29.3655   50.6766  -11.1533 C.ar    1  UNL1        0.2970
      5 N         -28.1937   50.8985  -10.5033 N.ar    1  UNL1       -0.1224
      6 C         -26.9625   51.1365  -10.9827 C.ar    1  UNL1        0.2715
      7 S         -26.5715   51.3533  -12.7218 S.3     1  UNL1       -0.0718
      8 C         -26.1116   51.2844   -9.8896 C.ar    1  UNL1        0.1320
      9 N         -26.8202   51.1481   -8.7423 N.ar    1  UNL1       -0.2938
     10 C         -28.0803   50.9152   -9.1641 C.ar    1  UNL1        0.3126
     11 H         -26.3356   49.9767  -12.8942 H       1  UNL1        0.1129
     12 H         -26.4916   51.2057   -7.8160 H       1  UNL1        0.1718
     13 N         -29.3529   49.3902   -4.5320 N.3     1  UNL1       -0.2647
     14 C         -30.0111   50.7078   -4.6216 C.3     1  UNL1        0.0941
     15 C         -30.2553   51.0537   -6.0937 C.3     1  UNL1        0.1084
     16 N         -29.0870   50.7061   -6.9107 N.pl3   1  UNL1       -0.2988
     17 C         -27.8113   50.4100   -6.2507 C.3     1  UNL1        0.1084
     18 C         -28.0074   49.3438   -5.1579 C.3     1  UNL1        0.0941
     19 C         -29.3795   48.8117   -3.1703 C.3     1  UNL1        0.1199
     20 C         -27.5978   45.7336   -2.6457 C.ar    1  UNL1        0.1165
     21 N         -27.6835   47.0721   -2.4897 N.ar    1  UNL1       -0.2344
     22 C         -28.8376   47.4028   -3.1040 C.ar    1  UNL1        0.0878
     23 C         -29.4253   46.2587   -3.6156 C.ar    1  UNL1        0.0499
     24 C         -30.7191   46.1556   -4.3599 C.3     1  UNL1        0.0511
     25 N         -28.6445   45.2095   -3.3131 N.ar    1  UNL1       -0.3443
     26 H         -28.8155   44.2035   -3.5361 H       1  UNL1        0.1668
     27 C         -25.5975   44.3534   -3.1470 C.3     1  UNL1        0.0084
     28 C         -26.4992   44.9094   -2.0516 C.3     1  UNL1        0.0637
     29 C         -24.6653   51.5918   -9.9015 C.ar    1  UNL1        0.0221
     30 C         -23.8655   51.3916   -8.7685 C.ar    1  UNL1        0.0013
     31 C         -22.5033   51.7038   -8.7937 C.ar    1  UNL1       -0.0042
     32 C         -21.8997   52.2383   -9.9561 C.ar    1  UNL1       -0.0228
     33 C         -22.7251   52.4562  -11.0811 C.ar    1  UNL1       -0.0042
     34 C         -24.0859   52.1440  -11.0508 C.ar    1  UNL1        0.0013
     35 C         -20.4009   52.5963  -10.0297 C.3     1  UNL1        0.0189
     36 C         -19.7551   52.3953   -8.6417 C.3     1  UNL1        0.0044
     37 C         -20.2440   54.0713  -10.4597 C.3     1  UNL1        0.0044
     38 C         -19.6181   51.7269  -11.0432 C.3     1  UNL1        0.0044
@<TRIPOS>BOND
     1    27    28    1
     2    28    20    1
     3    20    21   ar
     4    21    22   ar
     5    22    19    1
     6    19    13    1
     7    13    14    1
     8    14    15    1
     9    15    16    1
    10    16     1    1
    11     1     2   ar
    12     2     3   ar
    13     3     4   ar
    14     4     5   ar
    15     5     6   ar
    16     6     7    1
    17     6     8   ar
    18     8    29    1
    19    29    30   ar
    20    30    31   ar
    21    31    32   ar
    22    32    35    1
    23    35    36    1
    24    35    37    1
    25    35    38    1
    26    32    33   ar
    27    33    34   ar
    28     8     9   ar
    29     9    10   ar
    30    16    17    1
    31    17    18    1
    32    22    23   ar
    33    23    24    1
    34    23    25   ar
    35    25    20   ar
    36    18    13    1
    37    10     1   ar
    38    10     5   ar
    39    34    29   ar
    40     7    11    1
    41    25    26    1
    42     9    12    1
