@<TRIPOS>MOLECULE
*****
 52 58 0 0 0
SMALL
GASTEIGER

@<TRIPOS>ATOM
      1 C          60.3810   87.7181   10.5178 C.ar    1  UNL1        0.0481
      2 C          59.4496   86.6927   10.7500 C.ar    1  UNL1        0.0176
      3 C          59.4766   85.9730   11.9478 C.ar    1  UNL1        0.0382
      4 C          60.4371   86.2558   12.9252 C.ar    1  UNL1        0.1388
      5 C          61.3423   87.3097   12.7116 C.ar    1  UNL1        0.0382
      6 C          61.3182   88.0290   11.5143 C.ar    1  UNL1        0.0176
      7 N          59.9527   90.0619    7.0597 N.pl3   1  UNL1       -0.3041
      8 C          60.4398   90.6944    8.2914 C.3     1  UNL1        0.1122
      9 C          61.1820   89.6681    9.1474 C.3     1  UNL1        0.1122
     10 N          60.3828   88.4433    9.2745 N.pl3   1  UNL1       -0.3041
     11 C          59.8952   87.8109    8.0432 C.3     1  UNL1        0.1122
     12 C          59.1530   88.8376    7.1871 C.3     1  UNL1        0.1122
     13 C          60.0035   92.1959    3.3753 C.ar    1  UNL1        0.0659
     14 C          58.8398   92.1369    4.1557 C.ar    1  UNL1        0.0187
     15 C          58.8242   91.4356    5.3599 C.ar    1  UNL1        0.0160
     16 C          59.9748   90.7799    5.8117 C.ar    1  UNL1        0.0477
     17 C          61.1393   90.8197    5.0299 C.ar    1  UNL1        0.0117
     18 C          61.1690   91.5066    3.7986 C.ar    1  UNL1       -0.0050
     19 N          59.7956   93.5794    0.0442 N.ar    1  UNL1       -0.2024
     20 N          59.7632   94.6943    0.7622 N.ar    1  UNL1       -0.1442
     21 C          59.8780   94.3177    2.0552 C.ar    1  UNL1        0.2073
     22 N          59.9839   92.9761    2.1703 N.ar    1  UNL1       -0.2401
     23 C          59.9052   92.5470    0.8992 C.ar    1  UNL1        0.3522
     24 O          59.9226   91.3339    0.5557 O.2     1  UNL1       -0.2444
     25 C          59.6323   93.5201   -1.4115 C.3     1  UNL1        0.1099
     26 C          60.5347   94.5679   -2.0763 C.3     1  UNL1        0.0265
     27 C          57.2414   92.6434   -1.1682 C.3     1  UNL1        0.0021
     28 C          58.1459   93.7206   -1.7672 C.3     1  UNL1        0.0245
     29 C          62.4342   91.4693    2.9495 C.3     1  UNL1        0.0238
     30 C          63.0135   92.8770    2.7692 C.3     1  UNL1        0.0047
     31 C          63.4804   90.5154    3.5425 C.3     1  UNL1        0.0047
     32 O          60.4558   85.4733   14.0894 O.3     1  UNL1       -0.4727
     33 C          61.5762   84.7159   14.5517 C.3     1  UNL1        0.2374
     34 C          61.6263   83.3535   13.8463 C.3     1  UNL1        0.1909
     35 C          62.9306   82.6340   14.0364 C.3     1  UNL1        0.1783
     36 O          63.1282   81.8921   12.8700 O.3     1  UNL1       -0.3282
     37 C          62.1470   82.3384   11.9481 C.3     1  UNL1        0.2081
     38 O          61.5040   83.4852   12.4659 O.3     1  UNL1       -0.3269
     39 C          61.1090   81.2348   11.7036 C.ar    1  UNL1        0.0390
     40 C          59.8938   81.2460   12.4231 C.ar    1  UNL1        0.0021
     41 C          58.9372   80.2471   12.2337 C.ar    1  UNL1        0.0113
     42 C          59.1777   79.2070   11.3375 C.ar    1  UNL1        0.0585
     43 CL         57.9734   77.9529   11.1041 Cl      1  UNL1       -0.0822
     44 C          60.3833   79.1572   10.6373 C.ar    1  UNL1        0.0226
     45 C          61.3541   80.1505   10.8169 C.ar    1  UNL1        0.0590
     46 CL         62.8624   79.9625    9.9237 Cl      1  UNL1       -0.0824
     47 C          62.8379   82.6663   10.6026 C.3     1  UNL1        0.0609
     48 C          62.1912   83.8322    9.8203 C.3     1  UNL1        0.0052
     49 C          61.1245   83.3857    8.8235 C.3     1  UNL1        0.0002
     50 C          61.1719   84.3797    7.6655 C.3     1  UNL1        0.0000
     51 C          62.4129   85.2431    7.8701 C.3     1  UNL1        0.0000
     52 C          63.2165   84.5761    8.9731 C.3     1  UNL1        0.0002
@<TRIPOS>BOND
     1    27    28    1
     2    28    25    1
     3    25    26    1
     4    25    19    1
     5    19    20   ar
     6    20    21   ar
     7    21    22   ar
     8    22    13    1
     9    13    14   ar
    10    14    15   ar
    11    15    16   ar
    12    16     7    1
    13     7     8    1
    14     8     9    1
    15     9    10    1
    16    10     1    1
    17     1     2   ar
    18     2     3   ar
    19     3     4   ar
    20     4    32    1
    21    32    33    1
    22    33    34    1
    23    34    35    1
    24    35    36    1
    25    36    37    1
    26    37    47    1
    27    47    48    1
    28    48    49    1
    29    49    50    1
    30    50    51    1
    31    51    52    1
    32    37    39    1
    33    39    40   ar
    34    40    41   ar
    35    41    42   ar
    36    42    43    1
    37    42    44   ar
    38    44    45   ar
    39    45    46    1
    40    37    38    1
    41     4     5   ar
    42     5     6   ar
    43    10    11    1
    44    11    12    1
    45    16    17   ar
    46    17    18   ar
    47    18    29    1
    48    29    30    1
    49    29    31    1
    50    22    23   ar
    51    23    24    2
    52    23    19   ar
    53    18    13   ar
    54    12     7    1
    55     6     1   ar
    56    38    34    1
    57    52    48    1
    58    45    39   ar
@<TRIPOS>MOLECULE
*****
 52 58 0 0 0
SMALL
GASTEIGER

@<TRIPOS>ATOM
      1 C          60.2425   87.2195   10.2111 C.ar    1  UNL1        0.0481
      2 C          59.0293   86.9175   10.8511 C.ar    1  UNL1        0.0176
      3 C          59.0139   86.0989   11.9838 C.ar    1  UNL1        0.0382
      4 C          60.2031   85.5609   12.4879 C.ar    1  UNL1        0.1388
      5 C          61.4218   85.8969   11.8734 C.ar    1  UNL1        0.0382
      6 C          61.4392   86.7134   10.7401 C.ar    1  UNL1        0.0176
      7 N          59.8523   89.7811    6.9062 N.pl3   1  UNL1       -0.3041
      8 C          60.2138   90.3518    8.2092 C.3     1  UNL1        0.1122
      9 C          60.9772   89.3188    9.0383 C.3     1  UNL1        0.1122
     10 N          60.2661   88.0346    9.0249 N.pl3   1  UNL1       -0.3041
     11 C          59.9040   87.4640    7.7223 C.3     1  UNL1        0.1122
     12 C          59.1407   88.4973    6.8932 C.3     1  UNL1        0.1122
     13 C          59.9697   92.1858    3.3941 C.ar    1  UNL1        0.0659
     14 C          58.7950   92.0782    4.1525 C.ar    1  UNL1        0.0187
     15 C          58.7576   91.2883    5.3001 C.ar    1  UNL1        0.0160
     16 C          59.8969   90.5907    5.7163 C.ar    1  UNL1        0.0477
     17 C          61.0722   90.6794    4.9551 C.ar    1  UNL1        0.0117
     18 C          61.1240   91.4567    3.7796 C.ar    1  UNL1       -0.0050
     19 N          59.7261   93.8417    0.1922 N.ar    1  UNL1       -0.2024
     20 N          59.8835   94.8922    0.9867 N.ar    1  UNL1       -0.1442
     21 C          60.0324   94.4040    2.2381 C.ar    1  UNL1        0.2073
     22 N          59.9725   93.0547    2.2513 N.ar    1  UNL1       -0.2401
     23 C          59.7573   92.7397    0.9627 C.ar    1  UNL1        0.3522
     24 O          59.5968   91.5644    0.5351 O.2     1  UNL1       -0.2444
     25 C          59.4627   93.9174   -1.2480 C.3     1  UNL1        0.1099
     26 C          58.1574   93.1802   -1.5745 C.3     1  UNL1        0.0265
     27 C          61.9632   94.1061   -1.7538 C.3     1  UNL1        0.0021
     28 C          60.6668   93.3403   -2.0182 C.3     1  UNL1        0.0245
     29 C          62.4005   91.4728    2.9468 C.3     1  UNL1        0.0238
     30 C          62.9682   92.8929    2.8433 C.3     1  UNL1        0.0047
     31 C          63.4482   90.5006    3.5065 C.3     1  UNL1        0.0047
     32 O          60.1315   84.7045   13.5968 O.3     1  UNL1       -0.4727
     33 C          60.8187   83.4571   13.7166 C.3     1  UNL1        0.2374
     34 C          60.3666   82.4912   12.6126 C.3     1  UNL1        0.1909
     35 C          60.2173   81.0745   13.0876 C.3     1  UNL1        0.1783
     36 O          60.5353   80.2710   11.9908 O.3     1  UNL1       -0.3282
     37 C          61.0849   81.1388   11.0127 C.3     1  UNL1        0.2081
     38 O          61.3019   82.4126   11.5845 O.3     1  UNL1       -0.3269
     39 C          60.1269   81.2681    9.8207 C.ar    1  UNL1        0.0390
     40 C          60.4822   82.0829    8.7234 C.ar    1  UNL1        0.0021
     41 C          59.6247   82.2326    7.6320 C.ar    1  UNL1        0.0113
     42 C          58.3886   81.5888    7.6182 C.ar    1  UNL1        0.0585
     43 CL         57.3135   81.7812    6.2454 Cl      1  UNL1       -0.0822
     44 C          58.0018   80.8027    8.7040 C.ar    1  UNL1        0.0226
     45 C          58.8496   80.6435    9.8072 C.ar    1  UNL1        0.0590
     46 CL         58.2408   79.6732   11.1475 Cl      1  UNL1       -0.0824
     47 C          62.4183   80.5390   10.5051 C.3     1  UNL1        0.0609
     48 C          63.6602   81.4162   10.7842 C.3     1  UNL1        0.0052
     49 C          63.8752   81.7229   12.2642 C.3     1  UNL1        0.0002
     50 C          64.5229   83.1040   12.3297 C.3     1  UNL1        0.0000
     51 C          64.4574   83.6938   10.9243 C.3     1  UNL1        0.0000
     52 C          63.5395   82.7850   10.1252 C.3     1  UNL1        0.0002
@<TRIPOS>BOND
     1    27    28    1
     2    28    25    1
     3    25    26    1
     4    25    19    1
     5    19    20   ar
     6    20    21   ar
     7    21    22   ar
     8    22    13    1
     9    13    14   ar
    10    14    15   ar
    11    15    16   ar
    12    16     7    1
    13     7     8    1
    14     8     9    1
    15     9    10    1
    16    10     1    1
    17     1     2   ar
    18     2     3   ar
    19     3     4   ar
    20     4    32    1
    21    32    33    1
    22    33    34    1
    23    34    35    1
    24    35    36    1
    25    36    37    1
    26    37    47    1
    27    47    48    1
    28    48    49    1
    29    49    50    1
    30    50    51    1
    31    51    52    1
    32    37    39    1
    33    39    40   ar
    34    40    41   ar
    35    41    42   ar
    36    42    43    1
    37    42    44   ar
    38    44    45   ar
    39    45    46    1
    40    37    38    1
    41     4     5   ar
    42     5     6   ar
    43    10    11    1
    44    11    12    1
    45    16    17   ar
    46    17    18   ar
    47    18    29    1
    48    29    30    1
    49    29    31    1
    50    22    23   ar
    51    23    24    2
    52    23    19   ar
    53    18    13   ar
    54    12     7    1
    55     6     1   ar
    56    38    34    1
    57    52    48    1
    58    45    39   ar
@<TRIPOS>MOLECULE
*****
 52 58 0 0 0
SMALL
GASTEIGER

@<TRIPOS>ATOM
      1 C          60.0734   84.2528   12.6952 C.ar    1  UNL1        0.0481
      2 C          58.7818   84.4458   12.1782 C.ar    1  UNL1        0.0176
      3 C          57.9992   83.3488   11.8072 C.ar    1  UNL1        0.0382
      4 C          58.4951   82.0467   11.9346 C.ar    1  UNL1        0.1388
      5 C          59.7708   81.8507   12.4913 C.ar    1  UNL1        0.0382
      6 C          60.5553   82.9458   12.8610 C.ar    1  UNL1        0.0176
      7 N          62.6367   87.5353   13.2340 N.pl3   1  UNL1       -0.3041
      8 C          61.3518   87.7407   12.5550 C.3     1  UNL1        0.1122
      9 C          60.3253   86.7276   13.0619 C.3     1  UNL1        0.1122
     10 N          60.8999   85.3767   13.0496 N.pl3   1  UNL1       -0.3041
     11 C          62.1849   85.1712   13.7280 C.3     1  UNL1        0.1122
     12 C          63.2114   86.1846   13.2210 C.3     1  UNL1        0.1122
     13 C          65.0598   90.8527   14.3543 C.ar    1  UNL1        0.0659
     14 C          64.7619   89.8371   15.2743 C.ar    1  UNL1        0.0187
     15 C          63.9663   88.7535   14.9067 C.ar    1  UNL1        0.0160
     16 C          63.4534   88.6607   13.6081 C.ar    1  UNL1        0.0477
     17 C          63.7327   89.6801   12.6853 C.ar    1  UNL1        0.0117
     18 C          64.5184   90.7947   13.0442 C.ar    1  UNL1       -0.0050
     19 N          67.7056   93.0536   15.4539 N.ar    1  UNL1       -0.2024
     20 N          66.8500   93.9427   14.9671 N.ar    1  UNL1       -0.1442
     21 C          65.7710   93.2437   14.5500 C.ar    1  UNL1        0.2073
     22 N          65.9280   91.9195   14.7657 N.ar    1  UNL1       -0.2401
     23 C          67.1544   91.8354   15.3085 C.ar    1  UNL1        0.3522
     24 O          67.7171   90.7538   15.6305 O.2     1  UNL1       -0.2444
     25 C          69.0456   93.3736   15.9553 C.3     1  UNL1        0.1099
     26 C          69.1862   94.8923   16.1224 C.3     1  UNL1        0.0265
     27 C          69.4926   92.2310   13.7106 C.3     1  UNL1        0.0021
     28 C          70.1022   92.7922   14.9953 C.3     1  UNL1        0.0245
     29 C          64.7425   91.9116   12.0315 C.3     1  UNL1        0.0238
     30 C          66.2221   92.0086   11.6426 C.3     1  UNL1        0.0047
     31 C          63.8580   91.7296   10.7902 C.3     1  UNL1        0.0047
     32 O          57.6919   80.9808   11.5023 O.3     1  UNL1       -0.4727
     33 C          57.6382   80.4836   10.1634 C.3     1  UNL1        0.2374
     34 C          58.1915   81.5282    9.1842 C.3     1  UNL1        0.1909
     35 C          58.4540   80.9760    7.8126 C.3     1  UNL1        0.1783
     36 O          59.5403   81.6982    7.3143 O.3     1  UNL1       -0.3282
     37 C          60.0517   82.4446    8.4065 C.3     1  UNL1        0.2081
     38 O          59.4264   82.0183    9.5999 O.3     1  UNL1       -0.3269
     39 C          59.7871   83.9416    8.1954 C.ar    1  UNL1        0.0390
     40 C          58.7680   84.5824    8.9337 C.ar    1  UNL1        0.0021
     41 C          58.4936   85.9390    8.7520 C.ar    1  UNL1        0.0113
     42 C          59.2159   86.6816    7.8194 C.ar    1  UNL1        0.0585
     43 CL         58.8664   88.3858    7.5933 Cl      1  UNL1       -0.0822
     44 C          60.2071   86.0642    7.0562 C.ar    1  UNL1        0.0226
     45 C          60.4937   84.7038    7.2250 C.ar    1  UNL1        0.0590
     46 CL         61.7271   84.0118    6.1723 Cl      1  UNL1       -0.0824
     47 C          61.5816   82.2256    8.4890 C.3     1  UNL1        0.0609
     48 C          62.2218   82.6862    9.8185 C.3     1  UNL1        0.0052
     49 C          63.2896   83.7632    9.6450 C.3     1  UNL1        0.0002
     50 C          64.3098   83.5441   10.7597 C.3     1  UNL1        0.0000
     51 C          63.9703   82.2104   11.4182 C.3     1  UNL1        0.0000
     52 C          62.9450   81.5420   10.5187 C.3     1  UNL1        0.0002
@<TRIPOS>BOND
     1    27    28    1
     2    28    25    1
     3    25    26    1
     4    25    19    1
     5    19    20   ar
     6    20    21   ar
     7    21    22   ar
     8    22    13    1
     9    13    14   ar
    10    14    15   ar
    11    15    16   ar
    12    16     7    1
    13     7     8    1
    14     8     9    1
    15     9    10    1
    16    10     1    1
    17     1     2   ar
    18     2     3   ar
    19     3     4   ar
    20     4    32    1
    21    32    33    1
    22    33    34    1
    23    34    35    1
    24    35    36    1
    25    36    37    1
    26    37    47    1
    27    47    48    1
    28    48    49    1
    29    49    50    1
    30    50    51    1
    31    51    52    1
    32    37    39    1
    33    39    40   ar
    34    40    41   ar
    35    41    42   ar
    36    42    43    1
    37    42    44   ar
    38    44    45   ar
    39    45    46    1
    40    37    38    1
    41     4     5   ar
    42     5     6   ar
    43    10    11    1
    44    11    12    1
    45    16    17   ar
    46    17    18   ar
    47    18    29    1
    48    29    30    1
    49    29    31    1
    50    22    23   ar
    51    23    24    2
    52    23    19   ar
    53    18    13   ar
    54    12     7    1
    55     6     1   ar
    56    38    34    1
    57    52    48    1
    58    45    39   ar
@<TRIPOS>MOLECULE
*****
 52 58 0 0 0
SMALL
GASTEIGER

@<TRIPOS>ATOM
      1 C          59.8451   87.2412   10.1366 C.ar    1  UNL1        0.0481
      2 C          58.9047   86.2015   10.2235 C.ar    1  UNL1        0.0176
      3 C          58.8405   85.4023   11.3683 C.ar    1  UNL1        0.0382
      4 C          59.7178   85.6191   12.4364 C.ar    1  UNL1        0.1388
      5 C          60.6305   86.6860   12.3678 C.ar    1  UNL1        0.0382
      6 C          60.6976   87.4848   11.2238 C.ar    1  UNL1        0.0176
      7 N          59.6894   89.8268    6.8311 N.pl3   1  UNL1       -0.3041
      8 C          60.1154   90.3594    8.1308 C.3     1  UNL1        0.1122
      9 C          60.7775   89.2559    8.9559 C.3     1  UNL1        0.1122
     10 N          59.9415   88.0491    8.9492 N.pl3   1  UNL1       -0.3041
     11 C          59.5151   87.5167    7.6499 C.3     1  UNL1        0.1122
     12 C          58.8529   88.6206    6.8248 C.3     1  UNL1        0.1122
     13 C          60.0206   92.2047    3.3144 C.ar    1  UNL1        0.0659
     14 C          58.8158   92.1430    4.0294 C.ar    1  UNL1        0.0187
     15 C          58.7083   91.3619    5.1785 C.ar    1  UNL1        0.0160
     16 C          59.8063   90.6272    5.6398 C.ar    1  UNL1        0.0477
     17 C          61.0112   90.6699    4.9221 C.ar    1  UNL1        0.0117
     18 C          61.1335   91.4379    3.7457 C.ar    1  UNL1       -0.0050
     19 N          60.0014   93.8331    0.0893 N.ar    1  UNL1       -0.2024
     20 N          60.0656   94.8925    0.8850 N.ar    1  UNL1       -0.1442
     21 C          60.1225   94.4164    2.1486 C.ar    1  UNL1        0.2073
     22 N          60.0961   93.0660    2.1683 N.ar    1  UNL1       -0.2401
     23 C          59.9966   92.7372    0.8691 C.ar    1  UNL1        0.3522
     24 O          59.9020   91.5554    0.4397 O.2     1  UNL1       -0.2444
     25 C          59.8566   93.8927   -1.3684 C.3     1  UNL1        0.1099
     26 C          60.9949   94.7290   -1.9675 C.3     1  UNL1        0.0265
     27 C          57.3414   93.4484   -1.5115 C.3     1  UNL1        0.0021
     28 C          58.4676   94.4608   -1.7208 C.3     1  UNL1        0.0245
     29 C          62.4395   91.4040    2.9605 C.3     1  UNL1        0.0238
     30 C          63.0650   92.8011    2.8789 C.3     1  UNL1        0.0047
     31 C          63.4276   90.3926    3.5579 C.3     1  UNL1        0.0047
     32 O          59.6485   84.7594   13.5429 O.3     1  UNL1       -0.4727
     33 C          59.9293   83.3584   13.5129 C.3     1  UNL1        0.2374
     34 C          60.2975   82.9187   12.0891 C.3     1  UNL1        0.1909
     35 C          60.3088   81.4275   11.9123 C.3     1  UNL1        0.1783
     36 O          61.2879   81.1667   10.9515 O.3     1  UNL1       -0.3282
     37 C          61.9876   82.3856   10.7609 C.3     1  UNL1        0.2081
     38 O          61.5872   83.3156   11.7466 O.3     1  UNL1       -0.3269
     39 C          61.6897   82.9553    9.3673 C.ar    1  UNL1        0.0390
     40 C          60.7556   82.3050    8.5312 C.ar    1  UNL1        0.0021
     41 C          60.4756   82.7905    7.2526 C.ar    1  UNL1        0.0113
     42 C          61.1323   83.9227    6.7733 C.ar    1  UNL1        0.0585
     43 CL         60.7785   84.5281    5.1652 Cl      1  UNL1       -0.0822
     44 C          62.0816   84.5650    7.5687 C.ar    1  UNL1        0.0226
     45 C          62.3753   84.0899    8.8529 C.ar    1  UNL1        0.0590
     46 CL         63.6287   84.9436    9.7519 Cl      1  UNL1       -0.0824
     47 C          63.5073   82.1106   10.8619 C.3     1  UNL1        0.0609
     48 C          64.1170   82.3972   12.2531 C.3     1  UNL1        0.0052
     49 C          63.5700   81.4992   13.3600 C.3     1  UNL1        0.0002
     50 C          63.5926   82.3297   14.6410 C.3     1  UNL1        0.0000
     51 C          63.9145   83.7648   14.2359 C.3     1  UNL1        0.0000
     52 C          63.8040   83.8131   12.7218 C.3     1  UNL1        0.0002
@<TRIPOS>BOND
     1    27    28    1
     2    28    25    1
     3    25    26    1
     4    25    19    1
     5    19    20   ar
     6    20    21   ar
     7    21    22   ar
     8    22    13    1
     9    13    14   ar
    10    14    15   ar
    11    15    16   ar
    12    16     7    1
    13     7     8    1
    14     8     9    1
    15     9    10    1
    16    10     1    1
    17     1     2   ar
    18     2     3   ar
    19     3     4   ar
    20     4    32    1
    21    32    33    1
    22    33    34    1
    23    34    35    1
    24    35    36    1
    25    36    37    1
    26    37    47    1
    27    47    48    1
    28    48    49    1
    29    49    50    1
    30    50    51    1
    31    51    52    1
    32    37    39    1
    33    39    40   ar
    34    40    41   ar
    35    41    42   ar
    36    42    43    1
    37    42    44   ar
    38    44    45   ar
    39    45    46    1
    40    37    38    1
    41     4     5   ar
    42     5     6   ar
    43    10    11    1
    44    11    12    1
    45    16    17   ar
    46    17    18   ar
    47    18    29    1
    48    29    30    1
    49    29    31    1
    50    22    23   ar
    51    23    24    2
    52    23    19   ar
    53    18    13   ar
    54    12     7    1
    55     6     1   ar
    56    38    34    1
    57    52    48    1
    58    45    39   ar
@<TRIPOS>MOLECULE
*****
 52 58 0 0 0
SMALL
GASTEIGER

@<TRIPOS>ATOM
      1 C          60.0619   85.4135    9.1048 C.ar    1  UNL1        0.0481
      2 C          60.5937   84.4157    8.2715 C.ar    1  UNL1        0.0176
      3 C          59.7621   83.4315    7.7300 C.ar    1  UNL1        0.0382
      4 C          58.3932   83.4201    8.0193 C.ar    1  UNL1        0.1388
      5 C          57.8531   84.4426    8.8184 C.ar    1  UNL1        0.0382
      6 C          58.6829   85.4261    9.3621 C.ar    1  UNL1        0.0176
      7 N          62.2062   88.3464   11.2108 N.pl3   1  UNL1       -0.3041
      8 C          62.2496   86.9575   11.6834 C.3     1  UNL1        0.1122
      9 C          62.0654   85.9993   10.5066 C.3     1  UNL1        0.1122
     10 N          60.9147   86.4123    9.6939 N.pl3   1  UNL1       -0.3041
     11 C          60.8709   87.8010    9.2216 C.3     1  UNL1        0.1122
     12 C          61.0552   88.7593   10.3988 C.3     1  UNL1        0.1122
     13 C          64.7721   91.2985   12.8939 C.ar    1  UNL1        0.0659
     14 C          64.5656   91.2312   11.5085 C.ar    1  UNL1        0.0187
     15 C          63.7278   90.2625   10.9591 C.ar    1  UNL1        0.0160
     16 C          63.0749   89.3409   11.7851 C.ar    1  UNL1        0.0477
     17 C          63.2879   89.3902   13.1711 C.ar    1  UNL1        0.0117
     18 C          64.1480   90.3496   13.7441 C.ar    1  UNL1       -0.0050
     19 N          67.2858   93.4443   14.3534 N.ar    1  UNL1       -0.2024
     20 N          66.5515   94.3460   13.7153 N.ar    1  UNL1       -0.1442
     21 C          65.5285   93.6702   13.1465 C.ar    1  UNL1        0.2073
     22 N          65.6013   92.3484   13.4148 N.ar    1  UNL1       -0.2401
     23 C          66.7215   92.2406   14.1493 C.ar    1  UNL1        0.3522
     24 O          67.1863   91.1512   14.5820 O.2     1  UNL1       -0.2444
     25 C          68.5392   93.7356   15.0559 C.3     1  UNL1        0.1099
     26 C          69.6890   92.9525   14.4085 C.3     1  UNL1        0.0265
     27 C          69.0140   92.0664   16.9354 C.3     1  UNL1        0.0021
     28 C          68.3757   93.4015   16.5518 C.3     1  UNL1        0.0245
     29 C          64.4029   90.3261   15.2466 C.3     1  UNL1        0.0238
     30 C          63.9356   91.6311   15.9011 C.3     1  UNL1        0.0047
     31 C          63.7406   89.1102   15.9094 C.3     1  UNL1        0.0047
     32 O          57.6079   82.3834    7.4931 O.3     1  UNL1       -0.4727
     33 C          57.5007   81.0712    8.0492 C.3     1  UNL1        0.2374
     34 C          58.4142   80.9356    9.2753 C.3     1  UNL1        0.1909
     35 C          57.9411   79.9023   10.2569 C.3     1  UNL1        0.1783
     36 O          58.3405   80.3618   11.5136 O.3     1  UNL1       -0.3282
     37 C          58.7877   81.6941   11.3222 C.3     1  UNL1        0.2081
     38 O          58.4617   82.1150   10.0133 O.3     1  UNL1       -0.3269
     39 C          60.3068   81.7772   11.5242 C.ar    1  UNL1        0.0390
     40 C          61.1224   82.2896   10.4914 C.ar    1  UNL1        0.0021
     41 C          62.5086   82.3629   10.6399 C.ar    1  UNL1        0.0113
     42 C          63.1129   81.9118   11.8121 C.ar    1  UNL1        0.0585
     43 CL         64.8554   82.0043   11.9935 Cl      1  UNL1       -0.0822
     44 C          62.3315   81.3734   12.8347 C.ar    1  UNL1        0.0226
     45 C          60.9398   81.2911   12.7010 C.ar    1  UNL1        0.0590
     46 CL         60.0536   80.5450   14.0300 Cl      1  UNL1       -0.0824
     47 C          58.1047   82.6059   12.3698 C.3     1  UNL1        0.0609
     48 C          58.4888   84.0994   12.2636 C.3     1  UNL1        0.0052
     49 C          59.5953   84.5189   13.2281 C.3     1  UNL1        0.0002
     50 C          59.3227   85.9768   13.5909 C.3     1  UNL1        0.0000
     51 C          57.9422   86.3220   13.0408 C.3     1  UNL1        0.0000
     52 C          57.3151   85.0066   12.6127 C.3     1  UNL1        0.0002
@<TRIPOS>BOND
     1    27    28    1
     2    28    25    1
     3    25    26    1
     4    25    19    1
     5    19    20   ar
     6    20    21   ar
     7    21    22   ar
     8    22    13    1
     9    13    14   ar
    10    14    15   ar
    11    15    16   ar
    12    16     7    1
    13     7     8    1
    14     8     9    1
    15     9    10    1
    16    10     1    1
    17     1     2   ar
    18     2     3   ar
    19     3     4   ar
    20     4    32    1
    21    32    33    1
    22    33    34    1
    23    34    35    1
    24    35    36    1
    25    36    37    1
    26    37    47    1
    27    47    48    1
    28    48    49    1
    29    49    50    1
    30    50    51    1
    31    51    52    1
    32    37    39    1
    33    39    40   ar
    34    40    41   ar
    35    41    42   ar
    36    42    43    1
    37    42    44   ar
    38    44    45   ar
    39    45    46    1
    40    37    38    1
    41     4     5   ar
    42     5     6   ar
    43    10    11    1
    44    11    12    1
    45    16    17   ar
    46    17    18   ar
    47    18    29    1
    48    29    30    1
    49    29    31    1
    50    22    23   ar
    51    23    24    2
    52    23    19   ar
    53    18    13   ar
    54    12     7    1
    55     6     1   ar
    56    38    34    1
    57    52    48    1
    58    45    39   ar
