@<TRIPOS>MOLECULE
*****
 47 52 0 0 0
SMALL
GASTEIGER

@<TRIPOS>ATOM
      1 C          60.3144   89.8498    5.2147 C.ar    1  UNL1        0.0702
      2 C          58.9908   90.1856    4.8900 C.ar    1  UNL1        0.0191
      3 C          58.7032   90.8040    3.6723 C.ar    1  UNL1        0.0356
      4 C          59.7468   91.0975    2.7788 C.ar    1  UNL1        0.1318
      5 N          61.0259   90.7888    3.1305 N.ar    1  UNL1       -0.2279
      6 C          61.3295   90.1874    4.3109 C.ar    1  UNL1        0.1149
      7 N          59.4912   91.7379    1.5120 N.pl3   1  UNL1       -0.2932
      8 C          59.8561   93.1447    1.2908 C.3     1  UNL1        0.0923
      9 C          58.8052   93.8471    0.4221 C.3     1  UNL1        0.0252
     10 C          58.4774   93.0586   -0.8625 C.3     1  UNL1        0.0472
     11 C          58.0857   91.6096   -0.5136 C.3     1  UNL1        0.0252
     12 C          59.1471   90.9137    0.3454 C.3     1  UNL1        0.0923
     13 C          59.6166   93.1144   -1.8979 C.3     1  UNL1        0.2054
     14 O          60.6479   92.1993   -1.5336 O.3     1  UNL1       -0.4755
     15 C          61.9479   92.5724   -1.1623 C.ar    1  UNL1        0.1388
     16 C          62.6510   93.4431   -2.0011 C.ar    1  UNL1        0.0369
     17 C          63.9474   93.8462   -1.6767 C.ar    1  UNL1        0.0033
     18 C          64.5553   93.3822   -0.5084 C.ar    1  UNL1        0.0066
     19 C          63.8689   92.5059    0.3506 C.ar    1  UNL1        0.0785
     20 C          62.5625   92.1041    0.0164 C.ar    1  UNL1        0.0433
     21 C          64.5091   92.0112    1.5901 C.2     1  UNL1        0.3381
     22 O          63.9976   92.2589    2.7157 O.2     1  UNL1       -0.2451
     23 O          65.6841   91.2666    1.5250 O.3     1  UNL1       -0.4771
     24 H          66.1301   90.9236    2.3674 H       1  UNL1        0.2954
     25 C          59.9494   88.1200    7.0371 C.2     1  UNL1        0.2839
     26 O          59.1327   87.4645    6.3363 O.2     1  UNL1       -0.2665
     27 N          60.6541   89.2364    6.4700 N.am    1  UNL1       -0.2766
     28 H          61.5194   89.5657    6.9554 H       1  UNL1        0.1553
     29 C          61.7080   87.5101   11.7211 C.ar    1  UNL1        0.0374
     30 C          61.2278   86.6357   12.7410 C.ar    1  UNL1        0.0029
     31 C          60.1014   85.8144   12.4942 C.ar    1  UNL1        0.0032
     32 C          59.4613   85.8258   11.2488 C.ar    1  UNL1        0.0375
     33 C          59.9477   86.6813   10.2701 C.ar    1  UNL1        0.1453
     34 O          59.4753   86.8247    9.0580 O.2     1  UNL1       -0.4492
     35 C          60.1933   87.7430    8.4437 C.ar    1  UNL1        0.1946
     36 C          61.1723   88.2446    9.3124 C.ar    1  UNL1        0.0203
     37 C          62.1487   89.3523    9.0361 C.3     1  UNL1        0.0345
     38 C          61.0216   87.5110   10.4879 C.ar    1  UNL1        0.0364
     39 C          61.8994   86.5252   14.0561 C.ar    1  UNL1        0.0001
     40 C          61.2036   86.8226   15.2402 C.ar    1  UNL1        0.0000
     41 C          61.8448   86.7198   16.4784 C.ar    1  UNL1        0.0000
     42 C          63.1849   86.3286   16.5429 C.ar    1  UNL1        0.0000
     43 C          63.8873   86.0434   15.3688 C.ar    1  UNL1        0.0000
     44 C          63.2498   86.1448   14.1283 C.ar    1  UNL1        0.0000
     45 C          62.8828   89.4125   13.0245 C.3     1  UNL1        0.0773
     46 C          62.8845   88.3738   11.9476 C.2     1  UNL1        0.1736
     47 O          63.9184   88.2134   11.2458 O.2     1  UNL1       -0.2913
@<TRIPOS>BOND
     1    45    46    1
     2    46    47    2
     3    46    29    1
     4    29    30   ar
     5    30    39    1
     6    39    40   ar
     7    40    41   ar
     8    41    42   ar
     9    42    43   ar
    10    43    44   ar
    11    30    31   ar
    12    31    32   ar
    13    32    33   ar
    14    33    34   ar
    15    34    35   ar
    16    35    25    1
    17    25    26    2
    18    25    27   am
    19    27     1    1
    20     1     2   ar
    21     2     3   ar
    22     3     4   ar
    23     4     7    1
    24     7     8    1
    25     8     9    1
    26     9    10    1
    27    10    13    1
    28    13    14    1
    29    14    15    1
    30    15    16   ar
    31    16    17   ar
    32    17    18   ar
    33    18    19   ar
    34    19    21    1
    35    21    22    2
    36    21    23    1
    37    19    20   ar
    38    10    11    1
    39    11    12    1
    40     4     5   ar
    41     5     6   ar
    42    35    36   ar
    43    36    37    1
    44    36    38   ar
    45    38    29   ar
    46    44    39   ar
    47    38    33   ar
    48     6     1   ar
    49    12     7    1
    50    20    15   ar
    51    27    28    1
    52    23    24    1
@<TRIPOS>MOLECULE
*****
 47 52 0 0 0
SMALL
GASTEIGER

@<TRIPOS>ATOM
      1 C          60.5506   89.6830    4.9716 C.ar    1  UNL1        0.0702
      2 C          59.3268   90.3575    4.8390 C.ar    1  UNL1        0.0191
      3 C          59.0253   91.0368    3.6576 C.ar    1  UNL1        0.0356
      4 C          59.9576   91.0501    2.6067 C.ar    1  UNL1        0.1318
      5 N          61.1503   90.4133    2.7718 N.ar    1  UNL1       -0.2279
      6 C          61.4656   89.7464    3.9133 C.ar    1  UNL1        0.1149
      7 N          59.6847   91.7424    1.3713 N.pl3   1  UNL1       -0.2932
      8 C          59.9303   93.1865    1.2457 C.3     1  UNL1        0.0923
      9 C          58.8481   93.8472    0.3828 C.3     1  UNL1        0.0252
     10 C          58.6302   93.1136   -0.9564 C.3     1  UNL1        0.0472
     11 C          58.3580   91.6175   -0.7068 C.3     1  UNL1        0.0252
     12 C          59.4503   90.9647    0.1471 C.3     1  UNL1        0.0923
     13 C          59.7908   93.3311   -1.9458 C.3     1  UNL1        0.2054
     14 O          60.8193   92.3732   -1.7045 O.3     1  UNL1       -0.4755
     15 C          62.0984   92.6841   -1.2201 C.ar    1  UNL1        0.1388
     16 C          62.9192   93.5051   -2.0000 C.ar    1  UNL1        0.0369
     17 C          64.2004   93.8455   -1.5630 C.ar    1  UNL1        0.0033
     18 C          64.6751   93.3677   -0.3398 C.ar    1  UNL1        0.0066
     19 C          63.8687   92.5404    0.4618 C.ar    1  UNL1        0.0785
     20 C          62.5785   92.2018    0.0140 C.ar    1  UNL1        0.0433
     21 C          64.3674   92.0315    1.7590 C.2     1  UNL1        0.3381
     22 O          63.5590   91.6936    2.6659 O.2     1  UNL1       -0.2451
     23 O          65.7361   91.9205    1.9910 O.3     1  UNL1       -0.4771
     24 H          66.0876   91.5734    2.8754 H       1  UNL1        0.2954
     25 C          59.9578   88.4150    7.0899 C.2     1  UNL1        0.2839
     26 O          58.7548   88.2749    6.7425 O.2     1  UNL1       -0.2665
     27 N          60.9088   88.9946    6.1820 N.am    1  UNL1       -0.2766
     28 H          61.9243   88.8290    6.3666 H       1  UNL1        0.1553
     29 C          60.6794   86.1051   11.5113 C.ar    1  UNL1        0.0374
     30 C          61.5104   86.5109   12.5977 C.ar    1  UNL1        0.0029
     31 C          62.2829   87.6927   12.4928 C.ar    1  UNL1        0.0032
     32 C          62.2255   88.4904   11.3434 C.ar    1  UNL1        0.0375
     33 C          61.4075   88.0786   10.3004 C.ar    1  UNL1        0.1453
     34 O          61.2343   88.6942    9.1586 O.2     1  UNL1       -0.4492
     35 C          60.4013   87.9797    8.4293 C.ar    1  UNL1        0.1946
     36 C          60.0307   86.8206    9.1247 C.ar    1  UNL1        0.0203
     37 C          59.1590   85.7033    8.6261 C.3     1  UNL1        0.0345
     38 C          60.6670   86.9223   10.3607 C.ar    1  UNL1        0.0364
     39 C          61.5651   85.7498   13.8668 C.ar    1  UNL1        0.0001
     40 C          62.1552   84.4751   13.9098 C.ar    1  UNL1        0.0000
     41 C          62.2001   83.7602   15.1106 C.ar    1  UNL1        0.0000
     42 C          61.6497   84.3077   16.2727 C.ar    1  UNL1        0.0000
     43 C          61.0499   85.5694   16.2351 C.ar    1  UNL1        0.0000
     44 C          61.0029   86.2879   15.0363 C.ar    1  UNL1        0.0000
     45 C          58.4459   84.9314   12.0874 C.3     1  UNL1        0.0773
     46 C          59.8577   84.8807   11.5946 C.2     1  UNL1        0.1736
     47 O          60.3403   83.7806   11.2149 O.2     1  UNL1       -0.2913
@<TRIPOS>BOND
     1    45    46    1
     2    46    47    2
     3    46    29    1
     4    29    30   ar
     5    30    39    1
     6    39    40   ar
     7    40    41   ar
     8    41    42   ar
     9    42    43   ar
    10    43    44   ar
    11    30    31   ar
    12    31    32   ar
    13    32    33   ar
    14    33    34   ar
    15    34    35   ar
    16    35    25    1
    17    25    26    2
    18    25    27   am
    19    27     1    1
    20     1     2   ar
    21     2     3   ar
    22     3     4   ar
    23     4     7    1
    24     7     8    1
    25     8     9    1
    26     9    10    1
    27    10    13    1
    28    13    14    1
    29    14    15    1
    30    15    16   ar
    31    16    17   ar
    32    17    18   ar
    33    18    19   ar
    34    19    21    1
    35    21    22    2
    36    21    23    1
    37    19    20   ar
    38    10    11    1
    39    11    12    1
    40     4     5   ar
    41     5     6   ar
    42    35    36   ar
    43    36    37    1
    44    36    38   ar
    45    38    29   ar
    46    44    39   ar
    47    38    33   ar
    48     6     1   ar
    49    12     7    1
    50    20    15   ar
    51    27    28    1
    52    23    24    1
