@<TRIPOS>MOLECULE
*****
 52 57 0 0 0
SMALL
GASTEIGER

@<TRIPOS>ATOM
      1 N          -8.3786  -11.2438   32.2859 N.am    1  UNL1       -0.2945
      2 C          -7.4878  -11.0198   31.1811 C.2     1  UNL1        0.2483
      3 O          -6.7448  -10.0001   31.1707 O.2     1  UNL1       -0.2701
      4 H          -8.7492  -12.2098   32.4310 H       1  UNL1        0.1501
      5 C          -7.4023  -11.9902   30.0657 C.ar    1  UNL1        0.0808
      6 C          -6.2018  -12.1161   29.3464 C.ar    1  UNL1        0.0080
      7 C          -6.0965  -13.0281   28.2934 C.ar    1  UNL1        0.0148
      8 C          -7.1920  -13.8249   27.9311 C.ar    1  UNL1        0.0502
      9 C          -8.3976  -13.6921   28.6381 C.ar    1  UNL1        0.0443
     10 C          -8.5075  -12.7806   29.6930 C.ar    1  UNL1        0.1457
     11 F          -9.7082  -12.6409   30.3100 F       1  UNL1       -0.2040
     12 N          -7.0758  -14.7654   26.8467 N.pl3   1  UNL1       -0.3040
     13 C          -8.1774  -15.6909   26.5561 C.3     1  UNL1        0.1122
     14 C          -8.3332  -15.8552   25.0456 C.3     1  UNL1        0.1122
     15 N          -7.0294  -16.1470   24.4377 N.pl3   1  UNL1       -0.3041
     16 C          -5.9179  -15.2328   24.7274 C.3     1  UNL1        0.1122
     17 C          -5.7689  -15.0435   26.2390 C.3     1  UNL1        0.1122
     18 C          -6.9354  -17.0932   23.3560 C.ar    1  UNL1        0.0479
     19 C          -8.0936  -17.7028   22.8508 C.ar    1  UNL1        0.0145
     20 C          -8.0099  -18.6255   21.8044 C.ar    1  UNL1        0.0051
     21 C          -6.7665  -18.9424   21.2313 C.ar    1  UNL1        0.0715
     22 C          -5.6043  -18.3531   21.7576 C.ar    1  UNL1        0.0051
     23 C          -5.6888  -17.4310   22.8048 C.ar    1  UNL1        0.0145
     24 C          -6.6709  -19.9745   20.1360 C.3     1  UNL1        0.4186
     25 F          -6.5601  -21.2304   20.7027 F       1  UNL1       -0.1659
     26 F          -5.5638  -19.7401   19.3389 F       1  UNL1       -0.1659
     27 F          -7.7972  -19.9400   19.3321 F       1  UNL1       -0.1659
     28 C          -8.5726  -10.2514   33.3465 C.3     1  UNL1        0.1535
     29 C          -8.2054   -8.8758   32.8441 C.2     1  UNL1        0.2443
     30 O          -7.4012   -8.1766   33.5185 O.2     1  UNL1       -0.2730
     31 N          -8.8185   -8.3379   31.6593 N.am    1  UNL1       -0.2825
     32 H          -9.6278   -8.8529   31.2455 H       1  UNL1        0.1549
     33 C          -8.5117   -7.0418   31.1206 C.ar    1  UNL1        0.0535
     34 C          -7.1931   -6.5601   31.0738 C.ar    1  UNL1        0.0353
     35 C          -6.9397   -5.3001   30.5260 C.ar    1  UNL1        0.1002
     36 N          -7.9616   -4.5530   30.0305 N.ar    1  UNL1       -0.2422
     37 C          -9.2445   -5.0020   30.0465 C.ar    1  UNL1        0.1002
     38 C          -9.5409   -6.2571   30.5828 C.ar    1  UNL1        0.0353
     39 C         -10.0258  -10.3033   33.8534 C.3     1  UNL1        0.0565
     40 C         -11.3852  -10.9197   31.7119 C.ar    1  UNL1        0.0292
     41 N         -12.0253  -12.0062   31.2143 N.ar    1  UNL1       -0.3567
     42 C         -11.9273  -12.9600   32.1548 C.ar    1  UNL1        0.0561
     43 C         -12.4099  -14.2662   32.0820 C.ar    1  UNL1        0.0169
     44 C         -12.1721  -15.1178   33.1757 C.ar    1  UNL1        0.0015
     45 C         -11.4654  -14.6505   34.3051 C.ar    1  UNL1        0.0001
     46 C         -10.9913  -13.3276   34.3513 C.ar    1  UNL1        0.0012
     47 C         -11.2397  -12.5046   33.2508 C.ar    1  UNL1        0.0127
     48 C         -10.8855  -11.1918   32.9917 C.ar    1  UNL1       -0.0072
     49 H         -12.4834  -12.0964   30.2800 H       1  UNL1        0.1656
     50 C         -12.4357   -8.7215   31.1563 C.3     1  UNL1        0.0062
     51 C         -11.2214   -9.6297   30.9432 C.3     1  UNL1        0.0378
     52 C         -11.0076   -9.9187   29.4546 C.3     1  UNL1        0.0062
@<TRIPOS>BOND
     1    50    51    1
     2    51    52    1
     3    51    40    1
     4    40    41   ar
     5    41    42   ar
     6    42    43   ar
     7    43    44   ar
     8    44    45   ar
     9    45    46   ar
    10    46    47   ar
    11    47    48   ar
    12    48    39    1
    13    39    28    1
    14    28     1    1
    15     1     2   am
    16     2     3    2
    17     2     5    1
    18     5     6   ar
    19     6     7   ar
    20     7     8   ar
    21     8    12    1
    22    12    13    1
    23    13    14    1
    24    14    15    1
    25    15    18    1
    26    18    19   ar
    27    19    20   ar
    28    20    21   ar
    29    21    24    1
    30    24    25    1
    31    24    26    1
    32    24    27    1
    33    21    22   ar
    34    22    23   ar
    35    15    16    1
    36    16    17    1
    37     8     9   ar
    38     9    10   ar
    39    10    11    1
    40    28    29    1
    41    29    30    2
    42    29    31   am
    43    31    33    1
    44    33    34   ar
    45    34    35   ar
    46    35    36   ar
    47    36    37   ar
    48    37    38   ar
    49    48    40   ar
    50    10     5   ar
    51    38    33   ar
    52    47    42   ar
    53    17    12    1
    54    23    18   ar
    55    41    49    1
    56     1     4    1
    57    31    32    1
@<TRIPOS>MOLECULE
*****
 52 57 0 0 0
SMALL
GASTEIGER

@<TRIPOS>ATOM
      1 N          -8.8287  -11.6178   30.9735 N.am    1  UNL1       -0.2945
      2 C          -9.4662  -12.4297   29.9740 C.2     1  UNL1        0.2483
      3 O         -10.7255  -12.4801   29.9158 O.2     1  UNL1       -0.2701
      4 H          -7.8307  -11.3473   30.8243 H       1  UNL1        0.1501
      5 C          -8.6642  -13.1843   28.9838 C.ar    1  UNL1        0.0808
      6 C          -9.2713  -14.2048   28.2323 C.ar    1  UNL1        0.0080
      7 C          -8.5356  -14.9267   27.2894 C.ar    1  UNL1        0.0148
      8 C          -7.1759  -14.6509   27.0861 C.ar    1  UNL1        0.0502
      9 C          -6.5621  -13.6417   27.8448 C.ar    1  UNL1        0.0443
     10 C          -7.2946  -12.9162   28.7898 C.ar    1  UNL1        0.1457
     11 F          -6.6483  -11.9914   29.5440 F       1  UNL1       -0.2040
     12 N          -6.4240  -15.3966   26.1101 N.pl3   1  UNL1       -0.3040
     13 C          -6.8719  -15.4377   24.7129 C.3     1  UNL1        0.1122
     14 C          -5.6651  -15.3776   23.7786 C.3     1  UNL1        0.1122
     15 N          -4.6617  -16.3650   24.1942 N.pl3   1  UNL1       -0.3041
     16 C          -4.2119  -16.3389   25.5913 C.3     1  UNL1        0.1122
     17 C          -5.4160  -16.3752   26.5356 C.3     1  UNL1        0.1122
     18 C          -3.9230  -17.1019   23.2015 C.ar    1  UNL1        0.0479
     19 C          -4.1743  -18.4685   23.0072 C.ar    1  UNL1        0.0145
     20 C          -3.4583  -19.1914   22.0490 C.ar    1  UNL1        0.0051
     21 C          -2.4892  -18.5559   21.2540 C.ar    1  UNL1        0.0715
     22 C          -2.2181  -17.1939   21.4698 C.ar    1  UNL1        0.0051
     23 C          -2.9340  -16.4718   22.4290 C.ar    1  UNL1        0.0145
     24 C          -1.6822  -19.3464   20.2551 C.3     1  UNL1        0.4186
     25 F          -2.5413  -20.0329   19.4175 F       1  UNL1       -0.1659
     26 F          -0.8598  -20.2541   20.8999 F       1  UNL1       -0.1659
     27 F          -0.8866  -18.5065   19.4951 F       1  UNL1       -0.1659
     28 C          -9.5849  -10.9513   32.0371 C.3     1  UNL1        0.1535
     29 C         -10.2319  -11.9776   32.9357 C.2     1  UNL1        0.2443
     30 O          -9.7470  -12.1733   34.0833 O.2     1  UNL1       -0.2730
     31 N         -11.3335  -12.7750   32.4671 N.am    1  UNL1       -0.2825
     32 H         -11.5735  -12.7360   31.4511 H       1  UNL1        0.1549
     33 C         -12.0010  -13.7629   33.2689 C.ar    1  UNL1        0.0535
     34 C         -12.1688  -13.5931   34.6531 C.ar    1  UNL1        0.0353
     35 C         -12.8390  -14.5726   35.3903 C.ar    1  UNL1        0.1002
     36 N         -13.3358  -15.6746   34.7684 N.ar    1  UNL1       -0.2422
     37 C         -13.2036  -15.8556   33.4278 C.ar    1  UNL1        0.1002
     38 C         -12.5428  -14.8995   32.6533 C.ar    1  UNL1        0.0353
     39 C          -8.6587  -10.0069   32.8257 C.3     1  UNL1        0.0565
     40 C          -8.8792   -8.1436   31.0109 C.ar    1  UNL1        0.0292
     41 N          -8.1244   -7.1262   30.5282 N.ar    1  UNL1       -0.3567
     42 C          -6.9493   -7.1941   31.1750 C.ar    1  UNL1        0.0561
     43 C          -5.8609   -6.3339   31.0349 C.ar    1  UNL1        0.0169
     44 C          -4.7289   -6.5687   31.8358 C.ar    1  UNL1        0.0015
     45 C          -4.7100   -7.6457   32.7485 C.ar    1  UNL1        0.0001
     46 C          -5.8220   -8.4978   32.8677 C.ar    1  UNL1        0.0012
     47 C          -6.9331   -8.2403   32.0619 C.ar    1  UNL1        0.0127
     48 C          -8.1623   -8.8700   31.9701 C.ar    1  UNL1       -0.0072
     49 H          -8.4035   -6.4163   29.8146 H       1  UNL1        0.1656
     50 C         -10.3486   -8.8200   29.1063 C.3     1  UNL1        0.0062
     51 C         -10.3038   -8.3972   30.5774 C.3     1  UNL1        0.0378
     52 C         -11.1642   -7.1531   30.8166 C.3     1  UNL1        0.0062
@<TRIPOS>BOND
     1    50    51    1
     2    51    52    1
     3    51    40    1
     4    40    41   ar
     5    41    42   ar
     6    42    43   ar
     7    43    44   ar
     8    44    45   ar
     9    45    46   ar
    10    46    47   ar
    11    47    48   ar
    12    48    39    1
    13    39    28    1
    14    28     1    1
    15     1     2   am
    16     2     3    2
    17     2     5    1
    18     5     6   ar
    19     6     7   ar
    20     7     8   ar
    21     8    12    1
    22    12    13    1
    23    13    14    1
    24    14    15    1
    25    15    18    1
    26    18    19   ar
    27    19    20   ar
    28    20    21   ar
    29    21    24    1
    30    24    25    1
    31    24    26    1
    32    24    27    1
    33    21    22   ar
    34    22    23   ar
    35    15    16    1
    36    16    17    1
    37     8     9   ar
    38     9    10   ar
    39    10    11    1
    40    28    29    1
    41    29    30    2
    42    29    31   am
    43    31    33    1
    44    33    34   ar
    45    34    35   ar
    46    35    36   ar
    47    36    37   ar
    48    37    38   ar
    49    48    40   ar
    50    10     5   ar
    51    38    33   ar
    52    47    42   ar
    53    17    12    1
    54    23    18   ar
    55    41    49    1
    56     1     4    1
    57    31    32    1
@<TRIPOS>MOLECULE
*****
 52 57 0 0 0
SMALL
GASTEIGER

@<TRIPOS>ATOM
      1 N          -8.8188  -11.6081   31.0196 N.am    1  UNL1       -0.2945
      2 C          -9.4601  -12.3234   29.9512 C.2     1  UNL1        0.2483
      3 O         -10.7136  -12.2648   29.8202 O.2     1  UNL1       -0.2701
      4 H          -7.7948  -11.4173   30.9389 H       1  UNL1        0.1501
      5 C          -8.6651  -13.1037   28.9753 C.ar    1  UNL1        0.0808
      6 C          -9.2875  -14.1157   28.2249 C.ar    1  UNL1        0.0080
      7 C          -8.5586  -14.8615   27.2953 C.ar    1  UNL1        0.0148
      8 C          -7.1909  -14.6184   27.1047 C.ar    1  UNL1        0.0502
      9 C          -6.5621  -13.6178   27.8625 C.ar    1  UNL1        0.0443
     10 C          -7.2878  -12.8685   28.7941 C.ar    1  UNL1        0.1457
     11 F          -6.6285  -11.9530   29.5483 F       1  UNL1       -0.2040
     12 N          -6.4460  -15.3887   26.1425 N.pl3   1  UNL1       -0.3040
     13 C          -6.9061  -15.4682   24.7509 C.3     1  UNL1        0.1122
     14 C          -5.7078  -15.4308   23.8046 C.3     1  UNL1        0.1122
     15 N          -4.6986  -16.4047   24.2376 N.pl3   1  UNL1       -0.3041
     16 C          -4.2364  -16.3401   25.6295 C.3     1  UNL1        0.1122
     17 C          -5.4321  -16.3534   26.5851 C.3     1  UNL1        0.1122
     18 C          -3.9671  -17.1665   23.2585 C.ar    1  UNL1        0.0479
     19 C          -4.2203  -18.5374   23.1000 C.ar    1  UNL1        0.0145
     20 C          -3.5112  -19.2844   22.1552 C.ar    1  UNL1        0.0051
     21 C          -2.5473  -18.6694   21.3380 C.ar    1  UNL1        0.0715
     22 C          -2.2741  -17.3026   21.5180 C.ar    1  UNL1        0.0051
     23 C          -2.9831  -16.5565   22.4638 C.ar    1  UNL1        0.0145
     24 C          -1.7476  -19.4851   20.3535 C.3     1  UNL1        0.4186
     25 F          -2.6129  -20.1788   19.5285 F       1  UNL1       -0.1659
     26 F          -0.9333  -20.3883   21.0147 F       1  UNL1       -0.1659
     27 F          -0.9446  -18.6661   19.5786 F       1  UNL1       -0.1659
     28 C          -9.5798  -10.9223   32.0675 C.3     1  UNL1        0.1535
     29 C         -10.2892  -11.9308   32.9387 C.2     1  UNL1        0.2443
     30 O          -9.9540  -12.0305   34.1503 O.2     1  UNL1       -0.2730
     31 N         -11.2760  -12.8175   32.3827 N.am    1  UNL1       -0.2825
     32 H         -11.3786  -12.8519   31.3437 H       1  UNL1        0.1549
     33 C         -11.9946  -13.7945   33.1530 C.ar    1  UNL1        0.0535
     34 C         -12.9909  -14.5974   32.5737 C.ar    1  UNL1        0.0353
     35 C         -13.6524  -15.5461   33.3575 C.ar    1  UNL1        0.1002
     36 N         -13.3234  -15.6985   34.6676 N.ar    1  UNL1       -0.2422
     37 C         -12.3508  -14.9479   35.2492 C.ar    1  UNL1        0.1002
     38 C         -11.6633  -13.9899   34.5007 C.ar    1  UNL1        0.0353
     39 C          -8.6422  -10.0188   32.8899 C.3     1  UNL1        0.0565
     40 C          -7.1778   -8.0453   32.0097 C.ar    1  UNL1        0.0292
     41 N          -7.3528   -6.9302   31.2589 N.ar    1  UNL1       -0.3567
     42 C          -8.6638   -6.8753   30.9724 C.ar    1  UNL1        0.0561
     43 C          -9.3160   -5.9184   30.1958 C.ar    1  UNL1        0.0169
     44 C         -10.7003   -6.0651   29.9955 C.ar    1  UNL1        0.0015
     45 C         -11.3943   -7.1525   30.5694 C.ar    1  UNL1        0.0001
     46 C         -10.7105   -8.1019   31.3492 C.ar    1  UNL1        0.0012
     47 C          -9.3362   -7.9329   31.5299 C.ar    1  UNL1        0.0127
     48 C          -8.4018   -8.6968   32.2076 C.ar    1  UNL1       -0.0072
     49 H          -6.6170   -6.2588   30.9444 H       1  UNL1        0.1656
     50 C          -4.8973   -7.3086   32.7172 C.3     1  UNL1        0.0062
     51 C          -5.8282   -8.5062   32.5077 C.3     1  UNL1        0.0378
     52 C          -5.2143   -9.5136   31.5313 C.3     1  UNL1        0.0062
@<TRIPOS>BOND
     1    50    51    1
     2    51    52    1
     3    51    40    1
     4    40    41   ar
     5    41    42   ar
     6    42    43   ar
     7    43    44   ar
     8    44    45   ar
     9    45    46   ar
    10    46    47   ar
    11    47    48   ar
    12    48    39    1
    13    39    28    1
    14    28     1    1
    15     1     2   am
    16     2     3    2
    17     2     5    1
    18     5     6   ar
    19     6     7   ar
    20     7     8   ar
    21     8    12    1
    22    12    13    1
    23    13    14    1
    24    14    15    1
    25    15    18    1
    26    18    19   ar
    27    19    20   ar
    28    20    21   ar
    29    21    24    1
    30    24    25    1
    31    24    26    1
    32    24    27    1
    33    21    22   ar
    34    22    23   ar
    35    15    16    1
    36    16    17    1
    37     8     9   ar
    38     9    10   ar
    39    10    11    1
    40    28    29    1
    41    29    30    2
    42    29    31   am
    43    31    33    1
    44    33    34   ar
    45    34    35   ar
    46    35    36   ar
    47    36    37   ar
    48    37    38   ar
    49    48    40   ar
    50    10     5   ar
    51    38    33   ar
    52    47    42   ar
    53    17    12    1
    54    23    18   ar
    55    41    49    1
    56     1     4    1
    57    31    32    1
@<TRIPOS>MOLECULE
*****
 52 57 0 0 0
SMALL
GASTEIGER

@<TRIPOS>ATOM
      1 N          -9.9232  -11.3468   31.4587 N.am    1  UNL1       -0.2945
      2 C          -8.6410  -11.2178   30.8234 C.2     1  UNL1        0.2483
      3 O          -7.8545  -10.2972   31.1781 O.2     1  UNL1       -0.2701
      4 H         -10.4212  -12.2619   31.3804 H       1  UNL1        0.1501
      5 C          -8.2118  -12.1749   29.7780 C.ar    1  UNL1        0.0808
      6 C          -6.8975  -12.1191   29.2838 C.ar    1  UNL1        0.0080
      7 C          -6.4691  -13.0147   28.3010 C.ar    1  UNL1        0.0148
      8 C          -7.3485  -13.9770   27.7844 C.ar    1  UNL1        0.0502
      9 C          -8.6665  -14.0270   28.2653 C.ar    1  UNL1        0.0443
     10 C          -9.0998  -13.1326   29.2493 C.ar    1  UNL1        0.1457
     11 F         -10.3981  -13.1760   29.6420 F       1  UNL1       -0.2040
     12 N          -6.8995  -14.8994   26.7737 N.pl3   1  UNL1       -0.3040
     13 C          -7.8106  -15.9316   26.2647 C.3     1  UNL1        0.1122
     14 C          -7.6068  -16.1088   24.7613 C.3     1  UNL1        0.1122
     15 N          -6.1776  -16.2659   24.4659 N.pl3   1  UNL1       -0.3041
     16 C          -5.2557  -15.2440   24.9766 C.3     1  UNL1        0.1122
     17 C          -5.4687  -15.0426   26.4789 C.3     1  UNL1        0.1122
     18 C          -5.7502  -17.1962   23.4531 C.ar    1  UNL1        0.0479
     19 C          -4.4437  -17.7073   23.4723 C.ar    1  UNL1        0.0145
     20 C          -4.0202  -18.6070   22.4902 C.ar    1  UNL1        0.0051
     21 C          -4.9022  -19.0264   21.4797 C.ar    1  UNL1        0.0715
     22 C          -6.2013  -18.4913   21.4448 C.ar    1  UNL1        0.0051
     23 C          -6.6238  -17.5909   22.4269 C.ar    1  UNL1        0.0145
     24 C          -4.4304  -19.9583   20.3921 C.3     1  UNL1        0.4186
     25 F          -3.9419  -19.2135   19.3350 F       1  UNL1       -0.1659
     26 F          -5.4719  -20.7511   19.9419 F       1  UNL1       -0.1659
     27 F          -3.4268  -20.7884   20.8609 F       1  UNL1       -0.1659
     28 C         -10.4261  -10.3537   32.4118 C.3     1  UNL1        0.1535
     29 C         -10.7259   -9.0563   31.7002 C.2     1  UNL1        0.2443
     30 O         -11.8214   -8.9380   31.0869 O.2     1  UNL1       -0.2730
     31 N          -9.7502   -8.0004   31.6546 N.am    1  UNL1       -0.2825
     32 H          -8.7827   -8.2080   31.9895 H       1  UNL1        0.1549
     33 C          -9.9702   -6.7388   31.0032 C.ar    1  UNL1        0.0535
     34 C          -9.0256   -6.1963   30.1165 C.ar    1  UNL1        0.0353
     35 C          -9.2894   -4.9741   29.4931 C.ar    1  UNL1        0.1002
     36 N         -10.4580   -4.3229   29.7341 N.ar    1  UNL1       -0.2422
     37 C         -11.3974   -4.8337   30.5733 C.ar    1  UNL1        0.1002
     38 C         -11.1746   -6.0541   31.2149 C.ar    1  UNL1        0.0353
     39 C         -11.6674  -10.9053   33.1373 C.3     1  UNL1        0.0565
     40 C         -10.5204  -12.8725   34.4134 C.ar    1  UNL1        0.0292
     41 N         -10.7414  -14.1947   34.6157 N.ar    1  UNL1       -0.3567
     42 C         -11.8321  -14.5048   33.8959 C.ar    1  UNL1        0.0561
     43 C         -12.4606  -15.7468   33.8134 C.ar    1  UNL1        0.0169
     44 C         -13.6166  -15.8482   33.0189 C.ar    1  UNL1        0.0015
     45 C         -14.1132  -14.7190   32.3321 C.ar    1  UNL1        0.0001
     46 C         -13.4579  -13.4791   32.4329 C.ar    1  UNL1        0.0012
     47 C         -12.3137  -13.4065   33.2302 C.ar    1  UNL1        0.0127
     48 C         -11.4824  -12.3449   33.5430 C.ar    1  UNL1       -0.0072
     49 H         -10.1919  -14.8408   35.2252 H       1  UNL1        0.1656
     50 C          -8.3289  -11.7232   34.0656 C.3     1  UNL1        0.0062
     51 C          -9.4054  -12.1060   35.0852 C.3     1  UNL1        0.0378
     52 C          -8.8077  -12.9276   36.2311 C.3     1  UNL1        0.0062
@<TRIPOS>BOND
     1    50    51    1
     2    51    52    1
     3    51    40    1
     4    40    41   ar
     5    41    42   ar
     6    42    43   ar
     7    43    44   ar
     8    44    45   ar
     9    45    46   ar
    10    46    47   ar
    11    47    48   ar
    12    48    39    1
    13    39    28    1
    14    28     1    1
    15     1     2   am
    16     2     3    2
    17     2     5    1
    18     5     6   ar
    19     6     7   ar
    20     7     8   ar
    21     8    12    1
    22    12    13    1
    23    13    14    1
    24    14    15    1
    25    15    18    1
    26    18    19   ar
    27    19    20   ar
    28    20    21   ar
    29    21    24    1
    30    24    25    1
    31    24    26    1
    32    24    27    1
    33    21    22   ar
    34    22    23   ar
    35    15    16    1
    36    16    17    1
    37     8     9   ar
    38     9    10   ar
    39    10    11    1
    40    28    29    1
    41    29    30    2
    42    29    31   am
    43    31    33    1
    44    33    34   ar
    45    34    35   ar
    46    35    36   ar
    47    36    37   ar
    48    37    38   ar
    49    48    40   ar
    50    10     5   ar
    51    38    33   ar
    52    47    42   ar
    53    17    12    1
    54    23    18   ar
    55    41    49    1
    56     1     4    1
    57    31    32    1
@<TRIPOS>MOLECULE
*****
 52 57 0 0 0
SMALL
GASTEIGER

@<TRIPOS>ATOM
      1 N         -10.0579  -11.0228   30.8046 N.am    1  UNL1       -0.2945
      2 C          -8.6962  -11.4802   30.7718 C.2     1  UNL1        0.2483
      3 O          -7.8902  -11.1165   31.6718 O.2     1  UNL1       -0.2701
      4 H         -10.7689  -11.5550   30.2543 H       1  UNL1        0.1501
      5 C          -8.2309  -12.4046   29.7126 C.ar    1  UNL1        0.0808
      6 C          -6.9107  -12.3104   29.2405 C.ar    1  UNL1        0.0080
      7 C          -6.4484  -13.1747   28.2452 C.ar    1  UNL1        0.0148
      8 C          -7.2992  -14.1434   27.6938 C.ar    1  UNL1        0.0502
      9 C          -8.6231  -14.2316   28.1526 C.ar    1  UNL1        0.0443
     10 C          -9.0902  -13.3686   29.1491 C.ar    1  UNL1        0.1457
     11 F         -10.3932  -13.4477   29.5203 F       1  UNL1       -0.2040
     12 N          -6.8154  -15.0336   26.6703 N.pl3   1  UNL1       -0.3040
     13 C          -7.6522  -15.3334   25.5022 C.3     1  UNL1        0.1122
     14 C          -6.7842  -15.4128   24.2480 C.3     1  UNL1        0.1122
     15 N          -5.6307  -16.2868   24.4932 N.pl3   1  UNL1       -0.3041
     16 C          -4.7909  -16.0017   25.6630 C.3     1  UNL1        0.1122
     17 C          -5.6553  -15.8970   26.9219 C.3     1  UNL1        0.1122
     18 C          -5.1650  -17.1715   23.4565 C.ar    1  UNL1        0.0479
     19 C          -3.8956  -17.7615   23.5517 C.ar    1  UNL1        0.0145
     20 C          -3.4349  -18.6174   22.5475 C.ar    1  UNL1        0.0051
     21 C          -4.2437  -18.9136   21.4369 C.ar    1  UNL1        0.0715
     22 C          -5.5030  -18.2992   21.3286 C.ar    1  UNL1        0.0051
     23 C          -5.9626  -17.4426   22.3329 C.ar    1  UNL1        0.0145
     24 C          -3.7271  -19.7976   20.3297 C.3     1  UNL1        0.4186
     25 F          -3.1884  -19.0082   19.3311 F       1  UNL1       -0.1659
     26 F          -4.7505  -20.5625   19.7973 F       1  UNL1       -0.1659
     27 F          -2.7491  -20.6545   20.8044 F       1  UNL1       -0.1659
     28 C         -10.5224  -10.0209   31.7678 C.3     1  UNL1        0.1535
     29 C         -10.7216   -8.6920   31.0794 C.2     1  UNL1        0.2443
     30 O         -11.6353   -8.5848   30.2168 O.2     1  UNL1       -0.2730
     31 N          -9.8383   -7.5878   31.3428 N.am    1  UNL1       -0.2825
     32 H          -8.9730   -7.7702   31.8989 H       1  UNL1        0.1549
     33 C          -9.9731   -6.2950   30.7306 C.ar    1  UNL1        0.0535
     34 C          -8.9312   -5.7266   29.9793 C.ar    1  UNL1        0.0353
     35 C          -9.1130   -4.4738   29.3884 C.ar    1  UNL1        0.1002
     36 N         -10.2950   -3.8173   29.5295 N.ar    1  UNL1       -0.2422
     37 C         -11.3261   -4.3519   30.2355 C.ar    1  UNL1        0.1002
     38 C         -11.1871   -5.6032   30.8402 C.ar    1  UNL1        0.0353
     39 C         -11.8143  -10.5085   32.4494 C.3     1  UNL1        0.0565
     40 C         -12.3455  -12.9020   33.3455 C.ar    1  UNL1        0.0292
     41 N         -11.7477  -13.8275   34.1354 N.ar    1  UNL1       -0.3567
     42 C         -10.6067  -13.2670   34.5688 C.ar    1  UNL1        0.0561
     43 C          -9.6402  -13.8509   35.3868 C.ar    1  UNL1        0.0169
     44 C          -8.4973  -13.0932   35.6995 C.ar    1  UNL1        0.0015
     45 C          -8.3475  -11.7836   35.1935 C.ar    1  UNL1        0.0001
     46 C          -9.3393  -11.2199   34.3716 C.ar    1  UNL1        0.0012
     47 C         -10.4624  -11.9953   34.0756 C.ar    1  UNL1        0.0127
     48 C         -11.5722  -11.7356   33.2901 C.ar    1  UNL1       -0.0072
     49 H         -12.0893  -14.7913   34.3484 H       1  UNL1        0.1656
     50 C         -13.9584  -14.6486   32.5758 C.3     1  UNL1        0.0062
     51 C         -13.6433  -13.1505   32.6136 C.3     1  UNL1        0.0378
     52 C         -13.5783  -12.5681   31.1987 C.3     1  UNL1        0.0062
@<TRIPOS>BOND
     1    50    51    1
     2    51    52    1
     3    51    40    1
     4    40    41   ar
     5    41    42   ar
     6    42    43   ar
     7    43    44   ar
     8    44    45   ar
     9    45    46   ar
    10    46    47   ar
    11    47    48   ar
    12    48    39    1
    13    39    28    1
    14    28     1    1
    15     1     2   am
    16     2     3    2
    17     2     5    1
    18     5     6   ar
    19     6     7   ar
    20     7     8   ar
    21     8    12    1
    22    12    13    1
    23    13    14    1
    24    14    15    1
    25    15    18    1
    26    18    19   ar
    27    19    20   ar
    28    20    21   ar
    29    21    24    1
    30    24    25    1
    31    24    26    1
    32    24    27    1
    33    21    22   ar
    34    22    23   ar
    35    15    16    1
    36    16    17    1
    37     8     9   ar
    38     9    10   ar
    39    10    11    1
    40    28    29    1
    41    29    30    2
    42    29    31   am
    43    31    33    1
    44    33    34   ar
    45    34    35   ar
    46    35    36   ar
    47    36    37   ar
    48    37    38   ar
    49    48    40   ar
    50    10     5   ar
    51    38    33   ar
    52    47    42   ar
    53    17    12    1
    54    23    18   ar
    55    41    49    1
    56     1     4    1
    57    31    32    1
