@<TRIPOS>MOLECULE
*****
 52 57 0 0 0
SMALL
GASTEIGER

@<TRIPOS>ATOM
      1 C         -63.3360  -50.1183  -24.9318 C.ar    1  UNL1        0.0502
      2 C         -64.3897  -50.9623  -25.3221 C.ar    1  UNL1        0.0148
      3 C         -64.6446  -52.1484  -24.6297 C.ar    1  UNL1        0.0080
      4 C         -63.8453  -52.5258  -23.5385 C.ar    1  UNL1        0.0808
      5 C         -62.7977  -51.6764  -23.1354 C.ar    1  UNL1        0.1457
      6 F         -62.0436  -51.9651  -22.0455 F       1  UNL1       -0.2040
      7 C         -62.5455  -50.4890  -23.8294 C.ar    1  UNL1        0.0443
      8 N         -62.7366  -46.4184  -27.0301 N.pl3   1  UNL1       -0.3041
      9 C         -62.7869  -46.4396  -25.5598 C.3     1  UNL1        0.1122
     10 C         -62.3423  -47.7945  -25.0004 C.3     1  UNL1        0.1122
     11 N         -63.0708  -48.8932  -25.6515 N.pl3   1  UNL1       -0.3040
     12 C         -63.4525  -48.7830  -27.0683 C.3     1  UNL1        0.1122
     13 C         -62.6625  -47.6806  -27.7800 C.3     1  UNL1        0.1122
     14 C         -62.5572  -42.6655  -29.0845 C.ar    1  UNL1       -0.0185
     15 C         -63.0205  -42.7535  -27.7564 C.ar    1  UNL1       -0.0031
     16 C         -63.0780  -43.9741  -27.0897 C.ar    1  UNL1        0.0142
     17 C         -62.6768  -45.1534  -27.7265 C.ar    1  UNL1        0.0479
     18 C         -62.2087  -45.0850  -29.0482 C.ar    1  UNL1        0.0181
     19 C         -62.1417  -43.8596  -29.7457 C.ar    1  UNL1        0.0687
     20 C         -61.6264  -43.8524  -31.1750 C.3     1  UNL1        0.4183
     21 F         -61.0184  -42.6524  -31.5035 F       1  UNL1       -0.1659
     22 F         -62.6782  -44.0467  -32.0524 F       1  UNL1       -0.1659
     23 F         -60.6903  -44.8578  -31.3398 F       1  UNL1       -0.1659
     24 C         -61.4987  -40.3707  -29.0735 C.3     1  UNL1        0.0047
     25 C         -62.5224  -41.2905  -29.7519 C.3     1  UNL1        0.0223
     26 C         -63.9153  -40.6473  -29.7678 C.3     1  UNL1        0.0047
     27 C         -64.1293  -53.7939  -22.8285 C.2     1  UNL1        0.2483
     28 O         -63.1683  -54.4854  -22.3924 O.2     1  UNL1       -0.2701
     29 N         -65.4812  -54.2213  -22.5946 N.am    1  UNL1       -0.2945
     30 H         -66.2407  -53.5133  -22.7032 H       1  UNL1        0.1501
     31 C         -65.7908  -55.4811  -21.9079 C.3     1  UNL1        0.1535
     32 C         -66.7184  -55.2368  -20.7450 C.2     1  UNL1        0.2443
     33 O         -66.3648  -55.5710  -19.5808 O.2     1  UNL1       -0.2730
     34 N         -67.9580  -54.5430  -20.9571 N.am    1  UNL1       -0.2825
     35 H         -68.0838  -54.0377  -21.8634 H       1  UNL1        0.1549
     36 C         -68.9797  -54.3975  -19.9564 C.ar    1  UNL1        0.0535
     37 C         -70.1306  -53.6535  -20.2499 C.ar    1  UNL1        0.0353
     38 C         -71.1360  -53.5267  -19.2885 C.ar    1  UNL1        0.1002
     39 N         -71.0053  -54.1362  -18.0807 N.ar    1  UNL1       -0.2422
     40 C         -69.9101  -54.8806  -17.7739 C.ar    1  UNL1        0.1002
     41 C         -68.8807  -55.0321  -18.7064 C.ar    1  UNL1        0.0353
     42 C         -66.3630  -56.5278  -22.8865 C.3     1  UNL1        0.0569
     43 C         -67.3558  -55.9589  -23.8648 C.ar    1  UNL1       -0.0017
     44 C         -67.0607  -55.2678  -25.0372 C.ar    1  UNL1        0.0681
     45 N         -68.1975  -54.9372  -25.6905 N.ar    1  UNL1       -0.3523
     46 C         -69.2079  -55.4126  -24.9421 C.ar    1  UNL1        0.0563
     47 C         -70.5730  -55.3222  -25.2113 C.ar    1  UNL1        0.0170
     48 C         -71.4649  -55.8983  -24.2882 C.ar    1  UNL1        0.0015
     49 C         -70.9781  -56.5423  -23.1293 C.ar    1  UNL1        0.0001
     50 C         -69.5954  -56.6167  -22.8827 C.ar    1  UNL1        0.0012
     51 C         -68.7347  -56.0409  -23.8183 C.ar    1  UNL1        0.0131
     52 H         -68.2708  -54.4217  -26.5956 H       1  UNL1        0.1660
@<TRIPOS>BOND
     1    24    25    1
     2    25    26    1
     3    25    14    1
     4    14    15   ar
     5    15    16   ar
     6    16    17   ar
     7    17     8    1
     8     8     9    1
     9     9    10    1
    10    10    11    1
    11    11     1    1
    12     1     2   ar
    13     2     3   ar
    14     3     4   ar
    15     4    27    1
    16    27    28    2
    17    27    29   am
    18    29    31    1
    19    31    42    1
    20    42    43    1
    21    43    44   ar
    22    44    45   ar
    23    45    46   ar
    24    46    47   ar
    25    47    48   ar
    26    48    49   ar
    27    49    50   ar
    28    50    51   ar
    29    31    32    1
    30    32    33    2
    31    32    34   am
    32    34    36    1
    33    36    37   ar
    34    37    38   ar
    35    38    39   ar
    36    39    40   ar
    37    40    41   ar
    38     4     5   ar
    39     5     6    1
    40     5     7   ar
    41    11    12    1
    42    12    13    1
    43    17    18   ar
    44    18    19   ar
    45    19    20    1
    46    20    21    1
    47    20    22    1
    48    20    23    1
    49    19    14   ar
    50    13     8    1
    51     7     1   ar
    52    51    43   ar
    53    41    36   ar
    54    51    46   ar
    55    29    30    1
    56    45    52    1
    57    34    35    1
@<TRIPOS>MOLECULE
*****
 52 57 0 0 0
SMALL
GASTEIGER

@<TRIPOS>ATOM
      1 C         -63.4780  -50.5554  -24.7661 C.ar    1  UNL1        0.0502
      2 C         -64.5863  -51.3668  -25.0628 C.ar    1  UNL1        0.0148
      3 C         -64.8239  -52.5383  -24.3398 C.ar    1  UNL1        0.0080
      4 C         -63.9531  -52.9333  -23.3113 C.ar    1  UNL1        0.0808
      5 C         -62.8498  -52.1161  -23.0014 C.ar    1  UNL1        0.1457
      6 F         -62.0214  -52.4210  -21.9716 F       1  UNL1       -0.2040
      7 C         -62.6150  -50.9432  -23.7257 C.ar    1  UNL1        0.0443
      8 N         -62.9239  -46.8911  -26.9380 N.pl3   1  UNL1       -0.3041
      9 C         -62.8108  -46.9102  -25.4712 C.3     1  UNL1        0.1122
     10 C         -62.3781  -48.2870  -24.9575 C.3     1  UNL1        0.1122
     11 N         -63.2311  -49.3456  -25.5174 N.pl3   1  UNL1       -0.3040
     12 C         -63.7622  -49.2148  -26.8834 C.3     1  UNL1        0.1122
     13 C         -62.9999  -48.1551  -27.6847 C.3     1  UNL1        0.1122
     14 C         -62.7719  -43.1583  -29.0309 C.ar    1  UNL1       -0.0185
     15 C         -61.6489  -43.6599  -28.3430 C.ar    1  UNL1       -0.0031
     16 C         -61.6996  -44.8737  -27.6634 C.ar    1  UNL1        0.0142
     17 C         -62.8760  -45.6306  -27.6437 C.ar    1  UNL1        0.0479
     18 C         -64.0040  -45.1489  -28.3265 C.ar    1  UNL1        0.0181
     19 C         -63.9777  -43.9210  -29.0222 C.ar    1  UNL1        0.0687
     20 C         -65.2324  -43.4542  -29.7410 C.3     1  UNL1        0.4183
     21 F         -65.1141  -43.5591  -31.1166 F       1  UNL1       -0.1659
     22 F         -65.4784  -42.1269  -29.4384 F       1  UNL1       -0.1659
     23 F         -66.3105  -44.2286  -29.3507 F       1  UNL1       -0.1659
     24 C         -62.0796  -42.0051  -31.1704 C.3     1  UNL1        0.0047
     25 C         -62.6412  -41.8180  -29.7548 C.3     1  UNL1        0.0223
     26 C         -61.7841  -40.8341  -28.9477 C.3     1  UNL1        0.0047
     27 C         -64.2210  -54.1855  -22.5677 C.2     1  UNL1        0.2483
     28 O         -63.2524  -54.9136  -22.2163 O.2     1  UNL1       -0.2701
     29 N         -65.5616  -54.5563  -22.2065 N.am    1  UNL1       -0.2945
     30 H         -66.2988  -53.8184  -22.2504 H       1  UNL1        0.1501
     31 C         -65.8567  -55.7993  -21.4837 C.3     1  UNL1        0.1535
     32 C         -66.8918  -55.5578  -20.4147 C.2     1  UNL1        0.2443
     33 O         -66.7559  -56.0914  -19.2794 O.2     1  UNL1       -0.2730
     34 N         -67.9759  -54.6498  -20.6661 N.am    1  UNL1       -0.2825
     35 H         -67.8997  -54.0191  -21.4960 H       1  UNL1        0.1549
     36 C         -69.0949  -54.4689  -19.7821 C.ar    1  UNL1        0.0535
     37 C         -70.1673  -53.6613  -20.1845 C.ar    1  UNL1        0.0353
     38 C         -71.2667  -53.4993  -19.3381 C.ar    1  UNL1        0.1002
     39 N         -71.3026  -54.1354  -18.1375 N.ar    1  UNL1       -0.2422
     40 C         -70.2870  -54.9408  -17.7281 C.ar    1  UNL1        0.1002
     41 C         -69.1683  -55.1292  -18.5437 C.ar    1  UNL1        0.0353
     42 C         -66.2841  -56.9229  -22.4509 C.3     1  UNL1        0.0569
     43 C         -67.6441  -56.7091  -23.0600 C.ar    1  UNL1       -0.0017
     44 C         -68.8656  -57.0995  -22.5171 C.ar    1  UNL1        0.0681
     45 N         -69.8845  -56.7106  -23.3165 N.ar    1  UNL1       -0.3523
     46 C         -69.3185  -56.0788  -24.3593 C.ar    1  UNL1        0.0563
     47 C         -69.9680  -55.4936  -25.4455 C.ar    1  UNL1        0.0170
     48 C         -69.1759  -54.8754  -26.4302 C.ar    1  UNL1        0.0015
     49 C         -67.7688  -54.8579  -26.3096 C.ar    1  UNL1        0.0001
     50 C         -67.1407  -55.4579  -25.2034 C.ar    1  UNL1        0.0012
     51 C         -67.9522  -56.0590  -24.2402 C.ar    1  UNL1        0.0131
     52 H         -70.9036  -56.8670  -23.1508 H       1  UNL1        0.1660
@<TRIPOS>BOND
     1    24    25    1
     2    25    26    1
     3    25    14    1
     4    14    15   ar
     5    15    16   ar
     6    16    17   ar
     7    17     8    1
     8     8     9    1
     9     9    10    1
    10    10    11    1
    11    11     1    1
    12     1     2   ar
    13     2     3   ar
    14     3     4   ar
    15     4    27    1
    16    27    28    2
    17    27    29   am
    18    29    31    1
    19    31    42    1
    20    42    43    1
    21    43    44   ar
    22    44    45   ar
    23    45    46   ar
    24    46    47   ar
    25    47    48   ar
    26    48    49   ar
    27    49    50   ar
    28    50    51   ar
    29    31    32    1
    30    32    33    2
    31    32    34   am
    32    34    36    1
    33    36    37   ar
    34    37    38   ar
    35    38    39   ar
    36    39    40   ar
    37    40    41   ar
    38     4     5   ar
    39     5     6    1
    40     5     7   ar
    41    11    12    1
    42    12    13    1
    43    17    18   ar
    44    18    19   ar
    45    19    20    1
    46    20    21    1
    47    20    22    1
    48    20    23    1
    49    19    14   ar
    50    13     8    1
    51     7     1   ar
    52    51    43   ar
    53    41    36   ar
    54    51    46   ar
    55    29    30    1
    56    45    52    1
    57    34    35    1
@<TRIPOS>MOLECULE
*****
 52 57 0 0 0
SMALL
GASTEIGER

@<TRIPOS>ATOM
      1 C         -63.2521  -50.1006  -24.6164 C.ar    1  UNL1        0.0502
      2 C         -64.3852  -50.8475  -24.9813 C.ar    1  UNL1        0.0148
      3 C         -64.6572  -52.0727  -24.3678 C.ar    1  UNL1        0.0080
      4 C         -63.7971  -52.5867  -23.3839 C.ar    1  UNL1        0.0808
      5 C         -62.6687  -51.8352  -23.0054 C.ar    1  UNL1        0.1457
      6 F         -61.8482  -52.2584  -22.0117 F       1  UNL1       -0.2040
      7 C         -62.3995  -50.6084  -23.6200 C.ar    1  UNL1        0.0443
      8 N         -62.5943  -46.2742  -26.4541 N.pl3   1  UNL1       -0.3041
      9 C         -62.5413  -46.4150  -24.9905 C.3     1  UNL1        0.1122
     10 C         -62.1356  -47.8326  -24.5753 C.3     1  UNL1        0.1122
     11 N         -62.9696  -48.8350  -25.2547 N.pl3   1  UNL1       -0.3040
     12 C         -63.4440  -48.5881  -26.6255 C.3     1  UNL1        0.1122
     13 C         -62.6452  -47.4718  -27.3052 C.3     1  UNL1        0.1122
     14 C         -62.3507  -42.3858  -28.2311 C.ar    1  UNL1       -0.0185
     15 C         -61.6654  -43.4878  -28.7807 C.ar    1  UNL1       -0.0031
     16 C         -61.7458  -44.7513  -28.2022 C.ar    1  UNL1        0.0142
     17 C         -62.5124  -44.9603  -27.0507 C.ar    1  UNL1        0.0479
     18 C         -63.2052  -43.8752  -26.4911 C.ar    1  UNL1        0.0181
     19 C         -63.1390  -42.5845  -27.0586 C.ar    1  UNL1        0.0687
     20 C         -63.9116  -41.4513  -26.4046 C.3     1  UNL1        0.4183
     21 F         -64.3154  -41.7702  -25.1190 F       1  UNL1       -0.1659
     22 F         -65.0454  -41.1696  -27.1456 F       1  UNL1       -0.1659
     23 F         -63.1131  -40.3241  -26.3279 F       1  UNL1       -0.1659
     24 C         -62.7644  -41.0773  -30.3532 C.3     1  UNL1        0.0047
     25 C         -62.2150  -41.0284  -28.9214 C.3     1  UNL1        0.0223
     26 C         -60.7597  -40.5424  -28.9061 C.3     1  UNL1        0.0047
     27 C         -64.1019  -53.8932  -22.7571 C.2     1  UNL1        0.2483
     28 O         -63.1520  -54.6493  -22.4138 O.2     1  UNL1       -0.2701
     29 N         -65.4590  -54.2882  -22.4980 N.am    1  UNL1       -0.2945
     30 H         -66.1942  -53.5474  -22.5223 H       1  UNL1        0.1501
     31 C         -65.7899  -55.5838  -21.8928 C.3     1  UNL1        0.1535
     32 C         -66.7063  -55.3979  -20.7103 C.2     1  UNL1        0.2443
     33 O         -66.3836  -55.8735  -19.5870 O.2     1  UNL1       -0.2730
     34 N         -67.8946  -54.6031  -20.8490 N.am    1  UNL1       -0.2825
     35 H         -67.9800  -53.9999  -21.6984 H       1  UNL1        0.1549
     36 C         -68.9105  -54.4922  -19.8381 C.ar    1  UNL1        0.0535
     37 C         -70.0645  -53.7413  -20.1005 C.ar    1  UNL1        0.0353
     38 C         -71.0643  -53.6477  -19.1295 C.ar    1  UNL1        0.1002
     39 N         -70.9252  -54.2957  -17.9428 N.ar    1  UNL1       -0.2422
     40 C         -69.8269  -55.0475  -17.6668 C.ar    1  UNL1        0.1002
     41 C         -68.8028  -55.1666  -18.6099 C.ar    1  UNL1        0.0353
     42 C         -66.3880  -56.5532  -22.9336 C.3     1  UNL1        0.0569
     43 C         -67.3478  -55.8951  -23.8885 C.ar    1  UNL1       -0.0017
     44 C         -67.0148  -55.1755  -25.0333 C.ar    1  UNL1        0.0681
     45 N         -68.1316  -54.7602  -25.6726 N.ar    1  UNL1       -0.3523
     46 C         -69.1669  -55.2102  -24.9427 C.ar    1  UNL1        0.0563
     47 C         -70.5248  -55.0375  -25.2075 C.ar    1  UNL1        0.0170
     48 C         -71.4473  -55.6010  -24.3070 C.ar    1  UNL1        0.0015
     49 C         -70.9970  -56.3144  -23.1742 C.ar    1  UNL1        0.0001
     50 C         -69.6205  -56.4713  -22.9315 C.ar    1  UNL1        0.0012
     51 C         -68.7292  -55.9058  -23.8444 C.ar    1  UNL1        0.0131
     52 H         -68.1762  -54.2068  -26.5570 H       1  UNL1        0.1660
@<TRIPOS>BOND
     1    24    25    1
     2    25    26    1
     3    25    14    1
     4    14    15   ar
     5    15    16   ar
     6    16    17   ar
     7    17     8    1
     8     8     9    1
     9     9    10    1
    10    10    11    1
    11    11     1    1
    12     1     2   ar
    13     2     3   ar
    14     3     4   ar
    15     4    27    1
    16    27    28    2
    17    27    29   am
    18    29    31    1
    19    31    42    1
    20    42    43    1
    21    43    44   ar
    22    44    45   ar
    23    45    46   ar
    24    46    47   ar
    25    47    48   ar
    26    48    49   ar
    27    49    50   ar
    28    50    51   ar
    29    31    32    1
    30    32    33    2
    31    32    34   am
    32    34    36    1
    33    36    37   ar
    34    37    38   ar
    35    38    39   ar
    36    39    40   ar
    37    40    41   ar
    38     4     5   ar
    39     5     6    1
    40     5     7   ar
    41    11    12    1
    42    12    13    1
    43    17    18   ar
    44    18    19   ar
    45    19    20    1
    46    20    21    1
    47    20    22    1
    48    20    23    1
    49    19    14   ar
    50    13     8    1
    51     7     1   ar
    52    51    43   ar
    53    41    36   ar
    54    51    46   ar
    55    29    30    1
    56    45    52    1
    57    34    35    1
@<TRIPOS>MOLECULE
*****
 52 57 0 0 0
SMALL
GASTEIGER

@<TRIPOS>ATOM
      1 C         -63.6328  -51.4932  -24.0025 C.ar    1  UNL1        0.0502
      2 C         -62.8188  -52.1862  -23.0903 C.ar    1  UNL1        0.0148
      3 C         -63.2961  -53.3218  -22.4315 C.ar    1  UNL1        0.0080
      4 C         -64.6021  -53.7849  -22.6590 C.ar    1  UNL1        0.0808
      5 C         -65.4159  -53.1021  -23.5825 C.ar    1  UNL1        0.1457
      6 F         -66.6588  -53.5527  -23.8859 F       1  UNL1       -0.2040
      7 C         -64.9352  -51.9665  -24.2417 C.ar    1  UNL1        0.0443
      8 N         -62.2506  -47.8821  -25.8736 N.pl3   1  UNL1       -0.3041
      9 C         -61.6104  -48.3742  -24.6436 C.3     1  UNL1        0.1122
     10 C         -61.7410  -49.8946  -24.5101 C.3     1  UNL1        0.1122
     11 N         -63.1392  -50.3161  -24.6807 N.pl3   1  UNL1       -0.3040
     12 C         -64.0157  -49.5917  -25.6146 C.3     1  UNL1        0.1122
     13 C         -63.2085  -48.7337  -26.5935 C.3     1  UNL1        0.1122
     14 C         -61.1275  -44.0674  -27.4621 C.ar    1  UNL1       -0.0185
     15 C         -61.9187  -44.1744  -26.3008 C.ar    1  UNL1       -0.0031
     16 C         -62.2828  -45.4151  -25.7854 C.ar    1  UNL1        0.0142
     17 C         -61.8716  -46.5959  -26.4130 C.ar    1  UNL1        0.0479
     18 C         -61.0797  -46.5093  -27.5688 C.ar    1  UNL1        0.0181
     19 C         -60.6981  -45.2632  -28.1112 C.ar    1  UNL1        0.0687
     20 C         -59.8405  -45.2368  -29.3652 C.3     1  UNL1        0.4183
     21 F         -60.5749  -44.9057  -30.4915 F       1  UNL1       -0.1659
     22 F         -59.2829  -46.4851  -29.5768 F       1  UNL1       -0.1659
     23 F         -58.8363  -44.2954  -29.2253 F       1  UNL1       -0.1659
     24 C         -60.1444  -41.8198  -26.8549 C.3     1  UNL1        0.0047
     25 C         -60.7673  -42.6708  -27.9694 C.3     1  UNL1        0.0223
     26 C         -61.9890  -41.9711  -28.5792 C.3     1  UNL1        0.0047
     27 C         -65.0878  -54.9844  -21.9392 C.2     1  UNL1        0.2483
     28 O         -64.3581  -56.0126  -21.8910 O.2     1  UNL1       -0.2701
     29 N         -66.3555  -54.9756  -21.2626 N.am    1  UNL1       -0.2945
     30 H         -66.7996  -54.0497  -21.0741 H       1  UNL1        0.1501
     31 C         -66.8680  -56.1553  -20.5555 C.3     1  UNL1        0.1535
     32 C         -67.5214  -55.7531  -19.2578 C.2     1  UNL1        0.2443
     33 O         -66.8555  -55.1239  -18.3900 O.2     1  UNL1       -0.2730
     34 N         -68.9204  -56.0077  -19.0566 N.am    1  UNL1       -0.2825
     35 H         -69.4931  -56.2654  -19.8923 H       1  UNL1        0.1549
     36 C         -69.6023  -55.8101  -17.8067 C.ar    1  UNL1        0.0535
     37 C         -70.7360  -54.9871  -17.7629 C.ar    1  UNL1        0.0353
     38 C         -71.4147  -54.8086  -16.5552 C.ar    1  UNL1        0.1002
     39 N         -70.9868  -55.4435  -15.4322 N.ar    1  UNL1       -0.2422
     40 C         -69.9027  -56.2634  -15.4473 C.ar    1  UNL1        0.1002
     41 C         -69.1945  -56.4685  -16.6341 C.ar    1  UNL1        0.0353
     42 C         -67.8242  -56.9734  -21.4483 C.3     1  UNL1        0.0569
     43 C         -68.6882  -56.1247  -22.3424 C.ar    1  UNL1       -0.0017
     44 C         -69.7807  -55.3551  -21.9509 C.ar    1  UNL1        0.0681
     45 N         -70.2966  -54.6923  -23.0106 N.ar    1  UNL1       -0.3523
     46 C         -69.5408  -55.0360  -24.0678 C.ar    1  UNL1        0.0563
     47 C         -69.6818  -54.5987  -25.3842 C.ar    1  UNL1        0.0170
     48 C         -68.7706  -55.0846  -26.3397 C.ar    1  UNL1        0.0015
     49 C         -67.7522  -55.9877  -25.9629 C.ar    1  UNL1        0.0001
     50 C         -67.6351  -56.4130  -24.6274 C.ar    1  UNL1        0.0012
     51 C         -68.5498  -55.9106  -23.7008 C.ar    1  UNL1        0.0131
     52 H         -71.1136  -54.0420  -23.0036 H       1  UNL1        0.1660
@<TRIPOS>BOND
     1    24    25    1
     2    25    26    1
     3    25    14    1
     4    14    15   ar
     5    15    16   ar
     6    16    17   ar
     7    17     8    1
     8     8     9    1
     9     9    10    1
    10    10    11    1
    11    11     1    1
    12     1     2   ar
    13     2     3   ar
    14     3     4   ar
    15     4    27    1
    16    27    28    2
    17    27    29   am
    18    29    31    1
    19    31    42    1
    20    42    43    1
    21    43    44   ar
    22    44    45   ar
    23    45    46   ar
    24    46    47   ar
    25    47    48   ar
    26    48    49   ar
    27    49    50   ar
    28    50    51   ar
    29    31    32    1
    30    32    33    2
    31    32    34   am
    32    34    36    1
    33    36    37   ar
    34    37    38   ar
    35    38    39   ar
    36    39    40   ar
    37    40    41   ar
    38     4     5   ar
    39     5     6    1
    40     5     7   ar
    41    11    12    1
    42    12    13    1
    43    17    18   ar
    44    18    19   ar
    45    19    20    1
    46    20    21    1
    47    20    22    1
    48    20    23    1
    49    19    14   ar
    50    13     8    1
    51     7     1   ar
    52    51    43   ar
    53    41    36   ar
    54    51    46   ar
    55    29    30    1
    56    45    52    1
    57    34    35    1
@<TRIPOS>MOLECULE
*****
 52 57 0 0 0
SMALL
GASTEIGER

@<TRIPOS>ATOM
      1 C         -61.7416  -44.0397  -22.0272 C.ar    1  UNL1        0.0502
      2 C         -60.6308  -44.7250  -21.5063 C.ar    1  UNL1        0.0148
      3 C         -60.3433  -46.0291  -21.9162 C.ar    1  UNL1        0.0080
      4 C         -61.1658  -46.6841  -22.8472 C.ar    1  UNL1        0.0808
      5 C         -62.2712  -45.9963  -23.3822 C.ar    1  UNL1        0.1457
      6 F         -63.0530  -46.5630  -24.3348 F       1  UNL1       -0.2040
      7 C         -62.5559  -44.6904  -22.9711 C.ar    1  UNL1        0.0443
      8 N         -62.7958  -40.1042  -20.6663 N.pl3   1  UNL1       -0.3041
      9 C         -62.2735  -41.1029  -19.7204 C.3     1  UNL1        0.1122
     10 C         -61.3706  -42.1234  -20.4202 C.3     1  UNL1        0.1122
     11 N         -62.0402  -42.6918  -21.5994 N.pl3   1  UNL1       -0.3040
     12 C         -62.9493  -41.8573  -22.4008 C.3     1  UNL1        0.1122
     13 C         -62.7470  -40.3668  -22.1119 C.3     1  UNL1        0.1122
     14 C         -64.2304  -36.3467  -19.1966 C.ar    1  UNL1       -0.0185
     15 C         -64.9389  -37.5431  -18.9671 C.ar    1  UNL1       -0.0031
     16 C         -64.4713  -38.7639  -19.4451 C.ar    1  UNL1        0.0142
     17 C         -63.2786  -38.8344  -20.1730 C.ar    1  UNL1        0.0479
     18 C         -62.5569  -37.6535  -20.4084 C.ar    1  UNL1        0.0181
     19 C         -63.0107  -36.4036  -19.9347 C.ar    1  UNL1        0.0687
     20 C         -62.1841  -35.1618  -20.2234 C.3     1  UNL1        0.4183
     21 F         -61.0122  -35.4613  -20.8977 F       1  UNL1       -0.1659
     22 F         -61.8408  -34.5418  -19.0353 F       1  UNL1       -0.1659
     23 F         -62.9120  -34.2882  -21.0116 F       1  UNL1       -0.1659
     24 C         -64.7865  -35.0394  -17.1066 C.3     1  UNL1        0.0047
     25 C         -64.8057  -35.0438  -18.6408 C.3     1  UNL1        0.0223
     26 C         -66.2219  -34.7917  -19.1747 C.3     1  UNL1        0.0047
     27 C         -60.8457  -48.0707  -23.2567 C.2     1  UNL1        0.2483
     28 O         -59.6447  -48.3865  -23.4797 O.2     1  UNL1       -0.2701
     29 N         -61.8773  -49.0657  -23.3604 N.am    1  UNL1       -0.2945
     30 H         -62.7945  -48.8647  -22.9041 H       1  UNL1        0.1501
     31 C         -61.5902  -50.4428  -23.7794 C.3     1  UNL1        0.1535
     32 C         -62.5258  -51.4096  -23.0994 C.2     1  UNL1        0.2443
     33 O         -62.5531  -51.4735  -21.8394 O.2     1  UNL1       -0.2730
     34 N         -63.4437  -52.1846  -23.8865 N.am    1  UNL1       -0.2825
     35 H         -63.5896  -51.9020  -24.8822 H       1  UNL1        0.1549
     36 C         -64.2624  -53.2416  -23.3586 C.ar    1  UNL1        0.0535
     37 C         -65.6132  -53.3154  -23.7252 C.ar    1  UNL1        0.0353
     38 C         -66.4079  -54.3528  -23.2318 C.ar    1  UNL1        0.1002
     39 N         -65.8690  -55.2949  -22.4137 N.ar    1  UNL1       -0.2422
     40 C         -64.5579  -55.2614  -22.0564 C.ar    1  UNL1        0.1002
     41 C         -63.7282  -54.2403  -22.5266 C.ar    1  UNL1        0.0353
     42 C         -61.6384  -50.5839  -25.3151 C.3     1  UNL1        0.0569
     43 C         -62.5405  -49.5816  -25.9845 C.ar    1  UNL1       -0.0017
     44 C         -63.9329  -49.5795  -25.9679 C.ar    1  UNL1        0.0681
     45 N         -64.4125  -48.5091  -26.6408 N.ar    1  UNL1       -0.3523
     46 C         -63.3365  -47.8353  -27.0826 C.ar    1  UNL1        0.0563
     47 C         -63.3257  -46.6542  -27.8236 C.ar    1  UNL1        0.0170
     48 C         -62.0771  -46.1123  -28.1792 C.ar    1  UNL1        0.0015
     49 C         -60.8811  -46.7567  -27.7925 C.ar    1  UNL1        0.0001
     50 C         -60.9226  -47.9483  -27.0465 C.ar    1  UNL1        0.0012
     51 C         -62.1752  -48.4595  -26.7041 C.ar    1  UNL1        0.0131
     52 H         -65.4162  -48.2579  -26.7817 H       1  UNL1        0.1660
@<TRIPOS>BOND
     1    24    25    1
     2    25    26    1
     3    25    14    1
     4    14    15   ar
     5    15    16   ar
     6    16    17   ar
     7    17     8    1
     8     8     9    1
     9     9    10    1
    10    10    11    1
    11    11     1    1
    12     1     2   ar
    13     2     3   ar
    14     3     4   ar
    15     4    27    1
    16    27    28    2
    17    27    29   am
    18    29    31    1
    19    31    42    1
    20    42    43    1
    21    43    44   ar
    22    44    45   ar
    23    45    46   ar
    24    46    47   ar
    25    47    48   ar
    26    48    49   ar
    27    49    50   ar
    28    50    51   ar
    29    31    32    1
    30    32    33    2
    31    32    34   am
    32    34    36    1
    33    36    37   ar
    34    37    38   ar
    35    38    39   ar
    36    39    40   ar
    37    40    41   ar
    38     4     5   ar
    39     5     6    1
    40     5     7   ar
    41    11    12    1
    42    12    13    1
    43    17    18   ar
    44    18    19   ar
    45    19    20    1
    46    20    21    1
    47    20    22    1
    48    20    23    1
    49    19    14   ar
    50    13     8    1
    51     7     1   ar
    52    51    43   ar
    53    41    36   ar
    54    51    46   ar
    55    29    30    1
    56    45    52    1
    57    34    35    1
