@<TRIPOS>MOLECULE
*****
 38 42 0 0 0
SMALL
GASTEIGER

@<TRIPOS>ATOM
      1 C          49.9469   11.7971  -21.8468 C.2     1  UNL1        0.2506
      2 O          51.0955   12.0149  -22.3191 O.2     1  UNL1       -0.2699
      3 N          48.8756   11.3863  -22.7197 N.am    1  UNL1       -0.2680
      4 C          47.9051   10.3837  -22.2674 C.3     1  UNL1        0.1412
      5 C          46.5870   11.0584  -21.8942 C.3     1  UNL1        0.2268
      6 O          46.3342   12.2032  -22.7065 O.3     1  UNL1       -0.4739
      7 C          46.3734   12.1592  -24.1017 C.ar    1  UNL1        0.1362
      8 C          45.1912   12.4135  -24.8031 C.ar    1  UNL1        0.0366
      9 C          45.1649   12.3527  -26.1960 C.ar    1  UNL1        0.0032
     10 C          46.3296   12.0462  -26.9144 C.ar    1  UNL1        0.0021
     11 C          47.5267   11.8247  -26.2134 C.ar    1  UNL1        0.0005
     12 C          47.5667   11.8713  -24.8085 C.ar    1  UNL1        0.0317
     13 C          48.9272   11.7614  -24.1401 C.3     1  UNL1        0.1236
     14 C          46.3032   11.9929  -28.3962 C.ar    1  UNL1        0.0290
     15 C          46.0194   13.1658  -29.1364 C.ar    1  UNL1        0.0208
     16 C          46.0106   13.0743  -30.5249 C.ar    1  UNL1        0.0758
     17 N          45.7756   14.0400  -31.4208 N.ar    1  UNL1       -0.3349
     18 C          45.8914   13.4135  -32.6163 C.ar    1  UNL1        0.1750
     19 N          46.1905   12.0919  -32.5094 N.ar    1  UNL1       -0.2241
     20 C          46.2601   11.9082  -31.1786 C.ar    1  UNL1        0.1008
     21 C          46.5380   10.7294  -30.4952 C.ar    1  UNL1        0.0502
     22 C          46.5582   10.7729  -29.0877 C.ar    1  UNL1        0.1417
     23 F          46.7903    9.6246  -28.4026 F       1  UNL1       -0.2041
     24 H          45.5536   15.0447  -31.2430 H       1  UNL1        0.1675
     25 C          49.0078   13.0536  -19.8685 C.ar    1  UNL1        0.0503
     26 C          48.7837   13.1099  -18.4775 C.ar    1  UNL1        0.0328
     27 C          49.2903   12.1193  -17.6273 C.ar    1  UNL1        0.1069
     28 C          50.0217   11.0548  -18.1608 C.ar    1  UNL1        0.0186
     29 C          50.2452   10.9773  -19.5347 C.ar    1  UNL1        0.0071
     30 C          49.7305   11.9561  -20.3966 C.ar    1  UNL1        0.0667
     31 S          48.9838   12.2073  -15.8955 S.O2    1  UNL1        0.0105
     32 C          50.5328   12.1910  -15.0226 C.3     1  UNL1        0.1816
     33 O          48.2383   13.4708  -15.5680 O.2     1  UNL1       -0.1686
     34 O          48.1509   11.0313  -15.4686 O.2     1  UNL1       -0.1686
     35 N          48.5441   14.1098  -20.7403 N.pl3   1  UNL1       -0.3325
     36 H          47.5180   14.2558  -20.8679 H       1  UNL1        0.1468
     37 C          48.7643   15.4658  -22.7743 C.3     1  UNL1        0.0229
     38 C          49.4179   15.0302  -21.4677 C.3     1  UNL1        0.0871
@<TRIPOS>BOND
     1    37    38    1
     2    38    35    1
     3    35    25    1
     4    25    26   ar
     5    26    27   ar
     6    27    31    1
     7    31    32    1
     8    31    33    2
     9    31    34    2
    10    27    28   ar
    11    28    29   ar
    12    29    30   ar
    13    30     1    1
    14     1     2    2
    15     1     3   am
    16     3     4    1
    17     4     5    1
    18     5     6    1
    19     6     7    1
    20     7     8   ar
    21     8     9   ar
    22     9    10   ar
    23    10    14    1
    24    14    15   ar
    25    15    16   ar
    26    16    17   ar
    27    17    18   ar
    28    18    19   ar
    29    19    20   ar
    30    20    21   ar
    31    21    22   ar
    32    22    23    1
    33    10    11   ar
    34    11    12   ar
    35    12    13    1
    36    30    25   ar
    37    13     3    1
    38    12     7   ar
    39    22    14   ar
    40    20    16   ar
    41    35    36    1
    42    17    24    1
@<TRIPOS>MOLECULE
*****
 38 42 0 0 0
SMALL
GASTEIGER

@<TRIPOS>ATOM
      1 C          49.7060   13.2304  -21.1804 C.2     1  UNL1        0.2506
      2 O          50.5791   14.0638  -21.5451 O.2     1  UNL1       -0.2699
      3 N          48.9150   12.5380  -22.1669 N.am    1  UNL1       -0.2680
      4 C          48.5737   11.1248  -21.9724 C.3     1  UNL1        0.1412
      5 C          47.1178   10.9911  -21.5314 C.3     1  UNL1        0.2268
      6 O          46.2993   12.0083  -22.1056 O.3     1  UNL1       -0.4739
      7 C          46.2735   12.2680  -23.4775 C.ar    1  UNL1        0.1362
      8 C          45.0759   12.0555  -24.1666 C.ar    1  UNL1        0.0366
      9 C          45.0010   12.2688  -25.5427 C.ar    1  UNL1        0.0032
     10 C          46.1257   12.7116  -26.2538 C.ar    1  UNL1        0.0021
     11 C          47.3205   12.9594  -25.5577 C.ar    1  UNL1        0.0005
     12 C          47.4149   12.7381  -24.1722 C.ar    1  UNL1        0.0317
     13 C          48.6973   13.1663  -23.4778 C.3     1  UNL1        0.1236
     14 C          46.0419   12.9491  -27.7152 C.ar    1  UNL1        0.0290
     15 C          46.2301   11.8717  -28.6140 C.ar    1  UNL1        0.0208
     16 C          46.1370   12.1359  -29.9771 C.ar    1  UNL1        0.0758
     17 N          46.2717   11.2846  -31.0006 N.ar    1  UNL1       -0.3349
     18 C          46.0867   12.0582  -32.0971 C.ar    1  UNL1        0.1750
     19 N          45.8403   13.3627  -31.8053 N.ar    1  UNL1       -0.2241
     20 C          45.8775   13.3801  -30.4607 C.ar    1  UNL1        0.1008
     21 C          45.6912   14.4704  -29.6179 C.ar    1  UNL1        0.0502
     22 C          45.7759   14.2517  -28.2293 C.ar    1  UNL1        0.1417
     23 F          45.6343   15.3104  -27.3920 F       1  UNL1       -0.2041
     24 H          46.4732   10.2606  -30.9657 H       1  UNL1        0.1675
     25 C          50.5923   12.5236  -18.9244 C.ar    1  UNL1        0.0503
     26 C          50.3652   12.3581  -17.5426 C.ar    1  UNL1        0.0328
     27 C          49.1030   12.6015  -16.9875 C.ar    1  UNL1        0.1069
     28 C          48.0533   13.0214  -17.8087 C.ar    1  UNL1        0.0186
     29 C          48.2613   13.1997  -19.1756 C.ar    1  UNL1        0.0071
     30 C          49.5247   12.9725  -19.7395 C.ar    1  UNL1        0.0667
     31 S          48.8511   12.3999  -15.2564 S.O2    1  UNL1        0.0105
     32 C          50.4276   12.2886  -14.4417 C.3     1  UNL1        0.1816
     33 O          48.0859   13.5715  -14.7075 O.2     1  UNL1       -0.1686
     34 O          48.0616   11.1464  -15.0025 O.2     1  UNL1       -0.1686
     35 N          51.8758   12.2082  -19.5107 N.pl3   1  UNL1       -0.3325
     36 H          51.9683   11.3634  -20.1177 H       1  UNL1        0.1468
     37 C          53.7143   13.3328  -20.6851 C.3     1  UNL1        0.0229
     38 C          53.0886   13.0064  -19.3337 C.3     1  UNL1        0.0871
@<TRIPOS>BOND
     1    37    38    1
     2    38    35    1
     3    35    25    1
     4    25    26   ar
     5    26    27   ar
     6    27    31    1
     7    31    32    1
     8    31    33    2
     9    31    34    2
    10    27    28   ar
    11    28    29   ar
    12    29    30   ar
    13    30     1    1
    14     1     2    2
    15     1     3   am
    16     3     4    1
    17     4     5    1
    18     5     6    1
    19     6     7    1
    20     7     8   ar
    21     8     9   ar
    22     9    10   ar
    23    10    14    1
    24    14    15   ar
    25    15    16   ar
    26    16    17   ar
    27    17    18   ar
    28    18    19   ar
    29    19    20   ar
    30    20    21   ar
    31    21    22   ar
    32    22    23    1
    33    10    11   ar
    34    11    12   ar
    35    12    13    1
    36    30    25   ar
    37    13     3    1
    38    12     7   ar
    39    22    14   ar
    40    20    16   ar
    41    35    36    1
    42    17    24    1
@<TRIPOS>MOLECULE
*****
 38 42 0 0 0
SMALL
GASTEIGER

@<TRIPOS>ATOM
      1 C          48.4340    9.7618  -21.3952 C.2     1  UNL1        0.2506
      2 O          47.8821    8.6283  -21.4116 O.2     1  UNL1       -0.2699
      3 N          48.9110   10.3481  -22.6229 N.am    1  UNL1       -0.2680
      4 C          48.7611   11.7889  -22.8538 C.3     1  UNL1        0.1412
      5 C          50.1001   12.4956  -22.6551 C.3     1  UNL1        0.2268
      6 O          51.1944   11.6661  -23.0411 O.3     1  UNL1       -0.4739
      7 C          51.2603   11.0395  -24.2874 C.ar    1  UNL1        0.1362
      8 C          52.2918   11.4067  -25.1565 C.ar    1  UNL1        0.0366
      9 C          52.3882   10.8361  -26.4253 C.ar    1  UNL1        0.0032
     10 C          51.4561    9.8753  -26.8432 C.ar    1  UNL1        0.0021
     11 C          50.4394    9.4792  -25.9585 C.ar    1  UNL1        0.0005
     12 C          50.3223   10.0536  -24.6803 C.ar    1  UNL1        0.0317
     13 C          49.2841    9.4665  -23.7383 C.3     1  UNL1        0.1236
     14 C          51.5662    9.2608  -28.1884 C.ar    1  UNL1        0.0290
     15 C          50.4984    8.4808  -28.6939 C.ar    1  UNL1        0.0208
     16 C          50.6392    7.9272  -29.9629 C.ar    1  UNL1        0.0758
     17 N          49.7706    7.1675  -30.6402 N.ar    1  UNL1       -0.3349
     18 C          50.4045    6.9067  -31.8086 C.ar    1  UNL1        0.1750
     19 N          51.6376    7.4722  -31.8947 N.ar    1  UNL1       -0.2241
     20 C          51.7566    8.1097  -30.7162 C.ar    1  UNL1        0.1008
     21 C          52.8334    8.8625  -30.2604 C.ar    1  UNL1        0.0502
     22 C          52.7367    9.4433  -28.9810 C.ar    1  UNL1        0.1417
     23 F          53.7924   10.1500  -28.5036 F       1  UNL1       -0.2041
     24 H          48.8229    6.8475  -30.3403 H       1  UNL1        0.1675
     25 C          47.4526   11.0780  -19.4770 C.ar    1  UNL1        0.0503
     26 C          47.6376   11.6854  -18.2180 C.ar    1  UNL1        0.0328
     27 C          48.9007   11.7189  -17.6148 C.ar    1  UNL1        0.1069
     28 C          49.9942   11.1373  -18.2620 C.ar    1  UNL1        0.0186
     29 C          49.8288   10.5238  -19.5028 C.ar    1  UNL1        0.0071
     30 C          48.5657   10.4720  -20.1093 C.ar    1  UNL1        0.0667
     31 S          49.1003   12.4721  -16.0357 S.O2    1  UNL1        0.0105
     32 C          50.8264   12.4969  -15.6099 C.3     1  UNL1        0.1816
     33 O          48.5722   13.8791  -16.0657 O.2     1  UNL1       -0.1686
     34 O          48.3363   11.6921  -15.0028 O.2     1  UNL1       -0.1686
     35 N          46.1641   11.1013  -20.1326 N.pl3   1  UNL1       -0.3325
     36 H          45.8670   10.2822  -20.7082 H       1  UNL1        0.1468
     37 C          44.0778   11.8482  -19.0774 C.3     1  UNL1        0.0229
     38 C          45.2052   12.2020  -20.0407 C.3     1  UNL1        0.0871
@<TRIPOS>BOND
     1    37    38    1
     2    38    35    1
     3    35    25    1
     4    25    26   ar
     5    26    27   ar
     6    27    31    1
     7    31    32    1
     8    31    33    2
     9    31    34    2
    10    27    28   ar
    11    28    29   ar
    12    29    30   ar
    13    30     1    1
    14     1     2    2
    15     1     3   am
    16     3     4    1
    17     4     5    1
    18     5     6    1
    19     6     7    1
    20     7     8   ar
    21     8     9   ar
    22     9    10   ar
    23    10    14    1
    24    14    15   ar
    25    15    16   ar
    26    16    17   ar
    27    17    18   ar
    28    18    19   ar
    29    19    20   ar
    30    20    21   ar
    31    21    22   ar
    32    22    23    1
    33    10    11   ar
    34    11    12   ar
    35    12    13    1
    36    30    25   ar
    37    13     3    1
    38    12     7   ar
    39    22    14   ar
    40    20    16   ar
    41    35    36    1
    42    17    24    1
