@<TRIPOS>MOLECULE
*****
 38 41 0 0 0
SMALL
GASTEIGER

@<TRIPOS>ATOM
      1 C         -27.2077   50.5789   -5.3624 C.ar    1  UNL1       -0.0156
      2 C         -26.1123   50.7641   -6.2303 C.ar    1  UNL1        0.0328
      3 C         -26.2688   51.2035   -7.5479 C.ar    1  UNL1        0.1409
      4 C         -27.5609   51.5237   -8.0087 C.ar    1  UNL1        0.0126
      5 C         -28.6595   51.3775   -7.1467 C.ar    1  UNL1        0.0023
      6 C         -28.5100   50.9142   -5.8265 C.ar    1  UNL1        0.0674
      7 C         -27.8039   52.0093   -9.4038 C.3     1  UNL1        0.0342
      8 C         -27.2397   51.0073  -10.4002 C.3     1  UNL1        0.0342
      9 C         -25.8074   51.3295  -10.7004 C.ar    1  UNL1        0.0128
     10 C         -25.4284   51.4450  -12.0498 C.ar    1  UNL1       -0.0012
     11 C         -24.1147   51.7349  -12.3984 C.ar    1  UNL1        0.0000
     12 C         -23.1572   51.9162  -11.4089 C.ar    1  UNL1        0.0076
     13 C         -23.5025   51.8152  -10.0526 C.ar    1  UNL1        0.0875
     14 C         -24.8343   51.5048   -9.6790 C.ar    1  UNL1        0.1455
     15 O         -25.0839   51.3231   -8.3016 O.3     1  UNL1       -0.4540
     16 C         -29.7435   50.7755   -4.9484 C.3     1  UNL1        0.4183
     17 F         -29.5382   49.8985   -3.8967 F       1  UNL1       -0.1659
     18 F         -30.0749   52.0077   -4.4140 F       1  UNL1       -0.1659
     19 F         -30.8036   50.2923   -5.6942 F       1  UNL1       -0.1659
     20 C         -22.4307   51.9955   -9.0464 C.2     1  UNL1        0.2490
     21 O         -22.5879   51.5025   -7.8957 O.2     1  UNL1       -0.2700
     22 N         -21.2054   52.6723   -9.3764 N.am    1  UNL1       -0.2986
     23 H         -21.0605   53.0212  -10.3508 H       1  UNL1        0.1500
     24 C         -20.1195   52.8617   -8.4094 C.3     1  UNL1        0.0944
     25 C         -18.9048   52.0261   -8.8325 C.3     1  UNL1        0.0262
     26 C         -19.8432   54.3457   -8.2369 C.ar    1  UNL1       -0.0045
     27 C         -19.0785   54.7564   -7.1321 C.ar    1  UNL1       -0.0025
     28 C         -18.7882   56.1071   -6.9244 C.ar    1  UNL1        0.0062
     29 C         -19.2546   57.0814   -7.8204 C.ar    1  UNL1        0.0754
     30 C         -20.0257   56.6773   -8.9229 C.ar    1  UNL1        0.0062
     31 C         -20.3326   55.3283   -9.1207 C.ar    1  UNL1       -0.0025
     32 C         -18.9529   58.5117   -7.5930 C.2     1  UNL1        0.3380
     33 O         -18.3940   58.8851   -6.5263 O.2     1  UNL1       -0.2451
     34 O         -19.2785   59.4599   -8.5594 O.3     1  UNL1       -0.4771
     35 H         -19.0694   60.4408   -8.4171 H       1  UNL1        0.2954
     36 C         -26.6685   48.5855   -3.8754 C.3     1  UNL1        0.0047
     37 C         -26.9424   50.0963   -3.9358 C.3     1  UNL1        0.0224
     38 C         -25.7928   50.8917   -3.3111 C.3     1  UNL1        0.0047
@<TRIPOS>BOND
     1    36    37    1
     2    37    38    1
     3    37     1    1
     4     1     2   ar
     5     2     3   ar
     6     3     4   ar
     7     4     5   ar
     8     5     6   ar
     9     6    16    1
    10    16    17    1
    11    16    18    1
    12    16    19    1
    13     4     7    1
    14     7     8    1
    15     8     9    1
    16     9    10   ar
    17    10    11   ar
    18    11    12   ar
    19    12    13   ar
    20    13    20    1
    21    20    21    2
    22    20    22   am
    23    22    24    1
    24    24    25    1
    25    24    26    1
    26    26    27   ar
    27    27    28   ar
    28    28    29   ar
    29    29    32    1
    30    32    33    2
    31    32    34    1
    32    29    30   ar
    33    30    31   ar
    34    13    14   ar
    35    14    15    1
    36     6     1   ar
    37    14     9   ar
    38    15     3    1
    39    31    26   ar
    40    22    23    1
    41    34    35    1
@<TRIPOS>MOLECULE
*****
 38 41 0 0 0
SMALL
GASTEIGER

@<TRIPOS>ATOM
      1 C         -30.1801   48.5480  -10.9545 C.ar    1  UNL1       -0.0156
      2 C         -30.0999   48.8493   -9.5796 C.ar    1  UNL1        0.0328
      3 C         -30.1451   47.8594   -8.5939 C.ar    1  UNL1        0.1409
      4 C         -30.2200   46.5094   -8.9892 C.ar    1  UNL1        0.0126
      5 C         -30.2664   46.1894  -10.3555 C.ar    1  UNL1        0.0023
      6 C         -30.2438   47.1834  -11.3512 C.ar    1  UNL1        0.0674
      7 C         -30.2623   45.3953   -7.9901 C.3     1  UNL1        0.0342
      8 C         -31.4197   45.6150   -7.0270 C.3     1  UNL1        0.0342
      9 C         -30.9697   46.4404   -5.8602 C.ar    1  UNL1        0.0128
     10 C         -31.2340   45.9515   -4.5682 C.ar    1  UNL1       -0.0012
     11 C         -30.8503   46.6702   -3.4423 C.ar    1  UNL1        0.0000
     12 C         -30.1956   47.8867   -3.5845 C.ar    1  UNL1        0.0076
     13 C         -29.9097   48.4003   -4.8585 C.ar    1  UNL1        0.0875
     14 C         -30.3075   47.6883   -6.0181 C.ar    1  UNL1        0.1455
     15 O         -30.0733   48.3138   -7.2617 O.3     1  UNL1       -0.4540
     16 C         -30.3013   46.7664  -12.8123 C.3     1  UNL1        0.4183
     17 F         -29.9951   47.8134  -13.6652 F       1  UNL1       -0.1659
     18 F         -29.3898   45.7517  -13.0426 F       1  UNL1       -0.1659
     19 F         -31.5744   46.3281  -13.1296 F       1  UNL1       -0.1659
     20 C         -29.2308   49.7139   -4.9431 C.2     1  UNL1        0.2490
     21 O         -29.7435   50.7027   -4.3505 O.2     1  UNL1       -0.2700
     22 N         -27.9819   49.8633   -5.6405 N.am    1  UNL1       -0.2986
     23 H         -27.5348   49.0241   -6.0741 H       1  UNL1        0.1500
     24 C         -27.2770   51.1454   -5.7376 C.3     1  UNL1        0.0944
     25 C         -26.3633   51.3218   -4.5181 C.3     1  UNL1        0.0262
     26 C         -26.5725   51.2398   -7.0804 C.ar    1  UNL1       -0.0045
     27 C         -25.3969   50.4938   -7.2692 C.ar    1  UNL1       -0.0025
     28 C         -24.7087   50.5371   -8.4842 C.ar    1  UNL1        0.0062
     29 C         -25.1823   51.3272   -9.5429 C.ar    1  UNL1        0.0754
     30 C         -26.3533   52.0808   -9.3574 C.ar    1  UNL1        0.0062
     31 C         -27.0317   52.0529   -8.1358 C.ar    1  UNL1       -0.0025
     32 C         -24.4466   51.3778  -10.8253 C.2     1  UNL1        0.3380
     33 O         -24.7171   50.5641  -11.7496 O.2     1  UNL1       -0.2451
     34 O         -23.4508   52.3303  -11.0261 O.3     1  UNL1       -0.4771
     35 H         -22.9462   52.3786  -11.9031 H       1  UNL1        0.2954
     36 C         -31.4978   50.3378  -12.1940 C.3     1  UNL1        0.0047
     37 C         -30.1209   49.6955  -11.9635 C.3     1  UNL1        0.0224
     38 C         -29.0914   50.7391  -11.5214 C.3     1  UNL1        0.0047
@<TRIPOS>BOND
     1    36    37    1
     2    37    38    1
     3    37     1    1
     4     1     2   ar
     5     2     3   ar
     6     3     4   ar
     7     4     5   ar
     8     5     6   ar
     9     6    16    1
    10    16    17    1
    11    16    18    1
    12    16    19    1
    13     4     7    1
    14     7     8    1
    15     8     9    1
    16     9    10   ar
    17    10    11   ar
    18    11    12   ar
    19    12    13   ar
    20    13    20    1
    21    20    21    2
    22    20    22   am
    23    22    24    1
    24    24    25    1
    25    24    26    1
    26    26    27   ar
    27    27    28   ar
    28    28    29   ar
    29    29    32    1
    30    32    33    2
    31    32    34    1
    32    29    30   ar
    33    30    31   ar
    34    13    14   ar
    35    14    15    1
    36     6     1   ar
    37    14     9   ar
    38    15     3    1
    39    31    26   ar
    40    22    23    1
    41    34    35    1
@<TRIPOS>MOLECULE
*****
 38 41 0 0 0
SMALL
GASTEIGER

@<TRIPOS>ATOM
      1 C         -27.9148   46.8573   -4.1775 C.ar    1  UNL1       -0.0156
      2 C         -28.0060   47.4165   -5.4685 C.ar    1  UNL1        0.0328
      3 C         -28.8869   46.9242   -6.4354 C.ar    1  UNL1        0.1409
      4 C         -29.7519   45.8669   -6.0917 C.ar    1  UNL1        0.0126
      5 C         -29.6983   45.3205   -4.7995 C.ar    1  UNL1        0.0023
      6 C         -28.7976   45.7975   -3.8293 C.ar    1  UNL1        0.0674
      7 C         -30.7283   45.2949   -7.0719 C.3     1  UNL1        0.0342
      8 C         -29.9915   44.8437   -8.3244 C.3     1  UNL1        0.0342
      9 C         -29.9016   45.9733   -9.3048 C.ar    1  UNL1        0.0128
     10 C         -30.3301   45.7353  -10.6231 C.ar    1  UNL1       -0.0012
     11 C         -30.2672   46.7370  -11.5842 C.ar    1  UNL1        0.0000
     12 C         -29.7781   47.9927  -11.2481 C.ar    1  UNL1        0.0076
     13 C         -29.3491   48.2665   -9.9405 C.ar    1  UNL1        0.0875
     14 C         -29.3915   47.2521   -8.9510 C.ar    1  UNL1        0.1455
     15 O         -28.8523   47.5725   -7.6865 O.3     1  UNL1       -0.4540
     16 C         -28.7899   45.1567   -2.4504 C.3     1  UNL1        0.4183
     17 F         -28.9407   46.0922   -1.4406 F       1  UNL1       -0.1659
     18 F         -29.8334   44.2541   -2.3512 F       1  UNL1       -0.1659
     19 F         -27.5889   44.5037   -2.2387 F       1  UNL1       -0.1659
     20 C         -28.8156   49.6176   -9.6517 C.2     1  UNL1        0.2490
     21 O         -28.6933   50.4390  -10.6015 O.2     1  UNL1       -0.2700
     22 N         -28.4882   50.0179   -8.3097 N.am    1  UNL1       -0.2986
     23 H         -28.6530   49.3505   -7.5225 H       1  UNL1        0.1500
     24 C         -27.9664   51.3492   -7.9848 C.3     1  UNL1        0.0944
     25 C         -28.2482   51.6644   -6.5103 C.3     1  UNL1        0.0262
     26 C         -26.5038   51.4358   -8.3866 C.ar    1  UNL1       -0.0045
     27 C         -26.1449   52.3367   -9.4033 C.ar    1  UNL1       -0.0025
     28 C         -24.8149   52.4632   -9.8115 C.ar    1  UNL1        0.0062
     29 C         -23.8090   51.6917   -9.2092 C.ar    1  UNL1        0.0754
     30 C         -24.1629   50.7841   -8.1971 C.ar    1  UNL1        0.0062
     31 C         -25.4959   50.6432   -7.8016 C.ar    1  UNL1       -0.0025
     32 C         -22.4027   51.8216   -9.6497 C.2     1  UNL1        0.3380
     33 O         -21.5438   52.3546   -8.8961 O.2     1  UNL1       -0.2451
     34 O         -22.0125   51.3498  -10.9004 O.3     1  UNL1       -0.4771
     35 H         -21.0507   51.4268  -11.2086 H       1  UNL1        0.2954
     36 C         -25.5456   46.7842   -3.2517 C.3     1  UNL1        0.0047
     37 C         -26.9232   47.4616   -3.1826 C.3     1  UNL1        0.0224
     38 C         -26.8073   48.9728   -3.3994 C.3     1  UNL1        0.0047
@<TRIPOS>BOND
     1    36    37    1
     2    37    38    1
     3    37     1    1
     4     1     2   ar
     5     2     3   ar
     6     3     4   ar
     7     4     5   ar
     8     5     6   ar
     9     6    16    1
    10    16    17    1
    11    16    18    1
    12    16    19    1
    13     4     7    1
    14     7     8    1
    15     8     9    1
    16     9    10   ar
    17    10    11   ar
    18    11    12   ar
    19    12    13   ar
    20    13    20    1
    21    20    21    2
    22    20    22   am
    23    22    24    1
    24    24    25    1
    25    24    26    1
    26    26    27   ar
    27    27    28   ar
    28    28    29   ar
    29    29    32    1
    30    32    33    2
    31    32    34    1
    32    29    30   ar
    33    30    31   ar
    34    13    14   ar
    35    14    15    1
    36     6     1   ar
    37    14     9   ar
    38    15     3    1
    39    31    26   ar
    40    22    23    1
    41    34    35    1
@<TRIPOS>MOLECULE
*****
 38 41 0 0 0
SMALL
GASTEIGER

@<TRIPOS>ATOM
      1 C         -30.1870   49.0092  -11.6662 C.ar    1  UNL1       -0.0156
      2 C         -29.9421   48.8827  -10.2836 C.ar    1  UNL1        0.0328
      3 C         -29.6558   47.6527   -9.6850 C.ar    1  UNL1        0.1409
      4 C         -29.5557   46.5074  -10.4991 C.ar    1  UNL1        0.0126
      5 C         -29.7631   46.6213  -11.8830 C.ar    1  UNL1        0.0023
      6 C         -30.0738   47.8533  -12.4875 C.ar    1  UNL1        0.0674
      7 C         -29.2426   45.1587   -9.9297 C.3     1  UNL1        0.0342
      8 C         -30.2517   44.8146   -8.8440 C.3     1  UNL1        0.0342
      9 C         -29.7724   45.3179   -7.5165 C.ar    1  UNL1        0.0128
     10 C         -29.7374   44.4101   -6.4428 C.ar    1  UNL1       -0.0012
     11 C         -29.3104   44.8128   -5.1832 C.ar    1  UNL1        0.0000
     12 C         -28.9095   46.1257   -4.9723 C.ar    1  UNL1        0.0076
     13 C         -28.9250   47.0556   -6.0230 C.ar    1  UNL1        0.0875
     14 C         -29.3722   46.6664   -7.3107 C.ar    1  UNL1        0.1455
     15 O         -29.4526   47.6792   -8.2905 O.3     1  UNL1       -0.4540
     16 C         -30.2902   47.9040  -13.9918 C.3     1  UNL1        0.4183
     17 F         -30.1267   46.6629  -14.5836 F       1  UNL1       -0.1659
     18 F         -31.5760   48.3365  -14.2623 F       1  UNL1       -0.1659
     19 F         -29.3780   48.7668  -14.5724 F       1  UNL1       -0.1659
     20 C         -28.5083   48.4459   -5.7280 C.2     1  UNL1        0.2490
     21 O         -28.6568   48.8896   -4.5563 O.2     1  UNL1       -0.2700
     22 N         -27.8960   49.2695   -6.7354 N.am    1  UNL1       -0.2986
     23 H         -27.7206   48.8703   -7.6852 H       1  UNL1        0.1500
     24 C         -27.4631   50.6466   -6.4777 C.3     1  UNL1        0.0944
     25 C         -27.0687   50.7924   -5.0025 C.3     1  UNL1        0.0262
     26 C         -26.3785   51.0343   -7.4684 C.ar    1  UNL1       -0.0045
     27 C         -26.7158   51.9059   -8.5175 C.ar    1  UNL1       -0.0025
     28 C         -25.7593   52.3011   -9.4559 C.ar    1  UNL1        0.0062
     29 C         -24.4386   51.8352   -9.3657 C.ar    1  UNL1        0.0754
     30 C         -24.0972   50.9578   -8.3230 C.ar    1  UNL1        0.0062
     31 C         -25.0582   50.5469   -7.3952 C.ar    1  UNL1       -0.0025
     32 C         -23.4300   52.2485  -10.3659 C.2     1  UNL1        0.3380
     33 O         -23.1514   53.4677  -10.5261 O.2     1  UNL1       -0.2451
     34 O         -22.7734   51.2928  -11.1369 O.3     1  UNL1       -0.4771
     35 H         -22.0757   51.5644  -11.8191 H       1  UNL1        0.2954
     36 C         -31.5831   51.1245  -11.4369 C.3     1  UNL1        0.0047
     37 C         -30.4911   50.3956  -12.2354 C.3     1  UNL1        0.0224
     38 C         -29.2105   51.2315  -12.3107 C.3     1  UNL1        0.0047
@<TRIPOS>BOND
     1    36    37    1
     2    37    38    1
     3    37     1    1
     4     1     2   ar
     5     2     3   ar
     6     3     4   ar
     7     4     5   ar
     8     5     6   ar
     9     6    16    1
    10    16    17    1
    11    16    18    1
    12    16    19    1
    13     4     7    1
    14     7     8    1
    15     8     9    1
    16     9    10   ar
    17    10    11   ar
    18    11    12   ar
    19    12    13   ar
    20    13    20    1
    21    20    21    2
    22    20    22   am
    23    22    24    1
    24    24    25    1
    25    24    26    1
    26    26    27   ar
    27    27    28   ar
    28    28    29   ar
    29    29    32    1
    30    32    33    2
    31    32    34    1
    32    29    30   ar
    33    30    31   ar
    34    13    14   ar
    35    14    15    1
    36     6     1   ar
    37    14     9   ar
    38    15     3    1
    39    31    26   ar
    40    22    23    1
    41    34    35    1
@<TRIPOS>MOLECULE
*****
 38 41 0 0 0
SMALL
GASTEIGER

@<TRIPOS>ATOM
      1 C         -27.7191   49.0138   -6.1244 C.ar    1  UNL1       -0.0156
      2 C         -28.1155   48.9355   -7.4750 C.ar    1  UNL1        0.0328
      3 C         -29.1520   48.1008   -7.9023 C.ar    1  UNL1        0.1409
      4 C         -29.8609   47.3516   -6.9428 C.ar    1  UNL1        0.0126
      5 C         -29.5015   47.4437   -5.5887 C.ar    1  UNL1        0.0023
      6 C         -28.4442   48.2652   -5.1561 C.ar    1  UNL1        0.0674
      7 C         -30.9886   46.4442   -7.3251 C.3     1  UNL1        0.0342
      8 C         -30.5104   45.4448   -8.3680 C.3     1  UNL1        0.0342
      9 C         -30.6974   46.0067   -9.7444 C.ar    1  UNL1        0.0128
     10 C         -31.3823   45.2204  -10.6882 C.ar    1  UNL1       -0.0012
     11 C         -31.5840   45.6782  -11.9847 C.ar    1  UNL1        0.0000
     12 C         -31.1085   46.9273  -12.3623 C.ar    1  UNL1        0.0076
     13 C         -30.4275   47.7407  -11.4441 C.ar    1  UNL1        0.0875
     14 C         -30.1990   47.2835  -10.1217 C.ar    1  UNL1        0.1455
     15 O         -29.4225   48.1142   -9.2854 O.3     1  UNL1       -0.4540
     16 C         -28.1056   48.3142   -3.6745 C.3     1  UNL1        0.4183
     17 F         -28.5352   49.4890   -3.0807 F       1  UNL1       -0.1659
     18 F         -28.7197   47.2603   -3.0221 F       1  UNL1       -0.1659
     19 F         -26.7358   48.2344   -3.4992 F       1  UNL1       -0.1659
     20 C         -29.9244   49.0517  -11.9151 C.2     1  UNL1        0.2490
     21 O         -30.2175   49.4320  -13.0818 O.2     1  UNL1       -0.2700
     22 N         -29.1588   49.9097  -11.0513 N.am    1  UNL1       -0.2986
     23 H         -28.9757   49.6119  -10.0664 H       1  UNL1        0.1500
     24 C         -28.6520   51.2172  -11.4799 C.3     1  UNL1        0.0944
     25 C         -29.6524   52.3101  -11.0829 C.3     1  UNL1        0.0262
     26 C         -27.2437   51.4183  -10.9464 C.ar    1  UNL1       -0.0045
     27 C         -26.1657   50.9644  -11.7249 C.ar    1  UNL1       -0.0025
     28 C         -24.8487   51.1260  -11.2879 C.ar    1  UNL1        0.0062
     29 C         -24.5774   51.7494  -10.0602 C.ar    1  UNL1        0.0754
     30 C         -25.6516   52.1988   -9.2742 C.ar    1  UNL1        0.0062
     31 C         -26.9701   52.0202   -9.7018 C.ar    1  UNL1       -0.0025
     32 C         -23.1821   51.9113   -9.5961 C.2     1  UNL1        0.3380
     33 O         -22.3088   52.4073  -10.3583 O.2     1  UNL1       -0.2451
     34 O         -22.8210   51.5224   -8.3087 O.3     1  UNL1       -0.4771
     35 H         -21.8702   51.6359   -7.9783 H       1  UNL1        0.2954
     36 C         -25.4138   49.8905   -6.7511 C.3     1  UNL1        0.0047
     37 C         -26.5752   49.9560   -5.7471 C.3     1  UNL1        0.0224
     38 C         -27.0947   51.3883   -5.5957 C.3     1  UNL1        0.0047
@<TRIPOS>BOND
     1    36    37    1
     2    37    38    1
     3    37     1    1
     4     1     2   ar
     5     2     3   ar
     6     3     4   ar
     7     4     5   ar
     8     5     6   ar
     9     6    16    1
    10    16    17    1
    11    16    18    1
    12    16    19    1
    13     4     7    1
    14     7     8    1
    15     8     9    1
    16     9    10   ar
    17    10    11   ar
    18    11    12   ar
    19    12    13   ar
    20    13    20    1
    21    20    21    2
    22    20    22   am
    23    22    24    1
    24    24    25    1
    25    24    26    1
    26    26    27   ar
    27    27    28   ar
    28    28    29   ar
    29    29    32    1
    30    32    33    2
    31    32    34    1
    32    29    30   ar
    33    30    31   ar
    34    13    14   ar
    35    14    15    1
    36     6     1   ar
    37    14     9   ar
    38    15     3    1
    39    31    26   ar
    40    22    23    1
    41    34    35    1
@<TRIPOS>MOLECULE
*****
 38 41 0 0 0
SMALL
GASTEIGER

@<TRIPOS>ATOM
      1 C         -20.7414   52.3856   -8.9318 C.ar    1  UNL1       -0.0156
      2 C         -21.9861   51.9968   -8.3961 C.ar    1  UNL1        0.0328
      3 C         -23.0692   51.6408   -9.2046 C.ar    1  UNL1        0.1409
      4 C         -22.8955   51.6182  -10.6024 C.ar    1  UNL1        0.0126
      5 C         -21.6521   51.9697  -11.1515 C.ar    1  UNL1        0.0023
      6 C         -20.5652   52.3505  -10.3429 C.ar    1  UNL1        0.0674
      7 C         -24.0072   51.2379  -11.5302 C.3     1  UNL1        0.0342
      8 C         -25.2157   52.1256  -11.2720 C.3     1  UNL1        0.0342
      9 C         -26.0893   51.5139  -10.2194 C.ar    1  UNL1        0.0128
     10 C         -27.4573   51.3607  -10.5079 C.ar    1  UNL1       -0.0012
     11 C         -28.3246   50.8073   -9.5736 C.ar    1  UNL1        0.0000
     12 C         -27.8437   50.3959   -8.3373 C.ar    1  UNL1        0.0076
     13 C         -26.4834   50.5275   -8.0194 C.ar    1  UNL1        0.0875
     14 C         -25.5870   51.1040   -8.9543 C.ar    1  UNL1        0.1455
     15 O         -24.2551   51.2934   -8.5269 O.3     1  UNL1       -0.4540
     16 C         -19.2477   52.7231  -11.0044 C.3     1  UNL1        0.4183
     17 F         -18.1599   52.1845  -10.3381 F       1  UNL1       -0.1659
     18 F         -19.2280   52.2464  -12.3028 F       1  UNL1       -0.1659
     19 F         -19.0939   54.0978  -11.0118 F       1  UNL1       -0.1659
     20 C         -26.0375   50.0923   -6.6758 C.2     1  UNL1        0.2490
     21 O         -25.4230   48.9960   -6.5646 O.2     1  UNL1       -0.2700
     22 N         -26.2477   50.9183   -5.5174 N.am    1  UNL1       -0.2986
     23 H         -26.7017   51.8527   -5.6314 H       1  UNL1        0.1500
     24 C         -25.8125   50.5244   -4.1737 C.3     1  UNL1        0.0944
     25 C         -25.5979   51.7781   -3.3163 C.3     1  UNL1        0.0262
     26 C         -26.7916   49.5169   -3.5953 C.ar    1  UNL1       -0.0045
     27 C         -26.3081   48.5709   -2.6758 C.ar    1  UNL1       -0.0025
     28 C         -27.1625   47.6231   -2.1074 C.ar    1  UNL1        0.0062
     29 C         -28.5248   47.6002   -2.4436 C.ar    1  UNL1        0.0754
     30 C         -29.0125   48.5391   -3.3678 C.ar    1  UNL1        0.0062
     31 C         -28.1546   49.4753   -3.9514 C.ar    1  UNL1       -0.0025
     32 C         -29.4254   46.5897   -1.8466 C.2     1  UNL1        0.3380
     33 O         -30.4914   46.2582   -2.4326 O.2     1  UNL1       -0.2451
     34 O         -29.1004   45.9897   -0.6327 O.3     1  UNL1       -0.4771
     35 H         -29.7060   45.2912   -0.2190 H       1  UNL1        0.2954
     36 C         -19.8535   54.1107   -7.2851 C.3     1  UNL1        0.0047
     37 C         -19.6110   52.7573   -7.9713 C.3     1  UNL1        0.0224
     38 C         -19.4026   51.6446   -6.9403 C.3     1  UNL1        0.0047
@<TRIPOS>BOND
     1    36    37    1
     2    37    38    1
     3    37     1    1
     4     1     2   ar
     5     2     3   ar
     6     3     4   ar
     7     4     5   ar
     8     5     6   ar
     9     6    16    1
    10    16    17    1
    11    16    18    1
    12    16    19    1
    13     4     7    1
    14     7     8    1
    15     8     9    1
    16     9    10   ar
    17    10    11   ar
    18    11    12   ar
    19    12    13   ar
    20    13    20    1
    21    20    21    2
    22    20    22   am
    23    22    24    1
    24    24    25    1
    25    24    26    1
    26    26    27   ar
    27    27    28   ar
    28    28    29   ar
    29    29    32    1
    30    32    33    2
    31    32    34    1
    32    29    30   ar
    33    30    31   ar
    34    13    14   ar
    35    14    15    1
    36     6     1   ar
    37    14     9   ar
    38    15     3    1
    39    31    26   ar
    40    22    23    1
    41    34    35    1
