@<TRIPOS>MOLECULE
*****
 49 55 0 0 0
SMALL
GASTEIGER

@<TRIPOS>ATOM
      1 C          59.4702   83.4890   13.4576 C.ar    1  UNL1        0.0481
      2 C          60.1193   82.2444   13.4655 C.ar    1  UNL1        0.0176
      3 C          59.6241   81.1844   12.7015 C.ar    1  UNL1        0.0382
      4 C          58.4827   81.3487   11.9091 C.ar    1  UNL1        0.1388
      5 C          57.8154   82.5869   11.9187 C.ar    1  UNL1        0.0382
      6 C          58.3048   83.6446   12.6903 C.ar    1  UNL1        0.0176
      7 N          61.7116   86.6969   14.6306 N.pl3   1  UNL1       -0.3041
      8 C          62.2123   85.3461   14.9332 C.3     1  UNL1        0.1122
      9 C          61.0621   84.3724   15.2111 C.3     1  UNL1        0.1122
     10 N          59.9812   84.5864   14.2384 N.pl3   1  UNL1       -0.3041
     11 C          59.4548   85.9439   14.0205 C.3     1  UNL1        0.1122
     12 C          60.2791   86.9914   14.7776 C.3     1  UNL1        0.1122
     13 C          64.4267   89.6231   13.1325 C.ar    1  UNL1        0.0699
     14 C          64.3119   89.3966   14.5144 C.ar    1  UNL1        0.0190
     15 C          63.4218   88.4376   15.0057 C.ar    1  UNL1        0.0160
     16 C          62.6198   87.6945   14.1255 C.ar    1  UNL1        0.0480
     17 C          62.7313   87.9211   12.7444 C.ar    1  UNL1        0.0160
     18 C          63.6230   88.8783   12.2525 C.ar    1  UNL1        0.0190
     19 N          66.4955   91.9872   11.3131 N.ar    1  UNL1       -0.2024
     20 N          66.9505   92.1688   12.5438 N.ar    1  UNL1       -0.1442
     21 C          66.2491   91.3315   13.3386 C.ar    1  UNL1        0.2073
     22 N          65.3440   90.6156   12.6333 N.ar    1  UNL1       -0.2398
     23 C          65.5315   91.0472   11.3703 C.ar    1  UNL1        0.3522
     24 O          64.9122   90.6034   10.3659 O.2     1  UNL1       -0.2444
     25 C          67.0135   92.6991   10.1388 C.3     1  UNL1        0.1099
     26 C          65.9823   93.7219    9.6426 C.3     1  UNL1        0.0265
     27 C          68.8466   91.1699    9.2224 C.3     1  UNL1        0.0021
     28 C          67.4211   91.6922    9.0429 C.3     1  UNL1        0.0245
     29 O          58.0479   80.2559   11.1444 O.3     1  UNL1       -0.4727
     30 C          58.2636   80.0721    9.7429 C.3     1  UNL1        0.2374
     31 C          58.6219   81.3944    9.0432 C.3     1  UNL1        0.1909
     32 C          58.9727   81.2100    7.5834 C.3     1  UNL1        0.1783
     33 O          60.2984   81.6160    7.4505 O.3     1  UNL1       -0.3282
     34 C          60.5612   82.4217    8.5784 C.3     1  UNL1        0.2081
     35 O          59.7324   81.9951    9.6431 O.3     1  UNL1       -0.3269
     36 C          60.2924   83.8936    8.2189 C.ar    1  UNL1        0.0390
     37 C          58.9979   84.4354    8.3818 C.ar    1  UNL1        0.0021
     38 C          58.7369   85.7746    8.0887 C.ar    1  UNL1        0.0113
     39 C          59.7583   86.6036    7.6285 C.ar    1  UNL1        0.0585
     40 CL         59.4258   88.2866    7.2628 Cl      1  UNL1       -0.0822
     41 C          61.0453   86.0926    7.4598 C.ar    1  UNL1        0.0226
     42 C          61.3236   84.7512    7.7500 C.ar    1  UNL1        0.0590
     43 CL         62.9810   84.2069    7.5023 Cl      1  UNL1       -0.0824
     44 C          62.0399   82.2021    8.9951 C.3     1  UNL1        0.0609
     45 C          62.3009   82.1143   10.5194 C.3     1  UNL1        0.0052
     46 C          62.7239   83.4613   11.0926 C.3     1  UNL1        0.0002
     47 C          63.4642   83.1299   12.3767 C.3     1  UNL1        0.0000
     48 C          64.0567   81.7374   12.1796 C.3     1  UNL1        0.0000
     49 C          63.4258   81.1590   10.9148 C.3     1  UNL1        0.0002
@<TRIPOS>BOND
     1    27    28    1
     2    28    25    1
     3    25    26    1
     4    25    19    1
     5    19    20   ar
     6    20    21   ar
     7    21    22   ar
     8    22    13    1
     9    13    14   ar
    10    14    15   ar
    11    15    16   ar
    12    16     7    1
    13     7     8    1
    14     8     9    1
    15     9    10    1
    16    10     1    1
    17     1     2   ar
    18     2     3   ar
    19     3     4   ar
    20     4    29    1
    21    29    30    1
    22    30    31    1
    23    31    32    1
    24    32    33    1
    25    33    34    1
    26    34    44    1
    27    44    45    1
    28    45    46    1
    29    46    47    1
    30    47    48    1
    31    48    49    1
    32    34    36    1
    33    36    37   ar
    34    37    38   ar
    35    38    39   ar
    36    39    40    1
    37    39    41   ar
    38    41    42   ar
    39    42    43    1
    40    34    35    1
    41     4     5   ar
    42     5     6   ar
    43    10    11    1
    44    11    12    1
    45    16    17   ar
    46    17    18   ar
    47    22    23   ar
    48    23    24    2
    49    23    19   ar
    50    18    13   ar
    51    12     7    1
    52     6     1   ar
    53    35    31    1
    54    49    45    1
    55    42    36   ar
@<TRIPOS>MOLECULE
*****
 49 55 0 0 0
SMALL
GASTEIGER

@<TRIPOS>ATOM
      1 C          61.1725   85.1936    8.5845 C.ar    1  UNL1        0.0481
      2 C          60.6749   83.9492    9.0017 C.ar    1  UNL1        0.0176
      3 C          61.5503   82.9000    9.2938 C.ar    1  UNL1        0.0382
      4 C          62.9343   83.0752    9.1866 C.ar    1  UNL1        0.1388
      5 C          63.4352   84.3130    8.7442 C.ar    1  UNL1        0.0382
      6 C          62.5594   85.3597    8.4425 C.ar    1  UNL1        0.0176
      7 N          59.5732   88.5453    6.8818 N.pl3   1  UNL1       -0.3041
      8 C          60.5037   88.7105    8.0104 C.3     1  UNL1        0.1122
      9 C          60.3806   87.5560    9.0105 C.3     1  UNL1        0.1122
     10 N          60.2739   86.2800    8.2888 N.pl3   1  UNL1       -0.3041
     11 C          59.2765   86.1302    7.2164 C.3     1  UNL1        0.1122
     12 C          58.5809   87.4615    6.9101 C.3     1  UNL1        0.1122
     13 C          59.9164   91.0563    3.4532 C.ar    1  UNL1        0.0699
     14 C          61.0132   90.2973    3.8951 C.ar    1  UNL1        0.0190
     15 C          60.9009   89.4743    5.0191 C.ar    1  UNL1        0.0160
     16 C          59.6933   89.4032    5.7309 C.ar    1  UNL1        0.0480
     17 C          58.5969   90.1629    5.2923 C.ar    1  UNL1        0.0160
     18 C          58.7079   90.9841    4.1669 C.ar    1  UNL1        0.0190
     19 N          60.0888   92.6784    0.2099 N.ar    1  UNL1       -0.2024
     20 N          60.4037   93.6925    1.0017 N.ar    1  UNL1       -0.1442
     21 C          60.3749   93.2151    2.2650 C.ar    1  UNL1        0.2073
     22 N          60.0403   91.9051    2.2955 N.ar    1  UNL1       -0.2398
     23 C          59.8756   91.6022    0.9926 C.ar    1  UNL1        0.3522
     24 O          59.5950   90.4526    0.5579 O.2     1  UNL1       -0.2444
     25 C          60.0271   92.7746   -1.2533 C.3     1  UNL1        0.1099
     26 C          61.4257   93.0433   -1.8254 C.3     1  UNL1        0.0265
     27 C          57.5693   93.4795   -1.2843 C.3     1  UNL1        0.0021
     28 C          59.0011   93.8479   -1.6733 C.3     1  UNL1        0.0245
     29 O          63.7636   81.9933    9.5176 O.3     1  UNL1       -0.4727
     30 C          64.1003   81.5665   10.8402 C.3     1  UNL1        0.2374
     31 C          64.0455   82.7295   11.8455 C.3     1  UNL1        0.1909
     32 C          64.4757   82.3231   13.2376 C.3     1  UNL1        0.1783
     33 O          63.3649   82.5131   14.0561 O.3     1  UNL1       -0.3282
     34 C          62.5246   83.4009   13.3517 C.3     1  UNL1        0.2081
     35 O          62.7457   83.2297   11.9645 O.3     1  UNL1       -0.3269
     36 C          62.8349   84.8427   13.7911 C.ar    1  UNL1        0.0390
     37 C          63.7985   85.0829   14.7959 C.ar    1  UNL1        0.0021
     38 C          64.1165   86.3831   15.1910 C.ar    1  UNL1        0.0113
     39 C          63.4836   87.4718   14.5942 C.ar    1  UNL1        0.0585
     40 CL         63.8875   89.1043   15.0930 Cl      1  UNL1       -0.0822
     41 C          62.5287   87.2610   13.5992 C.ar    1  UNL1        0.0226
     42 C          62.1990   85.9626   13.1910 C.ar    1  UNL1        0.0590
     43 CL         60.9807   85.8070   11.9278 Cl      1  UNL1       -0.0824
     44 C          61.0522   83.0200   13.6603 C.3     1  UNL1        0.0609
     45 C          60.3831   82.0559   12.6493 C.3     1  UNL1        0.0052
     46 C          58.9465   82.4669   12.3517 C.3     1  UNL1        0.0002
     47 C          58.2698   81.2039   11.8480 C.3     1  UNL1        0.0000
     48 C          59.0120   80.0368   12.4931 C.3     1  UNL1        0.0000
     49 C          60.2765   80.6095   13.1298 C.3     1  UNL1        0.0002
@<TRIPOS>BOND
     1    27    28    1
     2    28    25    1
     3    25    26    1
     4    25    19    1
     5    19    20   ar
     6    20    21   ar
     7    21    22   ar
     8    22    13    1
     9    13    14   ar
    10    14    15   ar
    11    15    16   ar
    12    16     7    1
    13     7     8    1
    14     8     9    1
    15     9    10    1
    16    10     1    1
    17     1     2   ar
    18     2     3   ar
    19     3     4   ar
    20     4    29    1
    21    29    30    1
    22    30    31    1
    23    31    32    1
    24    32    33    1
    25    33    34    1
    26    34    44    1
    27    44    45    1
    28    45    46    1
    29    46    47    1
    30    47    48    1
    31    48    49    1
    32    34    36    1
    33    36    37   ar
    34    37    38   ar
    35    38    39   ar
    36    39    40    1
    37    39    41   ar
    38    41    42   ar
    39    42    43    1
    40    34    35    1
    41     4     5   ar
    42     5     6   ar
    43    10    11    1
    44    11    12    1
    45    16    17   ar
    46    17    18   ar
    47    22    23   ar
    48    23    24    2
    49    23    19   ar
    50    18    13   ar
    51    12     7    1
    52     6     1   ar
    53    35    31    1
    54    49    45    1
    55    42    36   ar
@<TRIPOS>MOLECULE
*****
 49 55 0 0 0
SMALL
GASTEIGER

@<TRIPOS>ATOM
      1 C          59.2993   83.3887    8.1790 C.ar    1  UNL1        0.0481
      2 C          58.1272   83.1863    8.9244 C.ar    1  UNL1        0.0176
      3 C          57.6093   81.8992    9.0911 C.ar    1  UNL1        0.0382
      4 C          58.2548   80.7924    8.5289 C.ar    1  UNL1        0.1388
      5 C          59.4152   80.9946    7.7600 C.ar    1  UNL1        0.0382
      6 C          59.9282   82.2829    7.5849 C.ar    1  UNL1        0.0176
      7 N          61.0850   86.9754    8.9773 N.pl3   1  UNL1       -0.3041
      8 C          59.6366   86.8488    9.2081 C.3     1  UNL1        0.1122
      9 C          58.9900   85.8973    8.1958 C.3     1  UNL1        0.1122
     10 N          59.8404   84.7130    8.0103 N.pl3   1  UNL1       -0.3041
     11 C          61.2704   84.8831    7.7044 C.3     1  UNL1        0.1122
     12 C          61.6890   86.3553    7.7895 C.3     1  UNL1        0.1122
     13 C          63.5395   88.9345   11.8610 C.ar    1  UNL1        0.0699
     14 C          62.8029   87.7900   12.2097 C.ar    1  UNL1        0.0190
     15 C          61.9981   87.1477   11.2647 C.ar    1  UNL1        0.0160
     16 C          61.9042   87.6444    9.9552 C.ar    1  UNL1        0.0480
     17 C          62.6375   88.7896    9.6056 C.ar    1  UNL1        0.0160
     18 C          63.4444   89.4307   10.5496 C.ar    1  UNL1        0.0190
     19 N          65.9855   90.7406   13.8445 N.ar    1  UNL1       -0.2024
     20 N          65.1503   90.3475   14.7945 N.ar    1  UNL1       -0.1442
     21 C          64.1711   89.6499   14.1787 C.ar    1  UNL1        0.2073
     22 N          64.3645   89.5934   12.8414 N.ar    1  UNL1       -0.2398
     23 C          65.5115   90.2801   12.6700 C.ar    1  UNL1        0.3522
     24 O          66.0877   90.4401   11.5602 O.2     1  UNL1       -0.2444
     25 C          67.2052   91.5158   14.1005 C.3     1  UNL1        0.1099
     26 C          68.4090   90.8475   13.4224 C.3     1  UNL1        0.0265
     27 C          68.7689   92.3111   15.9610 C.3     1  UNL1        0.0021
     28 C          67.4099   91.7003   15.6187 C.3     1  UNL1        0.0245
     29 O          57.7013   79.5228    8.7517 O.3     1  UNL1       -0.4727
     30 C          57.5890   78.8653   10.0166 C.3     1  UNL1        0.2374
     31 C          58.7695   79.2054   10.9424 C.3     1  UNL1        0.1909
     32 C          58.6419   78.5759   12.3120 C.3     1  UNL1        0.1783
     33 O          58.5639   79.6321   13.2166 O.3     1  UNL1       -0.3282
     34 C          59.0887   80.7512   12.5364 C.3     1  UNL1        0.2081
     35 O          58.8643   80.5846   11.1492 O.3     1  UNL1       -0.3269
     36 C          60.5912   80.8696   12.8471 C.ar    1  UNL1        0.0390
     37 C          61.1056   80.3500   14.0559 C.ar    1  UNL1        0.0021
     38 C          62.4687   80.4210   14.3467 C.ar    1  UNL1        0.0113
     39 C          63.3491   81.0094   13.4408 C.ar    1  UNL1        0.0585
     40 CL         65.0618   81.0952   13.8099 Cl      1  UNL1       -0.0822
     41 C          62.8659   81.5295   12.2398 C.ar    1  UNL1        0.0226
     42 C          61.5011   81.4654   11.9329 C.ar    1  UNL1        0.0590
     43 CL         60.9955   82.1516   10.3909 Cl      1  UNL1       -0.0824
     44 C          58.3128   82.0102   13.0070 C.3     1  UNL1        0.0609
     45 C          58.9501   83.3704   12.6290 C.3     1  UNL1        0.0052
     46 C          59.6928   83.9867   13.8082 C.3     1  UNL1        0.0002
     47 C          59.7591   85.4726   13.5011 C.3     1  UNL1        0.0000
     48 C          58.5448   85.7822   12.6301 C.3     1  UNL1        0.0000
     49 C          57.9478   84.4426   12.2044 C.3     1  UNL1        0.0002
@<TRIPOS>BOND
     1    27    28    1
     2    28    25    1
     3    25    26    1
     4    25    19    1
     5    19    20   ar
     6    20    21   ar
     7    21    22   ar
     8    22    13    1
     9    13    14   ar
    10    14    15   ar
    11    15    16   ar
    12    16     7    1
    13     7     8    1
    14     8     9    1
    15     9    10    1
    16    10     1    1
    17     1     2   ar
    18     2     3   ar
    19     3     4   ar
    20     4    29    1
    21    29    30    1
    22    30    31    1
    23    31    32    1
    24    32    33    1
    25    33    34    1
    26    34    44    1
    27    44    45    1
    28    45    46    1
    29    46    47    1
    30    47    48    1
    31    48    49    1
    32    34    36    1
    33    36    37   ar
    34    37    38   ar
    35    38    39   ar
    36    39    40    1
    37    39    41   ar
    38    41    42   ar
    39    42    43    1
    40    34    35    1
    41     4     5   ar
    42     5     6   ar
    43    10    11    1
    44    11    12    1
    45    16    17   ar
    46    17    18   ar
    47    22    23   ar
    48    23    24    2
    49    23    19   ar
    50    18    13   ar
    51    12     7    1
    52     6     1   ar
    53    35    31    1
    54    49    45    1
    55    42    36   ar
