@<TRIPOS>MOLECULE
*****
 45 50 0 0 0
SMALL
GASTEIGER

@<TRIPOS>ATOM
      1 C          -7.5102  -14.3367   27.6527 C.ar    1  UNL1        0.0702
      2 C          -6.9601  -13.2830   28.3908 C.ar    1  UNL1        0.0191
      3 C          -7.7323  -12.6052   29.3353 C.ar    1  UNL1        0.0356
      4 C          -9.0757  -12.9741   29.5317 C.ar    1  UNL1        0.1318
      5 N          -9.5936  -13.9862   28.7798 N.ar    1  UNL1       -0.2279
      6 C          -8.8596  -14.6627   27.8575 C.ar    1  UNL1        0.1149
      7 N          -9.9078  -12.3040   30.5084 N.pl3   1  UNL1       -0.2932
      8 C         -11.3750  -12.4419   30.4675 C.3     1  UNL1        0.0923
      9 C         -12.0733  -11.3963   31.3498 C.3     1  UNL1        0.0252
     10 C         -11.4036  -10.0229   31.1691 C.3     1  UNL1        0.0472
     11 C          -9.9037  -10.0621   31.5694 C.3     1  UNL1        0.0252
     12 C          -9.3054  -11.4790   31.5679 C.3     1  UNL1        0.0923
     13 C         -12.1680   -8.9411   31.9557 C.3     1  UNL1        0.2054
     14 O         -12.0653   -7.6692   31.3128 O.3     1  UNL1       -0.4755
     15 C         -10.8687   -6.9896   31.0301 C.ar    1  UNL1        0.1388
     16 C         -10.7738   -5.9963   30.0418 C.ar    1  UNL1        0.0374
     17 C          -9.5583   -5.3543   29.8069 C.ar    1  UNL1        0.0100
     18 C          -8.4179   -5.6872   30.5461 C.ar    1  UNL1        0.0410
     19 BR         -6.8252   -4.6808   30.1701 Br      1  UNL1       -0.0488
     20 C          -8.4948   -6.6904   31.5448 C.ar    1  UNL1        0.0847
     21 C          -9.7326   -7.3205   31.7756 C.ar    1  UNL1        0.0438
     22 C          -7.3273   -7.1093   32.3610 C.2     1  UNL1        0.3386
     23 O          -6.3351   -7.6792   31.8349 O.2     1  UNL1       -0.2451
     24 O          -7.3331   -6.9014   33.7383 O.3     1  UNL1       -0.4771
     25 H          -6.5500   -7.1909   34.3121 H       1  UNL1        0.2954
     26 C          -7.0304  -15.0636   25.2681 C.2     1  UNL1        0.2839
     27 O          -8.1782  -14.7305   24.8678 O.2     1  UNL1       -0.2665
     28 N          -6.7085  -15.0108   26.6675 N.am    1  UNL1       -0.2766
     29 H          -5.8887  -15.5654   27.0032 H       1  UNL1        0.1553
     30 C          -4.3966  -16.7679   25.9246 C.3     1  UNL1        0.0345
     31 C          -4.8748  -16.2935   24.5854 C.ar    1  UNL1        0.0202
     32 C          -6.0255  -15.5487   24.3031 C.ar    1  UNL1        0.1946
     33 O          -6.1105  -15.3232   23.0040 O.2     1  UNL1       -0.4492
     34 C          -5.0741  -15.8829   22.4293 C.ar    1  UNL1        0.1452
     35 C          -4.7646  -15.8937   21.0737 C.ar    1  UNL1        0.0375
     36 C          -3.5950  -16.5601   20.6690 C.ar    1  UNL1        0.0031
     37 C          -2.7563  -17.2022   21.6197 C.ar    1  UNL1        0.0002
     38 C          -3.1075  -17.1670   22.9906 C.ar    1  UNL1        0.0028
     39 C          -4.2755  -16.4963   23.3568 C.ar    1  UNL1        0.0337
     40 C          -1.5232  -17.9033   21.1802 C.ar    1  UNL1        0.0000
     41 C          -0.6613  -17.3123   20.2367 C.ar    1  UNL1        0.0000
     42 C           0.4986  -17.9753   19.8241 C.ar    1  UNL1        0.0000
     43 C           0.8116  -19.2317   20.3471 C.ar    1  UNL1        0.0000
     44 C          -0.0350  -19.8286   21.2838 C.ar    1  UNL1        0.0000
     45 C          -1.1967  -19.1707   21.6995 C.ar    1  UNL1        0.0000
@<TRIPOS>BOND
     1    30    31    1
     2    31    32   ar
     3    32    26    1
     4    26    27    2
     5    26    28   am
     6    28     1    1
     7     1     2   ar
     8     2     3   ar
     9     3     4   ar
    10     4     7    1
    11     7     8    1
    12     8     9    1
    13     9    10    1
    14    10    13    1
    15    13    14    1
    16    14    15    1
    17    15    16   ar
    18    16    17   ar
    19    17    18   ar
    20    18    19    1
    21    18    20   ar
    22    20    22    1
    23    22    23    2
    24    22    24    1
    25    20    21   ar
    26    10    11    1
    27    11    12    1
    28     4     5   ar
    29     5     6   ar
    30    32    33   ar
    31    33    34   ar
    32    34    35   ar
    33    35    36   ar
    34    36    37   ar
    35    37    40    1
    36    40    41   ar
    37    41    42   ar
    38    42    43   ar
    39    43    44   ar
    40    44    45   ar
    41    37    38   ar
    42    38    39   ar
    43    39    31   ar
    44     6     1   ar
    45    39    34   ar
    46    12     7    1
    47    45    40   ar
    48    21    15   ar
    49    28    29    1
    50    24    25    1
@<TRIPOS>MOLECULE
*****
 45 50 0 0 0
SMALL
GASTEIGER

@<TRIPOS>ATOM
      1 C          -7.9899  -13.2795   28.7988 C.ar    1  UNL1        0.0702
      2 C          -9.2990  -13.7272   29.0077 C.ar    1  UNL1        0.0191
      3 C         -10.1935  -12.9643   29.7598 C.ar    1  UNL1        0.0356
      4 C          -9.7688  -11.7475   30.3242 C.ar    1  UNL1        0.1318
      5 N          -8.4803  -11.3487   30.1273 N.ar    1  UNL1       -0.2279
      6 C          -7.5933  -12.0731   29.3957 C.ar    1  UNL1        0.1149
      7 N         -10.6677  -10.9213   31.1018 N.pl3   1  UNL1       -0.2932
      8 C         -12.1146  -10.9122   30.8193 C.3     1  UNL1        0.0923
      9 C         -12.8243   -9.7347   31.5043 C.3     1  UNL1        0.0252
     10 C         -11.9827   -8.4551   31.3577 C.3     1  UNL1        0.0472
     11 C         -10.5826   -8.6148   32.0099 C.3     1  UNL1        0.0252
     12 C         -10.1566  -10.0809   32.1966 C.3     1  UNL1        0.0923
     13 C         -12.7376   -7.2425   31.9349 C.3     1  UNL1        0.2054
     14 O         -12.1474   -6.0156   31.5012 O.3     1  UNL1       -0.4755
     15 C         -10.8143   -5.8493   31.0905 C.ar    1  UNL1        0.1388
     16 C         -10.4653   -5.3173   29.8384 C.ar    1  UNL1        0.0374
     17 C          -9.1237   -5.1743   29.4862 C.ar    1  UNL1        0.0100
     18 C          -8.1070   -5.5571   30.3681 C.ar    1  UNL1        0.0410
     19 BR         -6.3023   -5.2444   29.7879 Br      1  UNL1       -0.0488
     20 C          -8.4412   -6.0998   31.6343 C.ar    1  UNL1        0.0847
     21 C          -9.8009   -6.2271   31.9772 C.ar    1  UNL1        0.0438
     22 C          -7.4214   -6.5419   32.6188 C.2     1  UNL1        0.3386
     23 O          -6.4528   -7.2684   32.2721 O.2     1  UNL1       -0.2451
     24 O          -7.5461   -6.1785   33.9576 O.3     1  UNL1       -0.4771
     25 H          -6.8657   -6.4805   34.6449 H       1  UNL1        0.2954
     26 C          -7.4727  -14.9949   27.0002 C.2     1  UNL1        0.2839
     27 O          -8.6840  -15.3179   26.8701 O.2     1  UNL1       -0.2665
     28 N          -7.0735  -14.0874   28.0403 N.am    1  UNL1       -0.2766
     29 H          -6.0666  -14.0751   28.3205 H       1  UNL1        0.1553
     30 C          -7.3027  -14.6974   23.8134 C.3     1  UNL1        0.0345
     31 C          -6.3756  -15.4529   24.7172 C.ar    1  UNL1        0.0202
     32 C          -6.4538  -15.5809   26.1086 C.ar    1  UNL1        0.1946
     33 O          -5.4547  -16.3236   26.5510 O.2     1  UNL1       -0.4492
     34 C          -4.7327  -16.6843   25.5184 C.ar    1  UNL1        0.1452
     35 C          -3.5855  -17.4699   25.5239 C.ar    1  UNL1        0.0375
     36 C          -2.9614  -17.7354   24.2928 C.ar    1  UNL1        0.0031
     37 C          -3.4900  -17.2149   23.0807 C.ar    1  UNL1        0.0002
     38 C          -4.6606  -16.4197   23.1191 C.ar    1  UNL1        0.0028
     39 C          -5.2542  -16.1765   24.3588 C.ar    1  UNL1        0.0337
     40 C          -2.8219  -17.5020   21.7859 C.ar    1  UNL1        0.0000
     41 C          -3.2819  -18.5442   20.9585 C.ar    1  UNL1        0.0000
     42 C          -2.6501  -18.8128   19.7404 C.ar    1  UNL1        0.0000
     43 C          -1.5557  -18.0463   19.3342 C.ar    1  UNL1        0.0000
     44 C          -1.0900  -17.0095   20.1458 C.ar    1  UNL1        0.0000
     45 C          -1.7172  -16.7369   21.3654 C.ar    1  UNL1        0.0000
@<TRIPOS>BOND
     1    30    31    1
     2    31    32   ar
     3    32    26    1
     4    26    27    2
     5    26    28   am
     6    28     1    1
     7     1     2   ar
     8     2     3   ar
     9     3     4   ar
    10     4     7    1
    11     7     8    1
    12     8     9    1
    13     9    10    1
    14    10    13    1
    15    13    14    1
    16    14    15    1
    17    15    16   ar
    18    16    17   ar
    19    17    18   ar
    20    18    19    1
    21    18    20   ar
    22    20    22    1
    23    22    23    2
    24    22    24    1
    25    20    21   ar
    26    10    11    1
    27    11    12    1
    28     4     5   ar
    29     5     6   ar
    30    32    33   ar
    31    33    34   ar
    32    34    35   ar
    33    35    36   ar
    34    36    37   ar
    35    37    40    1
    36    40    41   ar
    37    41    42   ar
    38    42    43   ar
    39    43    44   ar
    40    44    45   ar
    41    37    38   ar
    42    38    39   ar
    43    39    31   ar
    44     6     1   ar
    45    39    34   ar
    46    12     7    1
    47    45    40   ar
    48    21    15   ar
    49    28    29    1
    50    24    25    1
@<TRIPOS>MOLECULE
*****
 45 50 0 0 0
SMALL
GASTEIGER

@<TRIPOS>ATOM
      1 C          -6.3721  -13.4327   27.8113 C.ar    1  UNL1        0.0702
      2 C          -7.6304  -13.8330   28.2739 C.ar    1  UNL1        0.0191
      3 C          -8.3284  -13.0449   29.1900 C.ar    1  UNL1        0.0356
      4 C          -7.7536  -11.8507   29.6625 C.ar    1  UNL1        0.1318
      5 N          -6.5150  -11.4985   29.2156 N.ar    1  UNL1       -0.2279
      6 C          -5.8188  -12.2481   28.3210 C.ar    1  UNL1        0.1149
      7 N          -8.4484  -10.9994   30.6047 N.pl3   1  UNL1       -0.2932
      8 C          -8.7223  -11.4633   31.9770 C.3     1  UNL1        0.0923
      9 C          -9.7526  -10.5727   32.6876 C.3     1  UNL1        0.0252
     10 C         -10.9029  -10.2278   31.7259 C.3     1  UNL1        0.0472
     11 C         -10.3913   -9.4632   30.4749 C.3     1  UNL1        0.0252
     12 C          -8.8869   -9.6497   30.2148 C.3     1  UNL1        0.0923
     13 C         -12.0017   -9.4354   32.4595 C.3     1  UNL1        0.2054
     14 O         -13.0717  -10.2925   32.8621 O.3     1  UNL1       -0.4755
     15 C         -13.0934  -11.6910   32.7307 C.ar    1  UNL1        0.1388
     16 C         -13.6257  -12.3407   31.6052 C.ar    1  UNL1        0.0374
     17 C         -13.6182  -13.7331   31.5300 C.ar    1  UNL1        0.0100
     18 C         -13.0846  -14.5036   32.5690 C.ar    1  UNL1        0.0410
     19 BR        -13.0743  -16.4073   32.3102 Br      1  UNL1       -0.0488
     20 C         -12.5469  -13.8644   33.7144 C.ar    1  UNL1        0.0847
     21 C         -12.5533  -12.4575   33.7684 C.ar    1  UNL1        0.0438
     22 C         -11.9759  -14.6116   34.8634 C.2     1  UNL1        0.3386
     23 O         -12.6748  -15.4246   35.5243 O.2     1  UNL1       -0.2451
     24 O         -10.6541  -14.3935   35.2450 O.3     1  UNL1       -0.4771
     25 H         -10.2515  -14.8863   36.0333 H       1  UNL1        0.2954
     26 C          -6.2349  -14.8303   25.6963 C.2     1  UNL1        0.2839
     27 O          -7.4852  -14.8273   25.5369 O.2     1  UNL1       -0.2665
     28 N          -5.6556  -14.2666   26.8844 N.am    1  UNL1       -0.2766
     29 H          -4.6803  -14.5469   27.1348 H       1  UNL1        0.1553
     30 C          -3.8858  -16.9497   26.2091 C.3     1  UNL1        0.0345
     31 C          -4.3379  -16.3768   24.8996 C.ar    1  UNL1        0.0202
     32 C          -5.3638  -15.4508   24.6801 C.ar    1  UNL1        0.1946
     33 O          -5.4667  -15.1876   23.3895 O.2     1  UNL1       -0.4492
     34 C          -4.5601  -15.8949   22.7606 C.ar    1  UNL1        0.1452
     35 C          -4.3146  -15.9273   21.3923 C.ar    1  UNL1        0.0375
     36 C          -3.2867  -16.7648   20.9258 C.ar    1  UNL1        0.0031
     37 C          -2.5230  -17.5531   21.8284 C.ar    1  UNL1        0.0002
     38 C          -2.8050  -17.4903   23.2143 C.ar    1  UNL1        0.0028
     39 C          -3.8323  -16.6480   23.6424 C.ar    1  UNL1        0.0337
     40 C          -1.4395  -18.4344   21.3238 C.ar    1  UNL1        0.0000
     41 C          -0.4239  -17.9183   20.4965 C.ar    1  UNL1        0.0000
     42 C           0.5944  -18.7507   20.0221 C.ar    1  UNL1        0.0000
     43 C           0.6119  -20.1038   20.3672 C.ar    1  UNL1        0.0000
     44 C          -0.3896  -20.6278   21.1875 C.ar    1  UNL1        0.0000
     45 C          -1.4110  -19.8003   21.6641 C.ar    1  UNL1        0.0000
@<TRIPOS>BOND
     1    30    31    1
     2    31    32   ar
     3    32    26    1
     4    26    27    2
     5    26    28   am
     6    28     1    1
     7     1     2   ar
     8     2     3   ar
     9     3     4   ar
    10     4     7    1
    11     7     8    1
    12     8     9    1
    13     9    10    1
    14    10    13    1
    15    13    14    1
    16    14    15    1
    17    15    16   ar
    18    16    17   ar
    19    17    18   ar
    20    18    19    1
    21    18    20   ar
    22    20    22    1
    23    22    23    2
    24    22    24    1
    25    20    21   ar
    26    10    11    1
    27    11    12    1
    28     4     5   ar
    29     5     6   ar
    30    32    33   ar
    31    33    34   ar
    32    34    35   ar
    33    35    36   ar
    34    36    37   ar
    35    37    40    1
    36    40    41   ar
    37    41    42   ar
    38    42    43   ar
    39    43    44   ar
    40    44    45   ar
    41    37    38   ar
    42    38    39   ar
    43    39    31   ar
    44     6     1   ar
    45    39    34   ar
    46    12     7    1
    47    45    40   ar
    48    21    15   ar
    49    28    29    1
    50    24    25    1
@<TRIPOS>MOLECULE
*****
 45 50 0 0 0
SMALL
GASTEIGER

@<TRIPOS>ATOM
      1 C          -6.5806  -14.9421   26.7506 C.ar    1  UNL1        0.0702
      2 C          -7.9125  -15.2935   26.9959 C.ar    1  UNL1        0.0191
      3 C          -8.6830  -14.5534   27.8939 C.ar    1  UNL1        0.0356
      4 C          -8.1096  -13.4595   28.5678 C.ar    1  UNL1        0.1318
      5 N          -6.8022  -13.1561   28.3300 N.ar    1  UNL1       -0.2279
      6 C          -6.0342  -13.8600   27.4573 C.ar    1  UNL1        0.1149
      7 N          -8.8768  -12.6598   29.4990 N.pl3   1  UNL1       -0.2932
      8 C         -10.3356  -12.8366   29.6178 C.3     1  UNL1        0.0923
      9 C         -10.9922  -11.6786   30.3842 C.3     1  UNL1        0.0252
     10 C         -10.3937  -10.3373   29.9258 C.3     1  UNL1        0.0472
     11 C          -8.8639  -10.2764   30.1853 C.3     1  UNL1        0.0252
     12 C          -8.2147  -11.6607   30.3529 C.3     1  UNL1        0.0923
     13 C         -11.1260   -9.1605   30.5985 C.3     1  UNL1        0.2054
     14 O         -11.1989   -9.3421   32.0139 O.3     1  UNL1       -0.4755
     15 C         -11.4142  -10.5644   32.6719 C.ar    1  UNL1        0.1388
     16 C         -12.6133  -11.2870   32.5604 C.ar    1  UNL1        0.0374
     17 C         -12.7689  -12.4967   33.2364 C.ar    1  UNL1        0.0100
     18 C         -11.7399  -13.0087   34.0344 C.ar    1  UNL1        0.0410
     19 BR        -12.0572  -14.7161   34.8561 Br      1  UNL1       -0.0488
     20 C         -10.5244  -12.2904   34.1616 C.ar    1  UNL1        0.0847
     21 C         -10.3810  -11.0761   33.4635 C.ar    1  UNL1        0.0438
     22 C          -9.3921  -12.7600   34.9996 C.2     1  UNL1        0.3386
     23 O          -9.4646  -13.8365   35.6491 O.2     1  UNL1       -0.2451
     24 O          -8.2371  -11.9881   35.1009 O.3     1  UNL1       -0.4771
     25 H          -7.4592  -12.2876   35.6768 H       1  UNL1        0.2954
     26 C          -5.6520  -15.4346   24.4397 C.2     1  UNL1        0.2839
     27 O          -6.4237  -14.6078   23.8834 O.2     1  UNL1       -0.2665
     28 N          -5.7931  -15.7278   25.8393 N.am    1  UNL1       -0.2766
     29 H          -5.3672  -16.6113   26.2005 H       1  UNL1        0.1553
     30 C          -3.5377  -17.5969   25.5015 C.3     1  UNL1        0.0345
     31 C          -3.7018  -17.0806   24.1037 C.ar    1  UNL1        0.0202
     32 C          -4.6260  -16.1355   23.6443 C.ar    1  UNL1        0.1946
     33 O          -4.4644  -15.9384   22.3479 O.2     1  UNL1       -0.4492
     34 C          -3.4827  -16.7065   21.9429 C.ar    1  UNL1        0.1452
     35 C          -2.9769  -16.8195   20.6526 C.ar    1  UNL1        0.0375
     36 C          -1.9134  -17.7127   20.4365 C.ar    1  UNL1        0.0031
     37 C          -1.3736  -18.4756   21.5071 C.ar    1  UNL1        0.0002
     38 C          -1.9174  -18.3302   22.8060 C.ar    1  UNL1        0.0028
     39 C          -2.9726  -17.4342   22.9844 C.ar    1  UNL1        0.0337
     40 C          -0.2500  -19.4163   21.2666 C.ar    1  UNL1        0.0000
     41 C           0.8204  -19.0533   20.4269 C.ar    1  UNL1        0.0000
     42 C           1.8764  -19.9416   20.2016 C.ar    1  UNL1        0.0000
     43 C           1.8774  -21.1985   20.8102 C.ar    1  UNL1        0.0000
     44 C           0.8217  -21.5704   21.6455 C.ar    1  UNL1        0.0000
     45 C          -0.2375  -20.6866   21.8737 C.ar    1  UNL1        0.0000
@<TRIPOS>BOND
     1    30    31    1
     2    31    32   ar
     3    32    26    1
     4    26    27    2
     5    26    28   am
     6    28     1    1
     7     1     2   ar
     8     2     3   ar
     9     3     4   ar
    10     4     7    1
    11     7     8    1
    12     8     9    1
    13     9    10    1
    14    10    13    1
    15    13    14    1
    16    14    15    1
    17    15    16   ar
    18    16    17   ar
    19    17    18   ar
    20    18    19    1
    21    18    20   ar
    22    20    22    1
    23    22    23    2
    24    22    24    1
    25    20    21   ar
    26    10    11    1
    27    11    12    1
    28     4     5   ar
    29     5     6   ar
    30    32    33   ar
    31    33    34   ar
    32    34    35   ar
    33    35    36   ar
    34    36    37   ar
    35    37    40    1
    36    40    41   ar
    37    41    42   ar
    38    42    43   ar
    39    43    44   ar
    40    44    45   ar
    41    37    38   ar
    42    38    39   ar
    43    39    31   ar
    44     6     1   ar
    45    39    34   ar
    46    12     7    1
    47    45    40   ar
    48    21    15   ar
    49    28    29    1
    50    24    25    1
@<TRIPOS>MOLECULE
*****
 45 50 0 0 0
SMALL
GASTEIGER

@<TRIPOS>ATOM
      1 C          -7.1466  -14.5642   27.3277 C.ar    1  UNL1        0.0702
      2 C          -8.4723  -14.9583   27.5396 C.ar    1  UNL1        0.0191
      3 C          -9.2738  -14.2735   28.4541 C.ar    1  UNL1        0.0356
      4 C          -8.7380  -13.1926   29.1781 C.ar    1  UNL1        0.1318
      5 N          -7.4357  -12.8473   28.9715 N.ar    1  UNL1       -0.2279
      6 C          -6.6380  -13.4970   28.0836 C.ar    1  UNL1        0.1149
      7 N          -9.5382  -12.4494   30.1281 N.pl3   1  UNL1       -0.2932
      8 C         -10.9489  -12.1337   29.8387 C.3     1  UNL1        0.0923
      9 C         -11.5030  -11.0630   30.7905 C.3     1  UNL1        0.0252
     10 C         -10.4664   -9.9426   30.9836 C.3     1  UNL1        0.0472
     11 C          -9.1450  -10.4861   31.5920 C.3     1  UNL1        0.0252
     12 C          -8.9624  -12.0020   31.4065 C.3     1  UNL1        0.0923
     13 C         -11.0537   -8.8043   31.8396 C.3     1  UNL1        0.2054
     14 O         -10.4982   -7.5417   31.4668 O.3     1  UNL1       -0.4755
     15 C          -9.1308   -7.2669   31.2995 C.ar    1  UNL1        0.1388
     16 C          -8.4978   -6.1656   31.8987 C.ar    1  UNL1        0.0374
     17 C          -7.1358   -5.9443   31.6976 C.ar    1  UNL1        0.0100
     18 C          -6.3799   -6.8095   30.8989 C.ar    1  UNL1        0.0410
     19 BR         -4.5017   -6.4302   30.7589 Br      1  UNL1       -0.0488
     20 C          -7.0035   -7.9238   30.2831 C.ar    1  UNL1        0.0847
     21 C          -8.3773   -8.1376   30.5057 C.ar    1  UNL1        0.0438
     22 C          -6.2735   -8.8786   29.4112 C.2     1  UNL1        0.3386
     23 O          -6.5544   -8.9905   28.1886 O.2     1  UNL1       -0.2451
     24 O          -5.2805   -9.6920   29.9518 O.3     1  UNL1       -0.4771
     25 H          -4.7800  -10.3569   29.3741 H       1  UNL1        0.2954
     26 C          -6.5424  -15.3116   24.9778 C.2     1  UNL1        0.2839
     27 O          -7.6258  -14.8854   24.4950 O.2     1  UNL1       -0.2665
     28 N          -6.3267  -15.2937   26.3984 N.am    1  UNL1       -0.2766
     29 H          -5.5818  -15.9142   26.7890 H       1  UNL1        0.1553
     30 C          -4.1287  -17.2502   25.8074 C.3     1  UNL1        0.0345
     31 C          -4.4523  -16.7161   24.4446 C.ar    1  UNL1        0.0202
     32 C          -5.5072  -15.8689   24.0867 C.ar    1  UNL1        0.1946
     33 O          -5.4652  -15.6178   22.7903 O.2     1  UNL1       -0.4492
     34 C          -4.4373  -16.2580   22.2889 C.ar    1  UNL1        0.1452
     35 C          -4.0195  -16.2762   20.9629 C.ar    1  UNL1        0.0375
     36 C          -2.8826  -17.0368   20.6394 C.ar    1  UNL1        0.0031
     37 C          -2.1835  -17.7640   21.6404 C.ar    1  UNL1        0.0002
     38 C          -2.6420  -17.7182   22.9790 C.ar    1  UNL1        0.0028
     39 C          -3.7738  -16.9528   23.2644 C.ar    1  UNL1        0.0337
     40 C          -0.9837  -18.5643   21.2867 C.ar    1  UNL1        0.0000
     41 C           0.0255  -18.0189   20.4703 C.ar    1  UNL1        0.0000
     42 C           1.1536  -18.7752   20.1382 C.ar    1  UNL1        0.0000
     43 C           1.2882  -20.0805   20.6160 C.ar    1  UNL1        0.0000
     44 C           0.2944  -20.6329   21.4269 C.ar    1  UNL1        0.0000
     45 C          -0.8364  -19.8816   21.7616 C.ar    1  UNL1        0.0000
@<TRIPOS>BOND
     1    30    31    1
     2    31    32   ar
     3    32    26    1
     4    26    27    2
     5    26    28   am
     6    28     1    1
     7     1     2   ar
     8     2     3   ar
     9     3     4   ar
    10     4     7    1
    11     7     8    1
    12     8     9    1
    13     9    10    1
    14    10    13    1
    15    13    14    1
    16    14    15    1
    17    15    16   ar
    18    16    17   ar
    19    17    18   ar
    20    18    19    1
    21    18    20   ar
    22    20    22    1
    23    22    23    2
    24    22    24    1
    25    20    21   ar
    26    10    11    1
    27    11    12    1
    28     4     5   ar
    29     5     6   ar
    30    32    33   ar
    31    33    34   ar
    32    34    35   ar
    33    35    36   ar
    34    36    37   ar
    35    37    40    1
    36    40    41   ar
    37    41    42   ar
    38    42    43   ar
    39    43    44   ar
    40    44    45   ar
    41    37    38   ar
    42    38    39   ar
    43    39    31   ar
    44     6     1   ar
    45    39    34   ar
    46    12     7    1
    47    45    40   ar
    48    21    15   ar
    49    28    29    1
    50    24    25    1
@<TRIPOS>MOLECULE
*****
 45 50 0 0 0
SMALL
GASTEIGER

@<TRIPOS>ATOM
      1 C          -7.1878  -14.9340   26.8735 C.ar    1  UNL1        0.0702
      2 C          -8.5510  -15.2403   26.9478 C.ar    1  UNL1        0.0191
      3 C          -9.3797  -14.5566   27.8386 C.ar    1  UNL1        0.0356
      4 C          -8.8355  -13.5668   28.6774 C.ar    1  UNL1        0.1318
      5 N          -7.4994  -13.3076   28.6031 N.ar    1  UNL1       -0.2279
      6 C          -6.6743  -13.9578   27.7409 C.ar    1  UNL1        0.1149
      7 N          -9.6620  -12.8273   29.6076 N.pl3   1  UNL1       -0.2932
      8 C         -10.0069  -11.4172   29.3503 C.3     1  UNL1        0.0923
      9 C         -10.5812  -10.7311   30.5989 C.3     1  UNL1        0.0252
     10 C          -9.7666  -11.1311   31.8413 C.3     1  UNL1        0.0472
     11 C          -9.8035  -12.6653   32.0786 C.3     1  UNL1        0.0252
     12 C         -10.1827  -13.4709   30.8244 C.3     1  UNL1        0.0923
     13 C         -10.2561  -10.3579   33.0807 C.3     1  UNL1        0.2054
     14 O          -9.2435   -9.4762   33.5694 O.3     1  UNL1       -0.4755
     15 C          -8.4671   -8.6071   32.7850 C.ar    1  UNL1        0.1388
     16 C          -7.0860   -8.4389   32.9767 C.ar    1  UNL1        0.0374
     17 C          -6.3668   -7.5622   32.1652 C.ar    1  UNL1        0.0100
     18 C          -7.0044   -6.8377   31.1521 C.ar    1  UNL1        0.0410
     19 BR         -5.8872   -5.7168   30.0627 Br      1  UNL1       -0.0488
     20 C          -8.3986   -6.9921   30.9473 C.ar    1  UNL1        0.0847
     21 C          -9.1069   -7.8895   31.7692 C.ar    1  UNL1        0.0438
     22 C          -9.1493   -6.2492   29.9036 C.2     1  UNL1        0.3386
     23 O          -9.3481   -5.0094   30.0019 O.2     1  UNL1       -0.2451
     24 O          -9.6742   -6.9313   28.8085 O.3     1  UNL1       -0.4771
     25 H         -10.1985   -6.4423   28.0927 H       1  UNL1        0.2954
     26 C          -6.2301  -15.3725   24.5636 C.2     1  UNL1        0.2839
     27 O          -7.0675  -14.6158   24.0027 O.2     1  UNL1       -0.2665
     28 N          -6.3426  -15.6625   25.9665 N.am    1  UNL1       -0.2766
     29 H          -5.8459  -16.5054   26.3342 H       1  UNL1        0.1553
     30 C          -3.9528  -17.3573   25.6348 C.3     1  UNL1        0.0345
     31 C          -4.1582  -16.8638   24.2343 C.ar    1  UNL1        0.0202
     32 C          -5.1537  -15.9963   23.7707 C.ar    1  UNL1        0.1946
     33 O          -5.0094  -15.7951   22.4729 O.2     1  UNL1       -0.4492
     34 C          -3.9714  -16.4869   22.0709 C.ar    1  UNL1        0.1452
     35 C          -3.4599  -16.5682   20.7805 C.ar    1  UNL1        0.0375
     36 C          -2.3303  -17.3772   20.5679 C.ar    1  UNL1        0.0031
     37 C          -1.7316  -18.0893   21.6421 C.ar    1  UNL1        0.0002
     38 C          -2.2835  -17.9787   22.9410 C.ar    1  UNL1        0.0028
     39 C          -3.4050  -17.1664   23.1159 C.ar    1  UNL1        0.0337
     40 C          -0.5385  -18.9413   21.4054 C.ar    1  UNL1        0.0000
     41 C           0.6688  -18.3733   20.9557 C.ar    1  UNL1        0.0000
     42 C           1.7902  -19.1782   20.7328 C.ar    1  UNL1        0.0000
     43 C           1.7207  -20.5550   20.9560 C.ar    1  UNL1        0.0000
     44 C           0.5291  -21.1304   21.4023 C.ar    1  UNL1        0.0000
     45 C          -0.5959  -20.3306   21.6261 C.ar    1  UNL1        0.0000
@<TRIPOS>BOND
     1    30    31    1
     2    31    32   ar
     3    32    26    1
     4    26    27    2
     5    26    28   am
     6    28     1    1
     7     1     2   ar
     8     2     3   ar
     9     3     4   ar
    10     4     7    1
    11     7     8    1
    12     8     9    1
    13     9    10    1
    14    10    13    1
    15    13    14    1
    16    14    15    1
    17    15    16   ar
    18    16    17   ar
    19    17    18   ar
    20    18    19    1
    21    18    20   ar
    22    20    22    1
    23    22    23    2
    24    22    24    1
    25    20    21   ar
    26    10    11    1
    27    11    12    1
    28     4     5   ar
    29     5     6   ar
    30    32    33   ar
    31    33    34   ar
    32    34    35   ar
    33    35    36   ar
    34    36    37   ar
    35    37    40    1
    36    40    41   ar
    37    41    42   ar
    38    42    43   ar
    39    43    44   ar
    40    44    45   ar
    41    37    38   ar
    42    38    39   ar
    43    39    31   ar
    44     6     1   ar
    45    39    34   ar
    46    12     7    1
    47    45    40   ar
    48    21    15   ar
    49    28    29    1
    50    24    25    1
