@<TRIPOS>MOLECULE
*****
 36 39 0 0 0
SMALL
GASTEIGER

@<TRIPOS>ATOM
      1 N          -8.9704   -9.7734   31.6535 N.am    1  UNL1       -0.2684
      2 C          -9.3558  -10.5238   32.8198 C.2     1  UNL1        0.2672
      3 O          -8.7322  -10.3467   33.9012 O.2     1  UNL1       -0.2682
      4 C         -10.4959  -11.4629   32.7754 C.ar    1  UNL1        0.1347
      5 C         -10.5263  -12.6012   33.5971 C.ar    1  UNL1        0.0238
      6 C         -11.6287  -13.4641   33.5418 C.ar    1  UNL1        0.0031
      7 C         -11.6849  -14.6133   34.3459 C.ar    1  UNL1        0.0001
      8 C         -12.7930  -15.4634   34.2770 C.ar    1  UNL1        0.0000
      9 C         -13.8495  -15.1738   33.4084 C.ar    1  UNL1        0.0000
     10 C         -13.8049  -14.0320   32.6028 C.ar    1  UNL1        0.0015
     11 C         -12.6975  -13.1729   32.6644 C.ar    1  UNL1        0.0192
     12 C         -12.6288  -12.0226   31.8695 C.ar    1  UNL1        0.0989
     13 N         -11.5455  -11.2062   31.9464 N.ar    1  UNL1       -0.2393
     14 C          -8.9627  -11.9942   30.5466 C.3     1  UNL1        0.0265
     15 C          -8.5760  -10.5111   30.4265 C.3     1  UNL1        0.1007
     16 C          -7.1129  -10.2982   30.0399 C.ar    1  UNL1        0.0234
     17 C          -6.7394   -9.6756   28.8286 C.ar    1  UNL1        0.0019
     18 C          -5.3920   -9.5465   28.4811 C.ar    1  UNL1        0.0295
     19 C          -4.3987  -10.0350   29.3304 C.ar    1  UNL1        0.1424
     20 F          -3.0930   -9.9159   28.9856 F       1  UNL1       -0.2041
     21 C          -4.7507  -10.6533   30.5312 C.ar    1  UNL1        0.0590
     22 C          -6.0965  -10.7872   30.8871 C.ar    1  UNL1        0.1399
     23 F          -6.4086  -11.4144   32.0498 F       1  UNL1       -0.2044
     24 C          -9.0919   -8.3037   31.7164 C.3     1  UNL1        0.1237
     25 C          -7.7529   -7.6113   31.5446 C.ar    1  UNL1        0.0316
     26 C          -7.5678   -6.7771   30.4294 C.ar    1  UNL1        0.0004
     27 C          -6.3892   -6.0569   30.2654 C.ar    1  UNL1        0.0001
     28 C          -5.3687   -6.1606   31.2053 C.ar    1  UNL1        0.0095
     29 C          -5.4956   -7.0194   32.3104 C.ar    1  UNL1        0.1088
     30 C          -6.6756   -7.7893   32.4571 C.ar    1  UNL1        0.1374
     31 O          -6.7402   -8.7231   33.4969 O.3     1  UNL1       -0.5056
     32 H          -7.4387   -9.4482   33.5722 H       1  UNL1        0.2922
     33 C          -4.3843   -7.1006   33.2944 C.2     1  UNL1        0.3410
     34 O          -3.3476   -6.3996   33.1390 O.2     1  UNL1       -0.2450
     35 O          -4.4750   -7.9301   34.4089 O.3     1  UNL1       -0.4770
     36 H          -3.7219   -7.9791   35.0846 H       1  UNL1        0.2954
@<TRIPOS>BOND
     1    14    15    1
     2    15    16    1
     3    16    17   ar
     4    17    18   ar
     5    18    19   ar
     6    19    20    1
     7    19    21   ar
     8    21    22   ar
     9    22    23    1
    10    15     1    1
    11     1    24    1
    12    24    25    1
    13    25    26   ar
    14    26    27   ar
    15    27    28   ar
    16    28    29   ar
    17    29    33    1
    18    33    34    2
    19    33    35    1
    20    29    30   ar
    21    30    31    1
    22     1     2   am
    23     2     3    2
    24     2     4    1
    25     4     5   ar
    26     5     6   ar
    27     6     7   ar
    28     7     8   ar
    29     8     9   ar
    30     9    10   ar
    31    10    11   ar
    32    11    12   ar
    33    12    13   ar
    34    22    16   ar
    35    30    25   ar
    36    13     4   ar
    37    11     6   ar
    38    35    36    1
    39    31    32    1
@<TRIPOS>MOLECULE
*****
 36 39 0 0 0
SMALL
GASTEIGER

@<TRIPOS>ATOM
      1 N          -9.4247  -10.1710   31.0176 N.am    1  UNL1       -0.2684
      2 C          -9.2140  -11.5841   31.1936 C.2     1  UNL1        0.2672
      3 O          -8.2776  -12.1508   30.5678 O.2     1  UNL1       -0.2682
      4 C         -10.0511  -12.3657   32.1274 C.ar    1  UNL1        0.1347
      5 C         -11.0684  -13.2089   31.6523 C.ar    1  UNL1        0.0238
      6 C         -11.8349  -13.9481   32.5630 C.ar    1  UNL1        0.0031
      7 C         -12.8631  -14.7943   32.1191 C.ar    1  UNL1        0.0001
      8 C         -13.6181  -15.5241   33.0425 C.ar    1  UNL1        0.0000
      9 C         -13.3532  -15.4151   34.4109 C.ar    1  UNL1        0.0000
     10 C         -12.3316  -14.5757   34.8651 C.ar    1  UNL1        0.0015
     11 C         -11.5686  -13.8392   33.9465 C.ar    1  UNL1        0.0192
     12 C         -10.5392  -12.9928   34.3750 C.ar    1  UNL1        0.0989
     13 N          -9.8144  -12.2892   33.4663 N.ar    1  UNL1       -0.2393
     14 C         -11.1530  -10.4408   29.2576 C.3     1  UNL1        0.0265
     15 C         -10.7503   -9.6993   30.5428 C.3     1  UNL1        0.1007
     16 C         -10.8382   -8.1790   30.4152 C.ar    1  UNL1        0.0234
     17 C          -9.9723   -7.4447   29.5754 C.ar    1  UNL1        0.0019
     18 C         -10.0440   -6.0500   29.5246 C.ar    1  UNL1        0.0295
     19 C         -10.9749   -5.3666   30.3076 C.ar    1  UNL1        0.1424
     20 F         -11.0355   -4.0131   30.2623 F       1  UNL1       -0.2041
     21 C         -11.8380   -6.0771   31.1433 C.ar    1  UNL1        0.0590
     22 C         -11.7731   -7.4729   31.2009 C.ar    1  UNL1        0.1399
     23 F         -12.6093   -8.1346   32.0409 F       1  UNL1       -0.2044
     24 C          -8.3343   -9.2625   31.4229 C.3     1  UNL1        0.1237
     25 C          -6.9814   -9.7348   30.9245 C.ar    1  UNL1        0.0316
     26 C          -6.0833  -10.2922   31.8500 C.ar    1  UNL1        0.0004
     27 C          -4.8624  -10.8128   31.4341 C.ar    1  UNL1        0.0001
     28 C          -4.5090  -10.7803   30.0889 C.ar    1  UNL1        0.0095
     29 C          -5.3586  -10.1897   29.1379 C.ar    1  UNL1        0.1088
     30 C          -6.5826   -9.6175   29.5636 C.ar    1  UNL1        0.1374
     31 O          -7.3630   -8.9330   28.6256 O.3     1  UNL1       -0.5056
     32 H          -8.1392   -8.3305   28.8577 H       1  UNL1        0.2922
     33 C          -4.9470  -10.1771   27.7096 C.2     1  UNL1        0.3410
     34 O          -4.6310  -11.2523   27.1314 O.2     1  UNL1       -0.2450
     35 O          -4.9229   -8.9898   26.9827 O.3     1  UNL1       -0.4770
     36 H          -4.6512   -8.9817   26.0069 H       1  UNL1        0.2954
@<TRIPOS>BOND
     1    14    15    1
     2    15    16    1
     3    16    17   ar
     4    17    18   ar
     5    18    19   ar
     6    19    20    1
     7    19    21   ar
     8    21    22   ar
     9    22    23    1
    10    15     1    1
    11     1    24    1
    12    24    25    1
    13    25    26   ar
    14    26    27   ar
    15    27    28   ar
    16    28    29   ar
    17    29    33    1
    18    33    34    2
    19    33    35    1
    20    29    30   ar
    21    30    31    1
    22     1     2   am
    23     2     3    2
    24     2     4    1
    25     4     5   ar
    26     5     6   ar
    27     6     7   ar
    28     7     8   ar
    29     8     9   ar
    30     9    10   ar
    31    10    11   ar
    32    11    12   ar
    33    12    13   ar
    34    22    16   ar
    35    30    25   ar
    36    13     4   ar
    37    11     6   ar
    38    35    36    1
    39    31    32    1
@<TRIPOS>MOLECULE
*****
 36 39 0 0 0
SMALL
GASTEIGER

@<TRIPOS>ATOM
      1 N          -9.5304  -10.1137   31.2110 N.am    1  UNL1       -0.2684
      2 C         -10.8201  -10.0826   31.8495 C.2     1  UNL1        0.2672
      3 O         -11.3287   -8.9712   32.1589 O.2     1  UNL1       -0.2682
      4 C         -11.5702  -11.3298   32.1062 C.ar    1  UNL1        0.1347
      5 C         -11.2753  -12.1337   33.2190 C.ar    1  UNL1        0.0238
      6 C         -12.0149  -13.3025   33.4425 C.ar    1  UNL1        0.0031
      7 C         -11.7394  -14.1300   34.5424 C.ar    1  UNL1        0.0001
      8 C         -12.4876  -15.2930   34.7493 C.ar    1  UNL1        0.0000
      9 C         -13.5128  -15.6374   33.8634 C.ar    1  UNL1        0.0000
     10 C         -13.7967  -14.8209   32.7645 C.ar    1  UNL1        0.0015
     11 C         -13.0516  -13.6521   32.5481 C.ar    1  UNL1        0.0192
     12 C         -13.3165  -12.8168   31.4564 C.ar    1  UNL1        0.0989
     13 N         -12.5808  -11.6903   31.2674 N.ar    1  UNL1       -0.2393
     14 C          -8.3473  -10.5399   33.3501 C.3     1  UNL1        0.0265
     15 C          -8.4327  -10.8803   31.8533 C.3     1  UNL1        0.1007
     16 C          -7.0960  -10.7425   31.1257 C.ar    1  UNL1        0.0234
     17 C          -6.0521   -9.9301   31.6205 C.ar    1  UNL1        0.0019
     18 C          -4.8630   -9.7834   30.9014 C.ar    1  UNL1        0.0295
     19 C          -4.6955  -10.4397   29.6816 C.ar    1  UNL1        0.1424
     20 F          -3.5439  -10.2878   28.9824 F       1  UNL1       -0.2041
     21 C          -5.7174  -11.2461   29.1780 C.ar    1  UNL1        0.0590
     22 C          -6.9110  -11.3985   29.8907 C.ar    1  UNL1        0.1399
     23 F          -7.8958  -12.1702   29.3640 F       1  UNL1       -0.2044
     24 C          -9.4055   -9.4623   29.8924 C.3     1  UNL1        0.1237
     25 C          -9.0592   -7.9901   30.0123 C.ar    1  UNL1        0.0316
     26 C          -7.7045   -7.6230   30.0737 C.ar    1  UNL1        0.0004
     27 C          -7.3292   -6.2840   30.1043 C.ar    1  UNL1        0.0001
     28 C          -8.2971   -5.2848   30.0831 C.ar    1  UNL1        0.0095
     29 C          -9.6641   -5.6104   30.0687 C.ar    1  UNL1        0.1088
     30 C         -10.0517   -6.9728   30.0835 C.ar    1  UNL1        0.1374
     31 O         -11.4128   -7.2801   30.1850 O.3     1  UNL1       -0.5056
     32 H         -11.7780   -8.1967   30.3989 H       1  UNL1        0.2922
     33 C         -10.6681   -4.5144   30.0434 C.2     1  UNL1        0.3410
     34 O         -11.5633   -4.4542   30.9296 O.2     1  UNL1       -0.2450
     35 O         -10.6269   -3.5292   29.0605 O.3     1  UNL1       -0.4770
     36 H         -11.3052   -2.7770   29.0478 H       1  UNL1        0.2954
@<TRIPOS>BOND
     1    14    15    1
     2    15    16    1
     3    16    17   ar
     4    17    18   ar
     5    18    19   ar
     6    19    20    1
     7    19    21   ar
     8    21    22   ar
     9    22    23    1
    10    15     1    1
    11     1    24    1
    12    24    25    1
    13    25    26   ar
    14    26    27   ar
    15    27    28   ar
    16    28    29   ar
    17    29    33    1
    18    33    34    2
    19    33    35    1
    20    29    30   ar
    21    30    31    1
    22     1     2   am
    23     2     3    2
    24     2     4    1
    25     4     5   ar
    26     5     6   ar
    27     6     7   ar
    28     7     8   ar
    29     8     9   ar
    30     9    10   ar
    31    10    11   ar
    32    11    12   ar
    33    12    13   ar
    34    22    16   ar
    35    30    25   ar
    36    13     4   ar
    37    11     6   ar
    38    35    36    1
    39    31    32    1
@<TRIPOS>MOLECULE
*****
 36 39 0 0 0
SMALL
GASTEIGER

@<TRIPOS>ATOM
      1 N         -10.2126  -10.0184   30.1963 N.am    1  UNL1       -0.2684
      2 C         -10.8092  -10.0909   31.5043 C.2     1  UNL1        0.2672
      3 O         -10.7311   -9.0954   32.2740 O.2     1  UNL1       -0.2682
      4 C         -11.5454  -11.2970   31.9368 C.ar    1  UNL1        0.1347
      5 C         -11.0955  -12.0677   33.0209 C.ar    1  UNL1        0.0238
      6 C         -11.8245  -13.1973   33.4155 C.ar    1  UNL1        0.0031
      7 C         -11.3965  -13.9913   34.4910 C.ar    1  UNL1        0.0001
      8 C         -12.1365  -15.1154   34.8704 C.ar    1  UNL1        0.0000
      9 C         -13.3052  -15.4540   34.1818 C.ar    1  UNL1        0.0000
     10 C         -13.7416  -14.6707   33.1091 C.ar    1  UNL1        0.0015
     11 C         -13.0060  -13.5410   32.7206 C.ar    1  UNL1        0.0192
     12 C         -13.4219  -12.7393   31.6510 C.ar    1  UNL1        0.0989
     13 N         -12.6923  -11.6505   31.2930 N.ar    1  UNL1       -0.2393
     14 C          -9.7682  -12.4449   29.9286 C.3     1  UNL1        0.0265
     15 C          -9.1878  -11.0254   29.8208 C.3     1  UNL1        0.1007
     16 C          -7.8698  -10.8533   30.5748 C.ar    1  UNL1        0.0234
     17 C          -7.7592  -10.0270   31.7147 C.ar    1  UNL1        0.0019
     18 C          -6.5260   -9.8491   32.3474 C.ar    1  UNL1        0.0295
     19 C          -5.3869  -10.4875   31.8559 C.ar    1  UNL1        0.1424
     20 F          -4.1906  -10.3054   32.4671 F       1  UNL1       -0.2041
     21 C          -5.4787  -11.3075   30.7301 C.ar    1  UNL1        0.0590
     22 C          -6.7085  -11.4911   30.0902 C.ar    1  UNL1        0.1399
     23 F          -6.7618  -12.2752   28.9834 F       1  UNL1       -0.2044
     24 C         -10.7358   -9.0019   29.2627 C.3     1  UNL1        0.1237
     25 C         -10.3271   -7.5960   29.6602 C.ar    1  UNL1        0.0316
     26 C         -11.3310   -6.6852   30.0295 C.ar    1  UNL1        0.0004
     27 C         -11.0063   -5.4092   30.4781 C.ar    1  UNL1        0.0001
     28 C          -9.6751   -5.0131   30.5591 C.ar    1  UNL1        0.0095
     29 C          -8.6434   -5.8778   30.1553 C.ar    1  UNL1        0.1088
     30 C          -8.9720   -7.1616   29.6549 C.ar    1  UNL1        0.1374
     31 O          -7.9445   -7.9661   29.1504 O.3     1  UNL1       -0.5056
     32 H          -8.0888   -8.8001   28.5999 H       1  UNL1        0.2922
     33 C          -7.2333   -5.4191   30.2597 C.2     1  UNL1        0.3410
     34 O          -6.2897   -6.2543   30.2115 O.2     1  UNL1       -0.2450
     35 O          -6.9289   -4.0668   30.3904 O.3     1  UNL1       -0.4770
     36 H          -5.9679   -3.7526   30.4525 H       1  UNL1        0.2954
@<TRIPOS>BOND
     1    14    15    1
     2    15    16    1
     3    16    17   ar
     4    17    18   ar
     5    18    19   ar
     6    19    20    1
     7    19    21   ar
     8    21    22   ar
     9    22    23    1
    10    15     1    1
    11     1    24    1
    12    24    25    1
    13    25    26   ar
    14    26    27   ar
    15    27    28   ar
    16    28    29   ar
    17    29    33    1
    18    33    34    2
    19    33    35    1
    20    29    30   ar
    21    30    31    1
    22     1     2   am
    23     2     3    2
    24     2     4    1
    25     4     5   ar
    26     5     6   ar
    27     6     7   ar
    28     7     8   ar
    29     8     9   ar
    30     9    10   ar
    31    10    11   ar
    32    11    12   ar
    33    12    13   ar
    34    22    16   ar
    35    30    25   ar
    36    13     4   ar
    37    11     6   ar
    38    35    36    1
    39    31    32    1
@<TRIPOS>MOLECULE
*****
 36 39 0 0 0
SMALL
GASTEIGER

@<TRIPOS>ATOM
      1 N          -9.7245   -9.8393   31.3648 N.am    1  UNL1       -0.2684
      2 C          -9.4542  -11.2474   31.4922 C.2     1  UNL1        0.2672
      3 O          -8.2753  -11.6660   31.3349 O.2     1  UNL1       -0.2682
      4 C         -10.5293  -12.1976   31.8457 C.ar    1  UNL1        0.1347
      5 C         -10.5590  -12.8186   33.1048 C.ar    1  UNL1        0.0238
      6 C         -11.6003  -13.7034   33.4145 C.ar    1  UNL1        0.0031
      7 C         -11.6537  -14.3446   34.6620 C.ar    1  UNL1        0.0001
      8 C         -12.7003  -15.2249   34.9535 C.ar    1  UNL1        0.0000
      9 C         -13.6979  -15.4708   34.0054 C.ar    1  UNL1        0.0000
     10 C         -13.6556  -14.8379   32.7594 C.ar    1  UNL1        0.0015
     11 C         -12.6096  -13.9530   32.4574 C.ar    1  UNL1        0.0192
     12 C         -12.5447  -13.3055   31.2179 C.ar    1  UNL1        0.0989
     13 N         -11.5214  -12.4533   30.9484 N.ar    1  UNL1       -0.2393
     14 C         -10.4727  -10.0733   29.0106 C.3     1  UNL1        0.0265
     15 C         -10.7265   -9.3910   30.3647 C.3     1  UNL1        0.1007
     16 C         -10.8370   -7.8702   30.2630 C.ar    1  UNL1        0.0234
     17 C          -9.9911   -7.1102   29.4257 C.ar    1  UNL1        0.0019
     18 C         -10.0829   -5.7161   29.3984 C.ar    1  UNL1        0.0295
     19 C         -11.0141   -5.0587   30.2030 C.ar    1  UNL1        0.1424
     20 F         -11.0941   -3.7055   30.1805 F       1  UNL1       -0.2041
     21 C         -11.8576   -5.7947   31.0366 C.ar    1  UNL1        0.0590
     22 C         -11.7726   -7.1902   31.0706 C.ar    1  UNL1        0.1399
     23 F         -12.5898   -7.8772   31.9091 F       1  UNL1       -0.2044
     24 C          -9.0596   -8.9277   32.3165 C.3     1  UNL1        0.1237
     25 C          -7.6556   -8.5624   31.8727 C.ar    1  UNL1        0.0316
     26 C          -7.3580   -8.5898   30.4999 C.ar    1  UNL1        0.0004
     27 C          -6.1111   -8.1882   30.0324 C.ar    1  UNL1        0.0001
     28 C          -5.1334   -7.7597   30.9246 C.ar    1  UNL1        0.0095
     29 C          -5.3752   -7.7615   32.3090 C.ar    1  UNL1        0.1088
     30 C          -6.6278   -8.2128   32.7926 C.ar    1  UNL1        0.1374
     31 O          -6.8128   -8.3172   34.1755 O.3     1  UNL1       -0.5056
     32 H          -7.5800   -8.8048   34.6149 H       1  UNL1        0.2922
     33 C          -4.3063   -7.2936   33.2301 C.2     1  UNL1        0.3410
     34 O          -3.5053   -6.3907   32.8651 O.2     1  UNL1       -0.2450
     35 O          -4.1833   -7.8246   34.5113 O.3     1  UNL1       -0.4770
     36 H          -3.4608   -7.5000   35.1428 H       1  UNL1        0.2954
@<TRIPOS>BOND
     1    14    15    1
     2    15    16    1
     3    16    17   ar
     4    17    18   ar
     5    18    19   ar
     6    19    20    1
     7    19    21   ar
     8    21    22   ar
     9    22    23    1
    10    15     1    1
    11     1    24    1
    12    24    25    1
    13    25    26   ar
    14    26    27   ar
    15    27    28   ar
    16    28    29   ar
    17    29    33    1
    18    33    34    2
    19    33    35    1
    20    29    30   ar
    21    30    31    1
    22     1     2   am
    23     2     3    2
    24     2     4    1
    25     4     5   ar
    26     5     6   ar
    27     6     7   ar
    28     7     8   ar
    29     8     9   ar
    30     9    10   ar
    31    10    11   ar
    32    11    12   ar
    33    12    13   ar
    34    22    16   ar
    35    30    25   ar
    36    13     4   ar
    37    11     6   ar
    38    35    36    1
    39    31    32    1
@<TRIPOS>MOLECULE
*****
 36 39 0 0 0
SMALL
GASTEIGER

@<TRIPOS>ATOM
      1 N          -8.7414  -10.3585   30.9289 N.am    1  UNL1       -0.2684
      2 C          -9.6901  -11.4004   30.6346 C.2     1  UNL1        0.2672
      3 O          -9.9973  -11.6338   29.4343 O.2     1  UNL1       -0.2682
      4 C         -10.2725  -12.2237   31.7147 C.ar    1  UNL1        0.1347
      5 C         -11.4149  -13.0082   31.4887 C.ar    1  UNL1        0.0238
      6 C         -11.9339  -13.7892   32.5297 C.ar    1  UNL1        0.0031
      7 C         -13.0784  -14.5786   32.3363 C.ar    1  UNL1        0.0001
      8 C         -13.5826  -15.3514   33.3870 C.ar    1  UNL1        0.0000
      9 C         -12.9502  -15.3423   34.6338 C.ar    1  UNL1        0.0000
     10 C         -11.8095  -14.5603   34.8384 C.ar    1  UNL1        0.0015
     11 C         -11.2960  -13.7813   33.7906 C.ar    1  UNL1        0.0192
     12 C         -10.1546  -12.9907   33.9688 C.ar    1  UNL1        0.0989
     13 N          -9.6765  -12.2443   32.9391 N.ar    1  UNL1       -0.2393
     14 C         -10.3627   -9.6712   32.6772 C.3     1  UNL1        0.0265
     15 C          -9.1523   -9.2502   31.8278 C.3     1  UNL1        0.1007
     16 C          -9.3609   -7.9258   31.0944 C.ar    1  UNL1        0.0234
     17 C         -10.0793   -7.8444   29.8814 C.ar    1  UNL1        0.0019
     18 C         -10.2040   -6.6258   29.2088 C.ar    1  UNL1        0.0295
     19 C          -9.6160   -5.4732   29.7308 C.ar    1  UNL1        0.1424
     20 F          -9.7316   -4.2946   29.0710 F       1  UNL1       -0.2041
     21 C          -8.9023   -5.5363   30.9287 C.ar    1  UNL1        0.0590
     22 C          -8.7720   -6.7515   31.6084 C.ar    1  UNL1        0.1399
     23 F          -8.0517   -6.7862   32.7585 F       1  UNL1       -0.2044
     24 C          -7.3727  -10.5116   30.3981 C.3     1  UNL1        0.1237
     25 C          -6.5516   -9.2462   30.5602 C.ar    1  UNL1        0.0316
     26 C          -6.5154   -8.3297   29.4961 C.ar    1  UNL1        0.0004
     27 C          -5.8434   -7.1182   29.6209 C.ar    1  UNL1        0.0001
     28 C          -5.1871   -6.8004   30.8058 C.ar    1  UNL1        0.0095
     29 C          -5.1602   -7.7094   31.8772 C.ar    1  UNL1        0.1088
     30 C          -5.8045   -8.9632   31.7378 C.ar    1  UNL1        0.1374
     31 O          -5.6720   -9.9015   32.7671 O.3     1  UNL1       -0.5056
     32 H          -5.9188  -10.8772   32.6871 H       1  UNL1        0.2922
     33 C          -4.4508   -7.3320   33.1278 C.2     1  UNL1        0.3410
     34 O          -3.5210   -6.4807   33.0970 O.2     1  UNL1       -0.2450
     35 O          -4.8108   -7.8914   34.3509 O.3     1  UNL1       -0.4770
     36 H          -4.3339   -7.6281   35.2049 H       1  UNL1        0.2954
@<TRIPOS>BOND
     1    14    15    1
     2    15    16    1
     3    16    17   ar
     4    17    18   ar
     5    18    19   ar
     6    19    20    1
     7    19    21   ar
     8    21    22   ar
     9    22    23    1
    10    15     1    1
    11     1    24    1
    12    24    25    1
    13    25    26   ar
    14    26    27   ar
    15    27    28   ar
    16    28    29   ar
    17    29    33    1
    18    33    34    2
    19    33    35    1
    20    29    30   ar
    21    30    31    1
    22     1     2   am
    23     2     3    2
    24     2     4    1
    25     4     5   ar
    26     5     6   ar
    27     6     7   ar
    28     7     8   ar
    29     8     9   ar
    30     9    10   ar
    31    10    11   ar
    32    11    12   ar
    33    12    13   ar
    34    22    16   ar
    35    30    25   ar
    36    13     4   ar
    37    11     6   ar
    38    35    36    1
    39    31    32    1
@<TRIPOS>MOLECULE
*****
 36 39 0 0 0
SMALL
GASTEIGER

@<TRIPOS>ATOM
      1 N          -8.6724  -10.5987   31.8820 N.am    1  UNL1       -0.2684
      2 C          -9.2672  -11.8183   31.4016 C.2     1  UNL1        0.2672
      3 O          -8.9792  -12.2316   30.2458 O.2     1  UNL1       -0.2682
      4 C         -10.1735  -12.6099   32.2594 C.ar    1  UNL1        0.1347
      5 C         -11.2361  -13.3417   31.7054 C.ar    1  UNL1        0.0238
      6 C         -12.0685  -14.0942   32.5445 C.ar    1  UNL1        0.0031
      7 C         -13.1428  -14.8306   32.0212 C.ar    1  UNL1        0.0001
      8 C         -13.9634  -15.5755   32.8739 C.ar    1  UNL1        0.0000
      9 C         -13.7186  -15.5909   34.2502 C.ar    1  UNL1        0.0000
     10 C         -12.6514  -14.8616   34.7831 C.ar    1  UNL1        0.0015
     11 C         -11.8225  -14.1110   33.9359 C.ar    1  UNL1        0.0192
     12 C         -10.7467  -13.3732   34.4439 C.ar    1  UNL1        0.0989
     13 N          -9.9583  -12.6534   33.6035 N.ar    1  UNL1       -0.2393
     14 C         -10.9949  -10.0056   32.5232 C.3     1  UNL1        0.0265
     15 C          -9.5619   -9.4902   32.3122 C.3     1  UNL1        0.1007
     16 C          -9.4884   -8.2691   31.3963 C.ar    1  UNL1        0.0234
     17 C          -9.0431   -7.0107   31.8572 C.ar    1  UNL1        0.0019
     18 C          -9.0407   -5.9018   31.0068 C.ar    1  UNL1        0.0295
     19 C          -9.4816   -6.0274   29.6891 C.ar    1  UNL1        0.1424
     20 F          -9.4862   -4.9474   28.8697 F       1  UNL1       -0.2041
     21 C          -9.9254   -7.2640   29.2177 C.ar    1  UNL1        0.0590
     22 C          -9.9317   -8.3791   30.0616 C.ar    1  UNL1        0.1399
     23 F         -10.3913   -9.5628   29.5817 F       1  UNL1       -0.2044
     24 C          -7.2029  -10.5627   32.0168 C.3     1  UNL1        0.1237
     25 C          -6.5480   -9.7434   30.9207 C.ar    1  UNL1        0.0316
     26 C          -6.2502   -8.3949   31.1788 C.ar    1  UNL1        0.0004
     27 C          -5.5789   -7.6203   30.2385 C.ar    1  UNL1        0.0001
     28 C          -5.1990   -8.1722   29.0192 C.ar    1  UNL1        0.0095
     29 C          -5.5189   -9.5037   28.7036 C.ar    1  UNL1        0.1088
     30 C          -6.2424  -10.2827   29.6398 C.ar    1  UNL1        0.1374
     31 O          -6.6528  -11.5670   29.2663 O.3     1  UNL1       -0.5056
     32 H          -7.3293  -12.1209   29.7711 H       1  UNL1        0.2922
     33 C          -5.0930  -10.0581   27.3917 C.2     1  UNL1        0.3410
     34 O          -4.7942  -11.2787   27.2861 O.2     1  UNL1       -0.2450
     35 O          -5.0366   -9.2510   26.2586 O.3     1  UNL1       -0.4770
     36 H          -4.7552   -9.6301   25.3623 H       1  UNL1        0.2954
@<TRIPOS>BOND
     1    14    15    1
     2    15    16    1
     3    16    17   ar
     4    17    18   ar
     5    18    19   ar
     6    19    20    1
     7    19    21   ar
     8    21    22   ar
     9    22    23    1
    10    15     1    1
    11     1    24    1
    12    24    25    1
    13    25    26   ar
    14    26    27   ar
    15    27    28   ar
    16    28    29   ar
    17    29    33    1
    18    33    34    2
    19    33    35    1
    20    29    30   ar
    21    30    31    1
    22     1     2   am
    23     2     3    2
    24     2     4    1
    25     4     5   ar
    26     5     6   ar
    27     6     7   ar
    28     7     8   ar
    29     8     9   ar
    30     9    10   ar
    31    10    11   ar
    32    11    12   ar
    33    12    13   ar
    34    22    16   ar
    35    30    25   ar
    36    13     4   ar
    37    11     6   ar
    38    35    36    1
    39    31    32    1
@<TRIPOS>MOLECULE
*****
 36 39 0 0 0
SMALL
GASTEIGER

@<TRIPOS>ATOM
      1 N          -9.4965  -10.2886   31.8450 N.am    1  UNL1       -0.2684
      2 C          -9.1472  -11.6456   32.1746 C.2     1  UNL1        0.2672
      3 O          -7.9724  -12.0498   31.9597 O.2     1  UNL1       -0.2682
      4 C         -10.1329  -12.5528   32.7984 C.ar    1  UNL1        0.1347
      5 C         -11.0826  -13.2330   32.0193 C.ar    1  UNL1        0.0238
      6 C         -11.9940  -14.0976   32.6397 C.ar    1  UNL1        0.0031
      7 C         -12.9593  -14.7863   31.8886 C.ar    1  UNL1        0.0001
      8 C         -13.8611  -15.6449   32.5249 C.ar    1  UNL1        0.0000
      9 C         -13.8063  -15.8219   33.9106 C.ar    1  UNL1        0.0000
     10 C         -12.8491  -15.1415   34.6693 C.ar    1  UNL1        0.0015
     11 C         -11.9399  -14.2777   34.0403 C.ar    1  UNL1        0.0192
     12 C         -10.9711  -13.5858   34.7767 C.ar    1  UNL1        0.0989
     13 N         -10.1019  -12.7543   34.1450 N.ar    1  UNL1       -0.2393
     14 C         -10.4567  -10.9204   29.6459 C.3     1  UNL1        0.0265
     15 C         -10.6175  -10.0476   30.9014 C.3     1  UNL1        0.1007
     16 C         -10.8306   -8.5679   30.5846 C.ar    1  UNL1        0.0234
     17 C         -10.1260   -7.9123   29.5512 C.ar    1  UNL1        0.0019
     18 C         -10.3048   -6.5450   29.3246 C.ar    1  UNL1        0.0295
     19 C         -11.1838   -5.8110   30.1216 C.ar    1  UNL1        0.1424
     20 F         -11.3480   -4.4830   29.9045 F       1  UNL1       -0.2041
     21 C         -11.8879   -6.4436   31.1475 C.ar    1  UNL1        0.0590
     22 C         -11.7150   -7.8114   31.3818 C.ar    1  UNL1        0.1399
     23 F         -12.3953   -8.3936   32.4020 F       1  UNL1       -0.2044
     24 C          -8.7806   -9.2085   32.5519 C.3     1  UNL1        0.1237
     25 C          -7.6931   -8.5874   31.6956 C.ar    1  UNL1        0.0316
     26 C          -6.7122   -9.4282   31.1437 C.ar    1  UNL1        0.0004
     27 C          -5.7393   -8.9229   30.2876 C.ar    1  UNL1        0.0001
     28 C          -5.7199   -7.5682   29.9716 C.ar    1  UNL1        0.0095
     29 C          -6.6549   -6.6856   30.5390 C.ar    1  UNL1        0.1088
     30 C          -7.6191   -7.1882   31.4469 C.ar    1  UNL1        0.1374
     31 O          -8.4683   -6.2816   32.0907 O.3     1  UNL1       -0.5056
     32 H          -9.0463   -6.5059   32.8875 H       1  UNL1        0.2922
     33 C          -6.6034   -5.2455   30.1743 C.2     1  UNL1        0.3410
     34 O          -5.5821   -4.7714   29.6064 O.2     1  UNL1       -0.2450
     35 O          -7.6819   -4.4034   30.4319 O.3     1  UNL1       -0.4770
     36 H          -7.6511   -3.4239   30.1755 H       1  UNL1        0.2954
@<TRIPOS>BOND
     1    14    15    1
     2    15    16    1
     3    16    17   ar
     4    17    18   ar
     5    18    19   ar
     6    19    20    1
     7    19    21   ar
     8    21    22   ar
     9    22    23    1
    10    15     1    1
    11     1    24    1
    12    24    25    1
    13    25    26   ar
    14    26    27   ar
    15    27    28   ar
    16    28    29   ar
    17    29    33    1
    18    33    34    2
    19    33    35    1
    20    29    30   ar
    21    30    31    1
    22     1     2   am
    23     2     3    2
    24     2     4    1
    25     4     5   ar
    26     5     6   ar
    27     6     7   ar
    28     7     8   ar
    29     8     9   ar
    30     9    10   ar
    31    10    11   ar
    32    11    12   ar
    33    12    13   ar
    34    22    16   ar
    35    30    25   ar
    36    13     4   ar
    37    11     6   ar
    38    35    36    1
    39    31    32    1
@<TRIPOS>MOLECULE
*****
 36 39 0 0 0
SMALL
GASTEIGER

@<TRIPOS>ATOM
      1 N         -10.7369   -9.5234   31.2913 N.am    1  UNL1       -0.2684
      2 C         -11.0098  -10.2123   32.5254 C.2     1  UNL1        0.2672
      3 O         -10.5867   -9.7270   33.6094 O.2     1  UNL1       -0.2682
      4 C         -11.8128  -11.4527   32.5406 C.ar    1  UNL1        0.1347
      5 C         -11.4605  -12.5309   33.3682 C.ar    1  UNL1        0.0238
      6 C         -12.2512  -13.6876   33.3703 C.ar    1  UNL1        0.0031
      7 C         -11.9210  -14.7845   34.1816 C.ar    1  UNL1        0.0001
      8 C         -12.7215  -15.9308   34.1704 C.ar    1  UNL1        0.0000
      9 C         -13.8537  -15.9907   33.3524 C.ar    1  UNL1        0.0000
     10 C         -14.1929  -14.9045   32.5402 C.ar    1  UNL1        0.0015
     11 C         -13.3960  -13.7498   32.5441 C.ar    1  UNL1        0.0192
     12 C         -13.7143  -12.6480   31.7414 C.ar    1  UNL1        0.0989
     13 N         -12.9267  -11.5411   31.7620 N.ar    1  UNL1       -0.2393
     14 C         -10.7317  -11.5614   29.8758 C.3     1  UNL1        0.0265
     15 C         -10.0129  -10.2452   30.2143 C.3     1  UNL1        0.1007
     16 C          -8.5243  -10.4284   30.5074 C.ar    1  UNL1        0.0234
     17 C          -8.0592  -11.3071   31.5103 C.ar    1  UNL1        0.0019
     18 C          -6.6937  -11.4092   31.7893 C.ar    1  UNL1        0.0295
     19 C          -5.7730  -10.6395   31.0776 C.ar    1  UNL1        0.1424
     20 F          -4.4499  -10.7347   31.3572 F       1  UNL1       -0.2041
     21 C          -6.2159   -9.7659   30.0832 C.ar    1  UNL1        0.0590
     22 C          -7.5805   -9.6569   29.7974 C.ar    1  UNL1        0.1399
     23 F          -7.9830   -8.7811   28.8415 F       1  UNL1       -0.2044
     24 C         -11.2897   -8.1641   31.1315 C.3     1  UNL1        0.1237
     25 C         -10.2184   -7.1484   30.7820 C.ar    1  UNL1        0.0316
     26 C         -10.4612   -6.2545   29.7258 C.ar    1  UNL1        0.0004
     27 C          -9.5475   -5.2529   29.4150 C.ar    1  UNL1        0.0001
     28 C          -8.3699   -5.1281   30.1452 C.ar    1  UNL1        0.0095
     29 C          -8.0677   -6.0307   31.1791 C.ar    1  UNL1        0.1088
     30 C          -8.9741   -7.0800   31.4691 C.ar    1  UNL1        0.1374
     31 O          -8.6071   -8.0369   32.4216 O.3     1  UNL1       -0.5056
     32 H          -9.0806   -8.9179   32.5593 H       1  UNL1        0.2922
     33 C          -6.8008   -5.8626   31.9383 C.2     1  UNL1        0.3410
     34 O          -5.7092   -5.7130   31.3248 O.2     1  UNL1       -0.2450
     35 O          -6.7980   -5.8463   33.3305 O.3     1  UNL1       -0.4770
     36 H          -5.9363   -5.7228   33.8485 H       1  UNL1        0.2954
@<TRIPOS>BOND
     1    14    15    1
     2    15    16    1
     3    16    17   ar
     4    17    18   ar
     5    18    19   ar
     6    19    20    1
     7    19    21   ar
     8    21    22   ar
     9    22    23    1
    10    15     1    1
    11     1    24    1
    12    24    25    1
    13    25    26   ar
    14    26    27   ar
    15    27    28   ar
    16    28    29   ar
    17    29    33    1
    18    33    34    2
    19    33    35    1
    20    29    30   ar
    21    30    31    1
    22     1     2   am
    23     2     3    2
    24     2     4    1
    25     4     5   ar
    26     5     6   ar
    27     6     7   ar
    28     7     8   ar
    29     8     9   ar
    30     9    10   ar
    31    10    11   ar
    32    11    12   ar
    33    12    13   ar
    34    22    16   ar
    35    30    25   ar
    36    13     4   ar
    37    11     6   ar
    38    35    36    1
    39    31    32    1
