@<TRIPOS>MOLECULE
*****
 51 57 0 0 0
SMALL
GASTEIGER

@<TRIPOS>ATOM
      1 C          58.2216   81.3546    9.8033 C.ar    1  UNL1        0.0481
      2 C          58.1773   82.0467   11.0287 C.ar    1  UNL1        0.0176
      3 C          58.2009   81.3511   12.2395 C.ar    1  UNL1        0.0382
      4 C          58.3107   79.9506   12.2544 C.ar    1  UNL1        0.1388
      5 C          58.3145   79.2580   11.0398 C.ar    1  UNL1        0.0382
      6 C          58.2668   79.9493    9.8261 C.ar    1  UNL1        0.0176
      7 N          59.3324   84.4622    8.0043 N.pl3   1  UNL1       -0.3041
      8 C          59.8274   83.3974    7.1186 C.3     1  UNL1        0.1122
      9 C          59.5494   82.0310    7.7663 C.3     1  UNL1        0.1122
     10 N          58.2959   82.0646    8.5444 N.pl3   1  UNL1       -0.3041
     11 C          57.2898   83.0683    8.1631 C.3     1  UNL1        0.1122
     12 C          57.8936   84.4721    8.3288 C.3     1  UNL1        0.1122
     13 C          61.8767   87.0268   10.2731 C.ar    1  UNL1        0.0699
     14 C          62.1136   86.8130    8.9057 C.ar    1  UNL1        0.0190
     15 C          61.2983   85.9477    8.1707 C.ar    1  UNL1        0.0160
     16 C          60.2392   85.2655    8.7914 C.ar    1  UNL1        0.0480
     17 C          60.0384   85.4401   10.1725 C.ar    1  UNL1        0.0160
     18 C          60.8546   86.3031   10.9053 C.ar    1  UNL1        0.0190
     19 N          63.8431   89.0058   12.5841 N.ar    1  UNL1       -0.2024
     20 N          63.9654   89.7383   11.4866 N.ar    1  UNL1       -0.1442
     21 C          63.2241   89.1272   10.5368 C.ar    1  UNL1        0.2073
     22 N          62.6364   88.0043   11.0090 N.ar    1  UNL1       -0.2398
     23 C          63.0585   87.9558   12.2876 C.ar    1  UNL1        0.3522
     24 O          62.7981   87.0208   13.0911 O.2     1  UNL1       -0.2444
     25 C          64.5925   89.2253   13.8260 C.3     1  UNL1        0.1099
     26 C          65.4856   90.4589   13.6718 C.3     1  UNL1        0.0265
     27 C          64.0440   90.5576   15.9208 C.3     1  UNL1        0.0021
     28 C          63.6421   89.3842   15.0284 C.3     1  UNL1        0.0245
     29 O          58.4200   79.2104   13.4426 O.3     1  UNL1       -0.4727
     30 C          59.6374   78.8873   14.1188 C.3     1  UNL1        0.2374
     31 C          60.8497   79.5149   13.4104 C.3     1  UNL1        0.1909
     32 C          62.1361   79.2171   14.1208 C.3     1  UNL1        0.1783
     33 O          62.9398   80.3361   13.9328 O.3     1  UNL1       -0.3271
     34 C          62.0774   81.3912   13.5424 C.3     1  UNL1        0.2232
     35 O          60.7585   80.9040   13.3869 O.3     1  UNL1       -0.3258
     36 C          62.5978   81.9926   12.2310 C.ar    1  UNL1        0.0404
     37 C          61.7724   81.9183   11.0870 C.ar    1  UNL1        0.0021
     38 C          62.1794   82.4578    9.8664 C.ar    1  UNL1        0.0113
     39 C          63.4250   83.0700    9.7533 C.ar    1  UNL1        0.0585
     40 CL         63.9143   83.7904    8.2311 Cl      1  UNL1       -0.0822
     41 C          64.2807   83.1115   10.8534 C.ar    1  UNL1        0.0226
     42 C          63.8934   82.5660   12.0844 C.ar    1  UNL1        0.0591
     43 CL         65.0973   82.6040   13.3713 Cl      1  UNL1       -0.0824
     44 C          62.0921   82.4430   14.6727 C.3     1  UNL1        0.1338
     45 N          61.7203   83.7921   14.1787 N.3     1  UNL1       -0.2659
     46 C          60.2472   83.9498   14.0911 C.3     1  UNL1        0.0898
     47 C          59.8404   85.4253   14.1198 C.3     1  UNL1        0.0897
     48 N          60.1939   86.0371   15.4202 N.3     1  UNL1       -0.2691
     49 C          60.2446   87.5012   15.3003 C.3     1  UNL1        0.0897
     50 C          61.4448   85.4939   16.0084 C.3     1  UNL1        0.0897
     51 C          62.3780   84.8839   14.9468 C.3     1  UNL1        0.0898
@<TRIPOS>BOND
     1    27    28    1
     2    28    25    1
     3    25    26    1
     4    25    19    1
     5    19    20   ar
     6    20    21   ar
     7    21    22   ar
     8    22    13    1
     9    13    14   ar
    10    14    15   ar
    11    15    16   ar
    12    16     7    1
    13     7     8    1
    14     8     9    1
    15     9    10    1
    16    10     1    1
    17     1     2   ar
    18     2     3   ar
    19     3     4   ar
    20     4    29    1
    21    29    30    1
    22    30    31    1
    23    31    32    1
    24    32    33    1
    25    33    34    1
    26    34    44    1
    27    44    45    1
    28    45    46    1
    29    46    47    1
    30    47    48    1
    31    48    49    1
    32    48    50    1
    33    50    51    1
    34    34    36    1
    35    36    37   ar
    36    37    38   ar
    37    38    39   ar
    38    39    40    1
    39    39    41   ar
    40    41    42   ar
    41    42    43    1
    42    34    35    1
    43     4     5   ar
    44     5     6   ar
    45    10    11    1
    46    11    12    1
    47    16    17   ar
    48    17    18   ar
    49    22    23   ar
    50    23    24    2
    51    23    19   ar
    52    18    13   ar
    53    12     7    1
    54     6     1   ar
    55    35    31    1
    56    51    45    1
    57    42    36   ar
@<TRIPOS>MOLECULE
*****
 51 57 0 0 0
SMALL
GASTEIGER

@<TRIPOS>ATOM
      1 C          59.0349   85.6167   12.9892 C.ar    1  UNL1        0.0481
      2 C          58.2153   84.5162   12.6735 C.ar    1  UNL1        0.0176
      3 C          57.9061   84.2178   11.3446 C.ar    1  UNL1        0.0382
      4 C          58.4419   84.9873   10.2985 C.ar    1  UNL1        0.1388
      5 C          59.2233   86.1043   10.6101 C.ar    1  UNL1        0.0382
      6 C          59.5152   86.4202   11.9398 C.ar    1  UNL1        0.0176
      7 N          61.7151   86.9300   15.2738 N.pl3   1  UNL1       -0.3041
      8 C          60.5102   87.5921   15.7964 C.3     1  UNL1        0.1122
      9 C          59.3124   87.2458   14.8967 C.3     1  UNL1        0.1122
     10 N          59.4426   85.8803   14.3525 N.pl3   1  UNL1       -0.3041
     11 C          60.2669   84.9258   15.1105 C.3     1  UNL1        0.1122
     12 C          61.7071   85.4575   15.1880 C.3     1  UNL1        0.1122
     13 C          64.5748   89.3155   13.1931 C.ar    1  UNL1        0.0699
     14 C          63.5864   88.6089   12.4893 C.ar    1  UNL1        0.0190
     15 C          62.6698   87.8024   13.1699 C.ar    1  UNL1        0.0160
     16 C          62.7326   87.6729   14.5668 C.ar    1  UNL1        0.0480
     17 C          63.7573   88.3388   15.2631 C.ar    1  UNL1        0.0160
     18 C          64.6729   89.1422   14.5818 C.ar    1  UNL1        0.0190
     19 N          66.3087   91.6183   10.9988 N.ar    1  UNL1       -0.2024
     20 N          66.9537   91.8464   12.1337 N.ar    1  UNL1       -0.1442
     21 C          66.4289   91.0000   13.0464 C.ar    1  UNL1        0.2073
     22 N          65.4463   90.2387   12.5131 N.ar    1  UNL1       -0.2398
     23 C          65.3922   90.6644   11.2360 C.ar    1  UNL1        0.3522
     24 O          64.5562   90.2620   10.3834 O.2     1  UNL1       -0.2444
     25 C          66.4614   92.4111    9.7740 C.3     1  UNL1        0.1099
     26 C          66.0020   93.8477   10.0356 C.3     1  UNL1        0.0265
     27 C          68.4241   90.9576    9.0676 C.3     1  UNL1        0.0021
     28 C          67.9181   92.3848    9.2725 C.3     1  UNL1        0.0245
     29 O          58.2285   84.6815    8.9448 O.3     1  UNL1       -0.4727
     30 C          59.2464   84.4811    7.9612 C.3     1  UNL1        0.2374
     31 C          60.5965   84.1491    8.6187 C.3     1  UNL1        0.1909
     32 C          61.5338   83.4636    7.6700 C.3     1  UNL1        0.1783
     33 O          62.2801   82.5833    8.4456 O.3     1  UNL1       -0.3271
     34 C          61.5679   82.4115    9.6591 C.3     1  UNL1        0.2232
     35 O          60.4377   83.2621    9.6800 O.3     1  UNL1       -0.3258
     36 C          62.5087   82.7212   10.8301 C.ar    1  UNL1        0.0404
     37 C          62.1662   83.7788   11.7018 C.ar    1  UNL1        0.0021
     38 C          62.9709   84.1036   12.7942 C.ar    1  UNL1        0.0113
     39 C          64.1438   83.3926   13.0346 C.ar    1  UNL1        0.0585
     40 CL         65.1283   83.7706   14.4358 Cl      1  UNL1       -0.0822
     41 C          64.5318   82.3778   12.1607 C.ar    1  UNL1        0.0226
     42 C          63.7419   82.0443   11.0527 C.ar    1  UNL1        0.0591
     43 CL         64.3849   80.8044    9.9773 Cl      1  UNL1       -0.0824
     44 C          61.0904   80.9441    9.7117 C.3     1  UNL1        0.1338
     45 N          59.9977   80.7521   10.6972 N.3     1  UNL1       -0.2659
     46 C          59.1717   79.5646   10.3655 C.3     1  UNL1        0.0898
     47 C          58.4263   79.0411   11.5959 C.3     1  UNL1        0.0897
     48 N          59.3821   78.5458   12.6114 N.3     1  UNL1       -0.2691
     49 C          58.7395   78.4836   13.9320 C.3     1  UNL1        0.0897
     50 C          60.6494   79.3188   12.6570 C.3     1  UNL1        0.0897
     51 C          60.4889   80.7457   12.1019 C.3     1  UNL1        0.0898
@<TRIPOS>BOND
     1    27    28    1
     2    28    25    1
     3    25    26    1
     4    25    19    1
     5    19    20   ar
     6    20    21   ar
     7    21    22   ar
     8    22    13    1
     9    13    14   ar
    10    14    15   ar
    11    15    16   ar
    12    16     7    1
    13     7     8    1
    14     8     9    1
    15     9    10    1
    16    10     1    1
    17     1     2   ar
    18     2     3   ar
    19     3     4   ar
    20     4    29    1
    21    29    30    1
    22    30    31    1
    23    31    32    1
    24    32    33    1
    25    33    34    1
    26    34    44    1
    27    44    45    1
    28    45    46    1
    29    46    47    1
    30    47    48    1
    31    48    49    1
    32    48    50    1
    33    50    51    1
    34    34    36    1
    35    36    37   ar
    36    37    38   ar
    37    38    39   ar
    38    39    40    1
    39    39    41   ar
    40    41    42   ar
    41    42    43    1
    42    34    35    1
    43     4     5   ar
    44     5     6   ar
    45    10    11    1
    46    11    12    1
    47    16    17   ar
    48    17    18   ar
    49    22    23   ar
    50    23    24    2
    51    23    19   ar
    52    18    13   ar
    53    12     7    1
    54     6     1   ar
    55    35    31    1
    56    51    45    1
    57    42    36   ar
@<TRIPOS>MOLECULE
*****
 51 57 0 0 0
SMALL
GASTEIGER

@<TRIPOS>ATOM
      1 C          61.5104   84.3797    9.0406 C.ar    1  UNL1        0.0481
      2 C          61.0835   83.0869    9.3996 C.ar    1  UNL1        0.0176
      3 C          62.0128   82.0917    9.7102 C.ar    1  UNL1        0.0382
      4 C          63.3885   82.3764    9.7092 C.ar    1  UNL1        0.1388
      5 C          63.8174   83.6474    9.3144 C.ar    1  UNL1        0.0382
      6 C          62.8912   84.6390    8.9796 C.ar    1  UNL1        0.0176
      7 N          60.5613   87.9513    9.7261 N.pl3   1  UNL1       -0.3041
      8 C          60.3959   87.8609    8.2675 C.3     1  UNL1        0.1122
      9 C          60.8525   86.4720    7.7919 C.3     1  UNL1        0.1122
     10 N          60.5591   85.4458    8.8111 N.pl3   1  UNL1       -0.3041
     11 C          59.4700   85.7267    9.7597 C.3     1  UNL1        0.1122
     12 C          59.8173   86.9908   10.5625 C.3     1  UNL1        0.1122
     13 C          63.8803   89.9896   11.4661 C.ar    1  UNL1        0.0699
     14 C          62.9111   89.3793   12.2783 C.ar    1  UNL1        0.0190
     15 C          61.8073   88.7392   11.7075 C.ar    1  UNL1        0.0160
     16 C          61.6414   88.7101   10.3132 C.ar    1  UNL1        0.0480
     17 C          62.5853   89.3691    9.5052 C.ar    1  UNL1        0.0160
     18 C          63.6858   90.0094   10.0769 C.ar    1  UNL1        0.0190
     19 N          66.8352   90.8990   13.3544 N.ar    1  UNL1       -0.2024
     20 N          67.0413   91.5974   12.2472 N.ar    1  UNL1       -0.1442
     21 C          65.9666   91.3838   11.4571 C.ar    1  UNL1        0.2073
     22 N          65.0780   90.5471   12.0397 N.ar    1  UNL1       -0.2398
     23 C          65.6632   90.2557   13.2177 C.ar    1  UNL1        0.3522
     24 O          65.2017   89.4436   14.0634 O.2     1  UNL1       -0.2444
     25 C          67.8148   90.7300   14.4332 C.3     1  UNL1        0.1099
     26 C          69.2291   90.8739   13.8655 C.3     1  UNL1        0.0265
     27 C          68.8173   92.5866   15.8517 C.3     1  UNL1        0.0021
     28 C          67.5739   91.7453   15.5670 C.3     1  UNL1        0.0245
     29 O          64.3586   81.4361   10.0917 O.3     1  UNL1       -0.4727
     30 C          64.4382   80.7847   11.3618 C.3     1  UNL1        0.2374
     31 C          64.2088   81.7798   12.5118 C.3     1  UNL1        0.1909
     32 C          64.1654   81.0998   13.8475 C.3     1  UNL1        0.1783
     33 O          63.2590   81.8259   14.6122 O.3     1  UNL1       -0.3271
     34 C          62.4860   82.5910   13.7031 C.3     1  UNL1        0.2232
     35 O          62.9791   82.4209   12.3881 O.3     1  UNL1       -0.3258
     36 C          62.5459   84.0644   14.1247 C.ar    1  UNL1        0.0404
     37 C          61.3739   84.8436   14.0021 C.ar    1  UNL1        0.0021
     38 C          61.3565   86.1862   14.3806 C.ar    1  UNL1        0.0113
     39 C          62.5105   86.7882   14.8754 C.ar    1  UNL1        0.0585
     40 CL         62.4735   88.4624   15.3963 Cl      1  UNL1       -0.0822
     41 C          63.6943   86.0562   14.9587 C.ar    1  UNL1        0.0226
     42 C          63.7337   84.7097   14.5736 C.ar    1  UNL1        0.0591
     43 CL         65.3085   83.9208   14.6440 Cl      1  UNL1       -0.0824
     44 C          61.0374   82.0603   13.7666 C.3     1  UNL1        0.1338
     45 N          60.7205   81.1764   12.6175 N.3     1  UNL1       -0.2659
     46 C          61.0306   79.7577   12.9237 C.3     1  UNL1        0.0898
     47 C          60.2399   78.8058   12.0225 C.3     1  UNL1        0.0897
     48 N          58.7886   78.9249   12.2863 N.3     1  UNL1       -0.2691
     49 C          58.0170   78.3942   11.1533 C.3     1  UNL1        0.0897
     50 C          58.3631   80.3035   12.6385 C.3     1  UNL1        0.0897
     51 C          59.3357   81.3731   12.1094 C.3     1  UNL1        0.0898
@<TRIPOS>BOND
     1    27    28    1
     2    28    25    1
     3    25    26    1
     4    25    19    1
     5    19    20   ar
     6    20    21   ar
     7    21    22   ar
     8    22    13    1
     9    13    14   ar
    10    14    15   ar
    11    15    16   ar
    12    16     7    1
    13     7     8    1
    14     8     9    1
    15     9    10    1
    16    10     1    1
    17     1     2   ar
    18     2     3   ar
    19     3     4   ar
    20     4    29    1
    21    29    30    1
    22    30    31    1
    23    31    32    1
    24    32    33    1
    25    33    34    1
    26    34    44    1
    27    44    45    1
    28    45    46    1
    29    46    47    1
    30    47    48    1
    31    48    49    1
    32    48    50    1
    33    50    51    1
    34    34    36    1
    35    36    37   ar
    36    37    38   ar
    37    38    39   ar
    38    39    40    1
    39    39    41   ar
    40    41    42   ar
    41    42    43    1
    42    34    35    1
    43     4     5   ar
    44     5     6   ar
    45    10    11    1
    46    11    12    1
    47    16    17   ar
    48    17    18   ar
    49    22    23   ar
    50    23    24    2
    51    23    19   ar
    52    18    13   ar
    53    12     7    1
    54     6     1   ar
    55    35    31    1
    56    51    45    1
    57    42    36   ar
@<TRIPOS>MOLECULE
*****
 51 57 0 0 0
SMALL
GASTEIGER

@<TRIPOS>ATOM
      1 C          61.9124   84.2622   14.9290 C.ar    1  UNL1        0.0481
      2 C          61.2263   83.0362   14.8349 C.ar    1  UNL1        0.0176
      3 C          61.7796   81.9638   14.1320 C.ar    1  UNL1        0.0382
      4 C          63.0493   82.0781   13.5417 C.ar    1  UNL1        0.1388
      5 C          63.7153   83.3062   13.5990 C.ar    1  UNL1        0.0382
      6 C          63.1540   84.3892   14.2812 C.ar    1  UNL1        0.0176
      7 N          62.1921   87.8917   15.8648 N.pl3   1  UNL1       -0.3041
      8 C          60.7471   87.7410   15.6355 C.3     1  UNL1        0.1122
      9 C          60.4610   86.3170   15.1311 C.3     1  UNL1        0.1122
     10 N          61.3974   85.3488   15.7342 N.pl3   1  UNL1       -0.3041
     11 C          62.0055   85.7097   17.0246 C.3     1  UNL1        0.1122
     12 C          62.8283   86.9962   16.8492 C.3     1  UNL1        0.1122
     13 C          64.8258   89.9452   13.2106 C.ar    1  UNL1        0.0699
     14 C          64.7677   90.2924   14.5699 C.ar    1  UNL1        0.0190
     15 C          63.8814   89.6404   15.4319 C.ar    1  UNL1        0.0160
     16 C          63.0233   88.6388   14.9495 C.ar    1  UNL1        0.0480
     17 C          63.0457   88.3315   13.5771 C.ar    1  UNL1        0.0160
     18 C          63.9299   88.9848   12.7173 C.ar    1  UNL1        0.0190
     19 N          66.7946   91.5883   10.6517 N.ar    1  UNL1       -0.2024
     20 N          67.6962   91.4988   11.6188 N.ar    1  UNL1       -0.1442
     21 C          67.0964   90.8476   12.6391 C.ar    1  UNL1        0.2073
     22 N          65.8161   90.5281   12.3424 N.ar    1  UNL1       -0.2398
     23 C          65.6615   91.0197   11.0977 C.ar    1  UNL1        0.3522
     24 O          64.5804   90.9997   10.4505 O.2     1  UNL1       -0.2444
     25 C          66.9732   92.3433    9.4067 C.3     1  UNL1        0.1099
     26 C          66.5700   93.8026    9.6326 C.3     1  UNL1        0.0265
     27 C          68.8238   90.8088    8.5793 C.3     1  UNL1        0.0021
     28 C          68.4260   92.2484    8.9023 C.3     1  UNL1        0.0245
     29 O          63.6848   81.0064   12.8943 O.3     1  UNL1       -0.4727
     30 C          64.3991   81.0798   11.6581 C.3     1  UNL1        0.2374
     31 C          63.4407   81.2938   10.4745 C.3     1  UNL1        0.1909
     32 C          63.8252   82.4810    9.6433 C.3     1  UNL1        0.1783
     33 O          62.6306   83.0205    9.1791 O.3     1  UNL1       -0.3271
     34 C          61.6042   82.4993   10.0062 C.3     1  UNL1        0.2232
     35 O          62.1463   81.5589   10.9135 O.3     1  UNL1       -0.3258
     36 C          60.5370   81.8502    9.1163 C.ar    1  UNL1        0.0404
     37 C          60.6012   82.0740    7.7230 C.ar    1  UNL1        0.0021
     38 C          59.6699   81.5018    6.8559 C.ar    1  UNL1        0.0113
     39 C          58.6436   80.7062    7.3584 C.ar    1  UNL1        0.0585
     40 CL         57.5032   79.9484    6.2626 Cl      1  UNL1       -0.0822
     41 C          58.5266   80.5109    8.7340 C.ar    1  UNL1        0.0226
     42 C          59.4462   81.0857    9.6209 C.ar    1  UNL1        0.0591
     43 CL         59.1387   80.8362   11.3386 Cl      1  UNL1       -0.0824
     44 C          61.0096   83.6793   10.8049 C.3     1  UNL1        0.1338
     45 N          61.6747   84.9638   10.4731 N.3     1  UNL1       -0.2659
     46 C          61.2400   85.4725    9.1484 C.3     1  UNL1        0.0898
     47 C          61.4638   86.9821    9.0287 C.3     1  UNL1        0.0897
     48 N          60.6130   87.7124    9.9946 N.3     1  UNL1       -0.2691
     49 C          61.1377   89.0673   10.2170 C.3     1  UNL1        0.0897
     50 C          60.4157   86.9865   11.2752 C.3     1  UNL1        0.0897
     51 C          61.5407   85.9742   11.5574 C.3     1  UNL1        0.0898
@<TRIPOS>BOND
     1    27    28    1
     2    28    25    1
     3    25    26    1
     4    25    19    1
     5    19    20   ar
     6    20    21   ar
     7    21    22   ar
     8    22    13    1
     9    13    14   ar
    10    14    15   ar
    11    15    16   ar
    12    16     7    1
    13     7     8    1
    14     8     9    1
    15     9    10    1
    16    10     1    1
    17     1     2   ar
    18     2     3   ar
    19     3     4   ar
    20     4    29    1
    21    29    30    1
    22    30    31    1
    23    31    32    1
    24    32    33    1
    25    33    34    1
    26    34    44    1
    27    44    45    1
    28    45    46    1
    29    46    47    1
    30    47    48    1
    31    48    49    1
    32    48    50    1
    33    50    51    1
    34    34    36    1
    35    36    37   ar
    36    37    38   ar
    37    38    39   ar
    38    39    40    1
    39    39    41   ar
    40    41    42   ar
    41    42    43    1
    42    34    35    1
    43     4     5   ar
    44     5     6   ar
    45    10    11    1
    46    11    12    1
    47    16    17   ar
    48    17    18   ar
    49    22    23   ar
    50    23    24    2
    51    23    19   ar
    52    18    13   ar
    53    12     7    1
    54     6     1   ar
    55    35    31    1
    56    51    45    1
    57    42    36   ar
@<TRIPOS>MOLECULE
*****
 51 57 0 0 0
SMALL
GASTEIGER

@<TRIPOS>ATOM
      1 C          59.3628   81.8500    8.4464 C.ar    1  UNL1        0.0481
      2 C          58.2513   81.5789    9.2672 C.ar    1  UNL1        0.0176
      3 C          58.2491   80.4716   10.1182 C.ar    1  UNL1        0.0382
      4 C          59.3733   79.6330   10.1991 C.ar    1  UNL1        0.1388
      5 C          60.4623   79.8763    9.3565 C.ar    1  UNL1        0.0382
      6 C          60.4586   80.9696    8.4860 C.ar    1  UNL1        0.0176
      7 N          60.0438   85.5445    8.3253 N.pl3   1  UNL1       -0.3041
      8 C          60.8030   85.0510    7.1662 C.3     1  UNL1        0.1122
      9 C          60.7225   83.5161    7.1253 C.3     1  UNL1        0.1122
     10 N          59.4191   83.0455    7.6327 N.pl3   1  UNL1       -0.3041
     11 C          58.2848   83.9793    7.5524 C.3     1  UNL1        0.1122
     12 C          58.6041   85.2296    8.3877 C.3     1  UNL1        0.1122
     13 C          62.2000   87.0419   11.6877 C.ar    1  UNL1        0.0699
     14 C          62.4219   85.7366   11.2203 C.ar    1  UNL1        0.0190
     15 C          61.6919   85.2362   10.1384 C.ar    1  UNL1        0.0160
     16 C          60.7135   86.0250    9.5116 C.ar    1  UNL1        0.0480
     17 C          60.4559   87.3122   10.0167 C.ar    1  UNL1        0.0160
     18 C          61.1843   87.8096   11.0983 C.ar    1  UNL1        0.0190
     19 N          64.2406   89.0197   13.9346 N.ar    1  UNL1       -0.2024
     20 N          63.9692   87.9842   14.7158 N.ar    1  UNL1       -0.1442
     21 C          63.2384   87.1267   13.9705 C.ar    1  UNL1        0.2073
     22 N          63.0277   87.6050   12.7231 N.ar    1  UNL1       -0.2398
     23 C          63.6580   88.7956   12.7444 C.ar    1  UNL1        0.3522
     24 O          63.6591   89.6207   11.7921 O.2     1  UNL1       -0.2444
     25 C          64.8982   90.2540   14.3774 C.3     1  UNL1        0.1099
     26 C          64.4669   90.5761   15.8104 C.3     1  UNL1        0.0265
     27 C          67.1403   91.1766   15.1427 C.3     1  UNL1        0.0021
     28 C          66.4312   90.1327   14.2812 C.3     1  UNL1        0.0245
     29 O          59.4538   78.5557   11.0961 O.3     1  UNL1       -0.4727
     30 C          60.6469   78.0694   11.7155 C.3     1  UNL1        0.2374
     31 C          61.2855   79.1442   12.6113 C.3     1  UNL1        0.1909
     32 C          60.3754   79.5646   13.7263 C.3     1  UNL1        0.1783
     33 O          60.6386   80.9129   13.9413 O.3     1  UNL1       -0.3271
     34 C          61.3049   81.3837   12.7821 C.3     1  UNL1        0.2232
     35 O          61.5479   80.3089   11.8950 O.3     1  UNL1       -0.3258
     36 C          62.6185   82.0518   13.2066 C.ar    1  UNL1        0.0404
     37 C          62.7454   82.4882   14.5442 C.ar    1  UNL1        0.0021
     38 C          63.9186   83.0908   14.9991 C.ar    1  UNL1        0.0113
     39 C          64.9869   83.2872   14.1278 C.ar    1  UNL1        0.0585
     40 CL         66.4782   84.0004   14.7136 Cl      1  UNL1       -0.0822
     41 C          64.8695   82.9127   12.7898 C.ar    1  UNL1        0.0226
     42 C          63.6954   82.3155   12.3125 C.ar    1  UNL1        0.0591
     43 CL         63.6396   81.9688   10.5851 Cl      1  UNL1       -0.0824
     44 C          60.3699   82.4003   12.0918 C.3     1  UNL1        0.1338
     45 N          59.5116   83.1155   13.0685 N.3     1  UNL1       -0.2659
     46 C          60.1023   84.4211   13.4544 C.3     1  UNL1        0.0898
     47 C          59.0372   85.3780   13.9961 C.3     1  UNL1        0.0897
     48 N          58.0596   85.7204   12.9391 N.3     1  UNL1       -0.2691
     49 C          56.8182   86.2331   13.5365 C.3     1  UNL1        0.0897
     50 C          57.7916   84.6036   11.9976 C.3     1  UNL1        0.0897
     51 C          58.0988   83.2270   12.6145 C.3     1  UNL1        0.0898
@<TRIPOS>BOND
     1    27    28    1
     2    28    25    1
     3    25    26    1
     4    25    19    1
     5    19    20   ar
     6    20    21   ar
     7    21    22   ar
     8    22    13    1
     9    13    14   ar
    10    14    15   ar
    11    15    16   ar
    12    16     7    1
    13     7     8    1
    14     8     9    1
    15     9    10    1
    16    10     1    1
    17     1     2   ar
    18     2     3   ar
    19     3     4   ar
    20     4    29    1
    21    29    30    1
    22    30    31    1
    23    31    32    1
    24    32    33    1
    25    33    34    1
    26    34    44    1
    27    44    45    1
    28    45    46    1
    29    46    47    1
    30    47    48    1
    31    48    49    1
    32    48    50    1
    33    50    51    1
    34    34    36    1
    35    36    37   ar
    36    37    38   ar
    37    38    39   ar
    38    39    40    1
    39    39    41   ar
    40    41    42   ar
    41    42    43    1
    42    34    35    1
    43     4     5   ar
    44     5     6   ar
    45    10    11    1
    46    11    12    1
    47    16    17   ar
    48    17    18   ar
    49    22    23   ar
    50    23    24    2
    51    23    19   ar
    52    18    13   ar
    53    12     7    1
    54     6     1   ar
    55    35    31    1
    56    51    45    1
    57    42    36   ar
@<TRIPOS>MOLECULE
*****
 51 57 0 0 0
SMALL
GASTEIGER

@<TRIPOS>ATOM
      1 C          59.3880   85.2545   13.0615 C.ar    1  UNL1        0.0481
      2 C          60.2239   85.5677   11.9726 C.ar    1  UNL1        0.0176
      3 C          59.8603   85.2126   10.6718 C.ar    1  UNL1        0.0382
      4 C          58.6342   84.5730   10.4243 C.ar    1  UNL1        0.1388
      5 C          57.8206   84.2249   11.5070 C.ar    1  UNL1        0.0382
      6 C          58.1924   84.5572   12.8126 C.ar    1  UNL1        0.0176
      7 N          61.7061   87.2464   15.2491 N.pl3   1  UNL1       -0.3041
      8 C          60.3833   87.6987   15.7062 C.3     1  UNL1        0.1122
      9 C          59.2975   87.0533   14.8295 C.3     1  UNL1        0.1122
     10 N          59.7043   85.7009   14.4013 N.pl3   1  UNL1       -0.3041
     11 C          60.6808   84.9904   15.2419 C.3     1  UNL1        0.1122
     12 C          61.9875   85.7989   15.2857 C.3     1  UNL1        0.1122
     13 C          64.4512   89.6548   13.0441 C.ar    1  UNL1        0.0699
     14 C          64.3277   89.8034   14.4348 C.ar    1  UNL1        0.0190
     15 C          63.4052   89.0360   15.1517 C.ar    1  UNL1        0.0160
     16 C          62.5756   88.1157   14.4906 C.ar    1  UNL1        0.0480
     17 C          62.6639   88.0084   13.0910 C.ar    1  UNL1        0.0160
     18 C          63.5842   88.7767   12.3764 C.ar    1  UNL1        0.0190
     19 N          66.5464   91.5559   10.7813 N.ar    1  UNL1       -0.2024
     20 N          67.3310   91.5160   11.8485 N.ar    1  UNL1       -0.1442
     21 C          66.6783   90.7788   12.7734 C.ar    1  UNL1        0.2073
     22 N          65.4783   90.3543   12.3161 N.ar    1  UNL1       -0.2398
     23 C          65.4270   90.8718   11.0732 C.ar    1  UNL1        0.3522
     24 O          64.4374   90.7754   10.2992 O.2     1  UNL1       -0.2444
     25 C          66.7997   92.3657    9.5847 C.3     1  UNL1        0.1099
     26 C          66.3904   93.8159    9.8539 C.3     1  UNL1        0.0265
     27 C          68.6837   90.8609    8.7783 C.3     1  UNL1        0.0021
     28 C          68.2788   92.2838    9.1607 C.3     1  UNL1        0.0245
     29 O          58.1850   84.2677    9.1295 O.3     1  UNL1       -0.4727
     30 C          58.8088   83.3585    8.2196 C.3     1  UNL1        0.2374
     31 C          58.9708   81.9651    8.8502 C.3     1  UNL1        0.1909
     32 C          57.8756   81.6557    9.8265 C.3     1  UNL1        0.1783
     33 O          58.4605   80.8723   10.8152 O.3     1  UNL1       -0.3271
     34 C          59.8610   81.0613   10.7038 C.3     1  UNL1        0.2232
     35 O          60.1504   81.8763    9.5843 O.3     1  UNL1       -0.3258
     36 C          60.5338   79.6894   10.5718 C.ar    1  UNL1        0.0404
     37 C          61.5799   79.5449    9.6334 C.ar    1  UNL1        0.0021
     38 C          62.2434   78.3281    9.4732 C.ar    1  UNL1        0.0113
     39 C          61.8695   77.2226   10.2329 C.ar    1  UNL1        0.0585
     40 CL         62.7368   75.7076   10.0648 Cl      1  UNL1       -0.0822
     41 C          60.8064   77.3238   11.1295 C.ar    1  UNL1        0.0226
     42 C          60.1217   78.5346   11.2965 C.ar    1  UNL1        0.0591
     43 CL         58.7427   78.5094   12.3942 Cl      1  UNL1       -0.0824
     44 C          60.3336   81.7837   11.9839 C.3     1  UNL1        0.1338
     45 N          61.7925   81.6237   12.2036 N.3     1  UNL1       -0.2659
     46 C          62.5182   82.8970   11.9703 C.3     1  UNL1        0.0898
     47 C          63.8697   82.9097   12.6891 C.3     1  UNL1        0.0897
     48 N          63.6792   82.8645   14.1560 N.3     1  UNL1       -0.2691
     49 C          64.9117   82.4144   14.8188 C.3     1  UNL1        0.0897
     50 C          62.5070   82.0545   14.5751 C.3     1  UNL1        0.0897
     51 C          62.1084   81.0064   13.5203 C.3     1  UNL1        0.0898
@<TRIPOS>BOND
     1    27    28    1
     2    28    25    1
     3    25    26    1
     4    25    19    1
     5    19    20   ar
     6    20    21   ar
     7    21    22   ar
     8    22    13    1
     9    13    14   ar
    10    14    15   ar
    11    15    16   ar
    12    16     7    1
    13     7     8    1
    14     8     9    1
    15     9    10    1
    16    10     1    1
    17     1     2   ar
    18     2     3   ar
    19     3     4   ar
    20     4    29    1
    21    29    30    1
    22    30    31    1
    23    31    32    1
    24    32    33    1
    25    33    34    1
    26    34    44    1
    27    44    45    1
    28    45    46    1
    29    46    47    1
    30    47    48    1
    31    48    49    1
    32    48    50    1
    33    50    51    1
    34    34    36    1
    35    36    37   ar
    36    37    38   ar
    37    38    39   ar
    38    39    40    1
    39    39    41   ar
    40    41    42   ar
    41    42    43    1
    42    34    35    1
    43     4     5   ar
    44     5     6   ar
    45    10    11    1
    46    11    12    1
    47    16    17   ar
    48    17    18   ar
    49    22    23   ar
    50    23    24    2
    51    23    19   ar
    52    18    13   ar
    53    12     7    1
    54     6     1   ar
    55    35    31    1
    56    51    45    1
    57    42    36   ar
@<TRIPOS>MOLECULE
*****
 51 57 0 0 0
SMALL
GASTEIGER

@<TRIPOS>ATOM
      1 C          60.6973   81.9901    9.7611 C.ar    1  UNL1        0.0481
      2 C          60.1252   81.2066   10.7817 C.ar    1  UNL1        0.0176
      3 C          60.9256   80.6375   11.7746 C.ar    1  UNL1        0.0382
      4 C          62.3107   80.8719   11.7943 C.ar    1  UNL1        0.1388
      5 C          62.8870   81.6159   10.7602 C.ar    1  UNL1        0.0382
      6 C          62.0924   82.1670    9.7513 C.ar    1  UNL1        0.0176
      7 N          59.6564   85.2694    8.2478 N.pl3   1  UNL1       -0.3041
      8 C          59.9150   84.4463    7.0566 C.3     1  UNL1        0.1122
      9 C          60.4637   83.0790    7.4962 C.3     1  UNL1        0.1122
     10 N          59.8715   82.6651    8.7830 N.pl3   1  UNL1       -0.3041
     11 C          58.5611   83.2326    9.1381 C.3     1  UNL1        0.1122
     12 C          58.6863   84.7615    9.2361 C.3     1  UNL1        0.1122
     13 C          62.2496   88.3924    9.5592 C.ar    1  UNL1        0.0699
     14 C          60.8556   88.5545    9.6056 C.ar    1  UNL1        0.0190
     15 C          60.0076   87.5429    9.1459 C.ar    1  UNL1        0.0160
     16 C          60.5360   86.3548    8.6154 C.ar    1  UNL1        0.0480
     17 C          61.9326   86.2182    8.5203 C.ar    1  UNL1        0.0160
     18 C          62.7780   87.2300    8.9779 C.ar    1  UNL1        0.0190
     19 N          64.6641   90.3688   11.3999 N.ar    1  UNL1       -0.2024
     20 N          64.4318   91.1776   10.3762 N.ar    1  UNL1       -0.1442
     21 C          63.4918   90.5719    9.6184 C.ar    1  UNL1        0.2073
     22 N          63.1262   89.3778   10.1379 N.ar    1  UNL1       -0.2398
     23 C          63.8906   89.2810   11.2430 C.ar    1  UNL1        0.3522
     24 O          63.9203   88.2786   12.0059 O.2     1  UNL1       -0.2444
     25 C          65.7164   90.5668   12.4026 C.3     1  UNL1        0.1099
     26 C          66.3569   91.9431   12.2051 C.3     1  UNL1        0.0265
     27 C          66.1253   90.9704   14.8793 C.3     1  UNL1        0.0021
     28 C          65.1574   90.4229   13.8313 C.3     1  UNL1        0.0245
     29 O          63.1475   80.3910   12.8143 O.3     1  UNL1       -0.4727
     30 C          64.2400   81.0994   13.4044 C.3     1  UNL1        0.2374
     31 C          63.7405   82.2565   14.2859 C.3     1  UNL1        0.1909
     32 C          62.7259   81.8031   15.2925 C.3     1  UNL1        0.1783
     33 O          61.8459   82.8683   15.4486 O.3     1  UNL1       -0.3271
     34 C          62.0301   83.7119   14.3244 C.3     1  UNL1        0.2232
     35 O          63.0932   83.2276   13.5266 O.3     1  UNL1       -0.3258
     36 C          62.3197   85.1346   14.8188 C.ar    1  UNL1        0.0404
     37 C          62.2214   85.3946   16.2038 C.ar    1  UNL1        0.0021
     38 C          62.4853   86.6631   16.7210 C.ar    1  UNL1        0.0113
     39 C          62.8379   87.7062   15.8686 C.ar    1  UNL1        0.0585
     40 CL         63.2165   89.2875   16.5257 Cl      1  UNL1       -0.0822
     41 C          62.8922   87.4898   14.4922 C.ar    1  UNL1        0.0226
     42 C          62.6204   86.2253   13.9536 C.ar    1  UNL1        0.0591
     43 CL         62.6370   86.1031   12.1952 Cl      1  UNL1       -0.0824
     44 C          60.7264   83.6726   13.4980 C.3     1  UNL1        0.1338
     45 N          59.9176   84.9033   13.6806 N.3     1  UNL1       -0.2659
     46 C          59.5684   85.5203   12.3768 C.3     1  UNL1        0.0898
     47 C          58.3372   86.4220   12.4972 C.3     1  UNL1        0.0897
     48 N          57.1418   85.6254   12.8531 N.3     1  UNL1       -0.2691
     49 C          56.0972   86.4932   13.4156 C.3     1  UNL1        0.0897
     50 C          57.4406   84.4794   13.7492 C.3     1  UNL1        0.0897
     51 C          58.7347   84.6856   14.5570 C.3     1  UNL1        0.0898
@<TRIPOS>BOND
     1    27    28    1
     2    28    25    1
     3    25    26    1
     4    25    19    1
     5    19    20   ar
     6    20    21   ar
     7    21    22   ar
     8    22    13    1
     9    13    14   ar
    10    14    15   ar
    11    15    16   ar
    12    16     7    1
    13     7     8    1
    14     8     9    1
    15     9    10    1
    16    10     1    1
    17     1     2   ar
    18     2     3   ar
    19     3     4   ar
    20     4    29    1
    21    29    30    1
    22    30    31    1
    23    31    32    1
    24    32    33    1
    25    33    34    1
    26    34    44    1
    27    44    45    1
    28    45    46    1
    29    46    47    1
    30    47    48    1
    31    48    49    1
    32    48    50    1
    33    50    51    1
    34    34    36    1
    35    36    37   ar
    36    37    38   ar
    37    38    39   ar
    38    39    40    1
    39    39    41   ar
    40    41    42   ar
    41    42    43    1
    42    34    35    1
    43     4     5   ar
    44     5     6   ar
    45    10    11    1
    46    11    12    1
    47    16    17   ar
    48    17    18   ar
    49    22    23   ar
    50    23    24    2
    51    23    19   ar
    52    18    13   ar
    53    12     7    1
    54     6     1   ar
    55    35    31    1
    56    51    45    1
    57    42    36   ar
