@<TRIPOS>MOLECULE
*****
 39 43 0 0 0
SMALL
GASTEIGER

@<TRIPOS>ATOM
      1 C          47.9780   10.5749  -21.1399 C.2     1  UNL1        0.2503
      2 O          47.5551    9.3937  -21.2619 O.2     1  UNL1       -0.2699
      3 N          48.2018   11.3911  -22.3113 N.am    1  UNL1       -0.2680
      4 C          49.0237   12.6044  -22.2394 C.3     1  UNL1        0.1412
      5 C          48.1287   13.8202  -22.0134 C.3     1  UNL1        0.2268
      6 O          46.8647   13.6641  -22.6573 O.3     1  UNL1       -0.4739
      7 C          46.7450   13.3219  -24.0070 C.ar    1  UNL1        0.1362
      8 C          46.1531   14.2472  -24.8713 C.ar    1  UNL1        0.0366
      9 C          46.0355   13.9732  -26.2335 C.ar    1  UNL1        0.0031
     10 C          46.4970   12.7553  -26.7562 C.ar    1  UNL1       -0.0000
     11 C          47.0666   11.8119  -25.8834 C.ar    1  UNL1        0.0004
     12 C          47.2014   12.0780  -24.5093 C.ar    1  UNL1        0.0317
     13 C          47.6956   10.9480  -23.6200 C.3     1  UNL1        0.1236
     14 C          46.3698   12.4600  -28.2059 C.ar    1  UNL1        0.0015
     15 C          46.5584   11.1347  -28.6893 C.ar    1  UNL1        0.0016
     16 C          46.4395   10.8430  -30.0611 C.ar    1  UNL1        0.0206
     17 C          46.1328   11.8910  -30.9221 C.ar    1  UNL1        0.0985
     18 N          45.9705   11.8404  -32.2564 N.ar    1  UNL1       -0.2241
     19 C          45.6851   13.1307  -32.5750 C.ar    1  UNL1        0.1750
     20 N          45.6656   13.9603  -31.5041 N.ar    1  UNL1       -0.3349
     21 C          45.9512   13.1610  -30.4697 C.ar    1  UNL1        0.0757
     22 C          46.0594   13.4944  -29.1225 C.ar    1  UNL1        0.0185
     23 H          45.4722   14.9863  -31.4923 H       1  UNL1        0.1675
     24 C          47.1713   11.7970  -19.0954 C.ar    1  UNL1       -0.0153
     25 C          47.4043   12.2642  -17.7920 C.ar    1  UNL1        0.0143
     26 C          48.6396   12.0666  -17.1703 C.ar    1  UNL1        0.1066
     27 C          49.6550   11.3863  -17.8466 C.ar    1  UNL1        0.0325
     28 C          49.4524   10.9078  -19.1473 C.ar    1  UNL1        0.0469
     29 N          50.5247   10.2205  -19.8088 N.pl3   1  UNL1       -0.3569
     30 C          48.2027   11.1054  -19.7794 C.ar    1  UNL1        0.0626
     31 H          50.4328    9.8540  -20.7816 H       1  UNL1        0.1424
     32 H          51.4374   10.0698  -19.3238 H       1  UNL1        0.1424
     33 S          48.9034   12.6467  -15.5291 S.O2    1  UNL1        0.0105
     34 C          50.6408   12.5873  -15.1563 C.3     1  UNL1        0.1816
     35 O          48.4098   14.0607  -15.4009 O.2     1  UNL1       -0.1686
     36 O          48.1497   11.7832  -14.5566 O.2     1  UNL1       -0.1686
     37 C          45.8221   12.0654  -19.7323 C.3     1  UNL1        0.0266
     38 C          43.3221   11.8157  -19.2932 C.3     1  UNL1        0.0004
     39 C          44.6915   12.1344  -18.6946 C.3     1  UNL1        0.0047
@<TRIPOS>BOND
     1    38    39    1
     2    39    37    1
     3    37    24    1
     4    24    25   ar
     5    25    26   ar
     6    26    33    1
     7    33    34    1
     8    33    35    2
     9    33    36    2
    10    26    27   ar
    11    27    28   ar
    12    28    29    1
    13    28    30   ar
    14    30     1    1
    15     1     2    2
    16     1     3   am
    17     3     4    1
    18     4     5    1
    19     5     6    1
    20     6     7    1
    21     7     8   ar
    22     8     9   ar
    23     9    10   ar
    24    10    14    1
    25    14    15   ar
    26    15    16   ar
    27    16    17   ar
    28    17    18   ar
    29    18    19   ar
    30    19    20   ar
    31    20    21   ar
    32    21    22   ar
    33    10    11   ar
    34    11    12   ar
    35    12    13    1
    36    30    24   ar
    37    13     3    1
    38    12     7   ar
    39    22    14   ar
    40    21    17   ar
    41    29    31    1
    42    29    32    1
    43    20    23    1
@<TRIPOS>MOLECULE
*****
 39 43 0 0 0
SMALL
GASTEIGER

@<TRIPOS>ATOM
      1 C          49.6736   11.3354  -21.5384 C.2     1  UNL1        0.2503
      2 O          50.4391   10.4020  -21.9014 O.2     1  UNL1       -0.2699
      3 N          48.9472   12.1039  -22.5234 N.am    1  UNL1       -0.2680
      4 C          48.3543   13.4014  -22.1804 C.3     1  UNL1        0.1412
      5 C          46.8919   13.2113  -21.7856 C.3     1  UNL1        0.2268
      6 O          46.2878   12.1468  -22.5195 O.3     1  UNL1       -0.4739
      7 C          46.3412   12.0692  -23.9139 C.ar    1  UNL1        0.1362
      8 C          45.1406   12.1509  -24.6248 C.ar    1  UNL1        0.0366
      9 C          45.1359   12.1110  -26.0187 C.ar    1  UNL1        0.0031
     10 C          46.3376   11.9727  -26.7302 C.ar    1  UNL1       -0.0000
     11 C          47.5430   11.8617  -26.0156 C.ar    1  UNL1        0.0004
     12 C          47.5650   11.9107  -24.6105 C.ar    1  UNL1        0.0317
     13 C          48.8916   11.6398  -23.9187 C.3     1  UNL1        0.1236
     14 C          46.3344   11.9267  -28.2144 C.ar    1  UNL1        0.0015
     15 C          46.6406   10.7159  -28.8971 C.ar    1  UNL1        0.0016
     16 C          46.6398   10.6602  -30.3035 C.ar    1  UNL1        0.0206
     17 C          46.3308   11.8248  -30.9978 C.ar    1  UNL1        0.0985
     18 N          46.2690   11.9976  -32.3303 N.ar    1  UNL1       -0.2241
     19 C          45.9268   13.3078  -32.4492 C.ar    1  UNL1        0.1750
     20 N          45.7777   13.9377  -31.2591 N.ar    1  UNL1       -0.3349
     21 C          46.0374   12.9868  -30.3543 C.ar    1  UNL1        0.0757
     22 C          46.0267   13.0872  -28.9659 C.ar    1  UNL1        0.0185
     23 H          45.5197   14.9354  -31.0905 H       1  UNL1        0.1675
     24 C          50.5180   12.2939  -19.3722 C.ar    1  UNL1       -0.0153
     25 C          50.3277   12.5518  -18.0052 C.ar    1  UNL1        0.0143
     26 C          49.1735   12.1186  -17.3483 C.ar    1  UNL1        0.1066
     27 C          48.1886   11.4289  -18.0595 C.ar    1  UNL1        0.0325
     28 C          48.3495   11.1572  -19.4241 C.ar    1  UNL1        0.0469
     29 N          47.3166   10.4396  -20.1153 N.pl3   1  UNL1       -0.3569
     30 C          49.5165   11.5952  -20.0925 C.ar    1  UNL1        0.0626
     31 H          47.3896   10.1998  -21.1284 H       1  UNL1        0.1424
     32 H          46.4540   10.1349  -19.6114 H       1  UNL1        0.1424
     33 S          48.9490   12.4680  -15.6374 S.O2    1  UNL1        0.0105
     34 C          50.5380   12.6453  -14.8597 C.3     1  UNL1        0.1816
     35 O          48.1645   13.7397  -15.4738 O.2     1  UNL1       -0.1686
     36 O          48.1907   11.3467  -14.9840 O.2     1  UNL1       -0.1686
     37 C          51.8028   12.7613  -20.0270 C.3     1  UNL1        0.0266
     38 C          52.1997   14.4111  -21.9311 C.3     1  UNL1        0.0004
     39 C          51.7212   14.2231  -20.4920 C.3     1  UNL1        0.0047
@<TRIPOS>BOND
     1    38    39    1
     2    39    37    1
     3    37    24    1
     4    24    25   ar
     5    25    26   ar
     6    26    33    1
     7    33    34    1
     8    33    35    2
     9    33    36    2
    10    26    27   ar
    11    27    28   ar
    12    28    29    1
    13    28    30   ar
    14    30     1    1
    15     1     2    2
    16     1     3   am
    17     3     4    1
    18     4     5    1
    19     5     6    1
    20     6     7    1
    21     7     8   ar
    22     8     9   ar
    23     9    10   ar
    24    10    14    1
    25    14    15   ar
    26    15    16   ar
    27    16    17   ar
    28    17    18   ar
    29    18    19   ar
    30    19    20   ar
    31    20    21   ar
    32    21    22   ar
    33    10    11   ar
    34    11    12   ar
    35    12    13    1
    36    30    24   ar
    37    13     3    1
    38    12     7   ar
    39    22    14   ar
    40    21    17   ar
    41    29    31    1
    42    29    32    1
    43    20    23    1
@<TRIPOS>MOLECULE
*****
 39 43 0 0 0
SMALL
GASTEIGER

@<TRIPOS>ATOM
      1 C          50.1201   11.5836  -21.8590 C.2     1  UNL1        0.2503
      2 O          50.9208   10.7046  -22.2776 O.2     1  UNL1       -0.2699
      3 N          49.2880   12.3109  -22.7902 N.am    1  UNL1       -0.2680
      4 C          48.6345   13.5645  -22.3977 C.3     1  UNL1        0.1412
      5 C          47.2138   13.2770  -21.9189 C.3     1  UNL1        0.2268
      6 O          46.6364   12.1813  -22.6279 O.3     1  UNL1       -0.4739
      7 C          46.6109   12.1180  -24.0238 C.ar    1  UNL1        0.1362
      8 C          45.3670   12.1271  -24.6611 C.ar    1  UNL1        0.0366
      9 C          45.2812   12.0977  -26.0527 C.ar    1  UNL1        0.0031
     10 C          46.4444   12.0431  -26.8358 C.ar    1  UNL1       -0.0000
     11 C          47.6952   12.0050  -26.1954 C.ar    1  UNL1        0.0004
     12 C          47.7983   12.0445  -24.7937 C.ar    1  UNL1        0.0317
     13 C          49.1787   11.8549  -24.1850 C.3     1  UNL1        0.1236
     14 C          46.3552   12.0083  -28.3177 C.ar    1  UNL1        0.0015
     15 C          46.5651   10.7897  -29.0225 C.ar    1  UNL1        0.0016
     16 C          46.4821   10.7447  -30.4268 C.ar    1  UNL1        0.0206
     17 C          46.1894   11.9276  -31.0968 C.ar    1  UNL1        0.0985
     18 N          46.0605   12.1131  -32.4228 N.ar    1  UNL1       -0.2241
     19 C          45.7740   13.4386  -32.5158 C.ar    1  UNL1        0.1750
     20 N          45.7222   14.0659  -31.3161 N.ar    1  UNL1       -0.3349
     21 C          45.9877   13.0971  -30.4321 C.ar    1  UNL1        0.0757
     22 C          46.0602   13.1876  -29.0449 C.ar    1  UNL1        0.0185
     23 H          45.5213   15.0732  -31.1283 H       1  UNL1        0.1675
     24 C          48.9700   11.2713  -19.6446 C.ar    1  UNL1       -0.0153
     25 C          48.9301   11.4899  -18.2582 C.ar    1  UNL1        0.0143
     26 C          49.9156   12.2503  -17.6241 C.ar    1  UNL1        0.1066
     27 C          50.9619   12.7928  -18.3740 C.ar    1  UNL1        0.0325
     28 C          51.0293   12.5916  -19.7585 C.ar    1  UNL1        0.0469
     29 N          52.1173   13.1728  -20.4920 N.pl3   1  UNL1       -0.3569
     30 C          50.0336   11.8215  -20.4034 C.ar    1  UNL1        0.0626
     31 H          52.2103   13.0649  -21.5259 H       1  UNL1        0.1424
     32 H          52.8529   13.7273  -19.9997 H       1  UNL1        0.1424
     33 S          49.8541   12.4972  -15.8820 S.O2    1  UNL1        0.0105
     34 C          51.4968   12.7980  -15.2721 C.3     1  UNL1        0.1816
     35 O          48.9759   13.6747  -15.5631 O.2     1  UNL1       -0.1686
     36 O          49.2846   11.2766  -15.2147 O.2     1  UNL1       -0.1686
     37 C          47.8582   10.4633  -20.2842 C.3     1  UNL1        0.0266
     38 C          48.3539    8.7093  -22.0682 C.3     1  UNL1        0.0004
     39 C          48.2824    9.0153  -20.5728 C.3     1  UNL1        0.0047
@<TRIPOS>BOND
     1    38    39    1
     2    39    37    1
     3    37    24    1
     4    24    25   ar
     5    25    26   ar
     6    26    33    1
     7    33    34    1
     8    33    35    2
     9    33    36    2
    10    26    27   ar
    11    27    28   ar
    12    28    29    1
    13    28    30   ar
    14    30     1    1
    15     1     2    2
    16     1     3   am
    17     3     4    1
    18     4     5    1
    19     5     6    1
    20     6     7    1
    21     7     8   ar
    22     8     9   ar
    23     9    10   ar
    24    10    14    1
    25    14    15   ar
    26    15    16   ar
    27    16    17   ar
    28    17    18   ar
    29    18    19   ar
    30    19    20   ar
    31    20    21   ar
    32    21    22   ar
    33    10    11   ar
    34    11    12   ar
    35    12    13    1
    36    30    24   ar
    37    13     3    1
    38    12     7   ar
    39    22    14   ar
    40    21    17   ar
    41    29    31    1
    42    29    32    1
    43    20    23    1
@<TRIPOS>MOLECULE
*****
 39 43 0 0 0
SMALL
GASTEIGER

@<TRIPOS>ATOM
      1 C          50.1048   11.2019  -20.2178 C.2     1  UNL1        0.2503
      2 O          50.0566    9.9549  -20.3963 O.2     1  UNL1       -0.2699
      3 N          49.8626   12.1036  -21.3209 N.am    1  UNL1       -0.2680
      4 C          50.2656   13.5124  -21.2459 C.3     1  UNL1        0.1412
      5 C          49.0880   14.3605  -20.7720 C.3     1  UNL1        0.2268
      6 O          47.8460   13.8359  -21.2398 O.3     1  UNL1       -0.4739
      7 C          47.6131   13.5408  -22.5858 C.ar    1  UNL1        0.1362
      8 C          46.6258   14.2664  -23.2581 C.ar    1  UNL1        0.0366
      9 C          46.3716   14.0370  -24.6100 C.ar    1  UNL1        0.0031
     10 C          47.0943   13.0614  -25.3138 C.ar    1  UNL1       -0.0000
     11 C          48.0678   12.3111  -24.6317 C.ar    1  UNL1        0.0004
     12 C          48.3426   12.5379  -23.2715 C.ar    1  UNL1        0.0317
     13 C          49.3066   11.5860  -22.5811 C.3     1  UNL1        0.1236
     14 C          46.8229   12.8132  -26.7525 C.ar    1  UNL1        0.0015
     15 C          46.3489   13.8644  -27.5868 C.ar    1  UNL1        0.0016
     16 C          46.0892   13.6410  -28.9520 C.ar    1  UNL1        0.0206
     17 C          46.3112   12.3629  -29.4530 C.ar    1  UNL1        0.0985
     18 N          46.1339   11.9303  -30.7142 N.ar    1  UNL1       -0.2241
     19 C          46.5001   10.6233  -30.6393 C.ar    1  UNL1        0.1750
     20 N          46.8900   10.2414  -29.3994 N.ar    1  UNL1       -0.3349
     21 C          46.7635   11.3518  -28.6635 C.ar    1  UNL1        0.0757
     22 C          47.0331   11.5278  -27.3092 C.ar    1  UNL1        0.0185
     23 H          47.2138    9.2974  -29.0923 H       1  UNL1        0.1675
     24 C          49.3655   11.6988  -17.8662 C.ar    1  UNL1       -0.0153
     25 C          49.6638   12.1592  -16.5737 C.ar    1  UNL1        0.0143
     26 C          50.9388   12.6358  -16.2594 C.ar    1  UNL1        0.1066
     27 C          51.9356   12.6458  -17.2380 C.ar    1  UNL1        0.0325
     28 C          51.6687   12.1923  -18.5360 C.ar    1  UNL1        0.0469
     29 N          52.7194   12.2266  -19.5129 N.pl3   1  UNL1       -0.3569
     30 C          50.3791   11.7084  -18.8573 C.ar    1  UNL1        0.0626
     31 H          52.5729   11.9125  -20.4973 H       1  UNL1        0.1424
     32 H          53.6707   12.5736  -19.2569 H       1  UNL1        0.1424
     33 S          51.2944   13.1926  -14.6275 S.O2    1  UNL1        0.0105
     34 C          51.4222   11.7902  -13.5421 C.3     1  UNL1        0.1816
     35 O          52.5898   13.9552  -14.6183 O.2     1  UNL1       -0.1686
     36 O          50.1969   14.1015  -14.1492 O.2     1  UNL1       -0.1686
     37 C          47.9572   11.2205  -18.1592 C.3     1  UNL1        0.0266
     38 C          45.8390   11.9931  -19.3515 C.3     1  UNL1        0.0004
     39 C          46.9904   12.3841  -18.4260 C.3     1  UNL1        0.0047
@<TRIPOS>BOND
     1    38    39    1
     2    39    37    1
     3    37    24    1
     4    24    25   ar
     5    25    26   ar
     6    26    33    1
     7    33    34    1
     8    33    35    2
     9    33    36    2
    10    26    27   ar
    11    27    28   ar
    12    28    29    1
    13    28    30   ar
    14    30     1    1
    15     1     2    2
    16     1     3   am
    17     3     4    1
    18     4     5    1
    19     5     6    1
    20     6     7    1
    21     7     8   ar
    22     8     9   ar
    23     9    10   ar
    24    10    14    1
    25    14    15   ar
    26    15    16   ar
    27    16    17   ar
    28    17    18   ar
    29    18    19   ar
    30    19    20   ar
    31    20    21   ar
    32    21    22   ar
    33    10    11   ar
    34    11    12   ar
    35    12    13    1
    36    30    24   ar
    37    13     3    1
    38    12     7   ar
    39    22    14   ar
    40    21    17   ar
    41    29    31    1
    42    29    32    1
    43    20    23    1
