@<TRIPOS>MOLECULE
*****
 52 57 0 0 0
SMALL
GASTEIGER

@<TRIPOS>ATOM
      1 C          11.2526   79.4711   25.3197 C.ar    1  UNL1        0.0502
      2 C          11.8511   78.2029   25.3354 C.ar    1  UNL1        0.0148
      3 C          11.1228   77.0816   25.7399 C.ar    1  UNL1        0.0080
      4 C           9.7783   77.2059   26.1272 C.ar    1  UNL1        0.0808
      5 C           9.1796   78.4802   26.1235 C.ar    1  UNL1        0.1457
      6 F           7.9051   78.6545   26.5560 F       1  UNL1       -0.2040
      7 C           9.9125   79.6004   25.7185 C.ar    1  UNL1        0.0443
      8 N          13.3491   83.0350   24.5969 N.pl3   1  UNL1       -0.3041
      9 C          11.8821   83.0525   24.5568 C.3     1  UNL1        0.1122
     10 C          11.3557   81.6843   24.1222 C.3     1  UNL1        0.1122
     11 N          12.0080   80.6223   24.8980 N.pl3   1  UNL1       -0.3040
     12 C          13.4753   80.6055   24.9389 C.3     1  UNL1        0.1122
     13 C          14.0014   81.9738   25.3734 C.3     1  UNL1        0.1122
     14 C          15.5969   86.4374   23.3527 C.ar    1  UNL1        0.0112
     15 C          15.4946   85.3010   22.5326 C.ar    1  UNL1       -0.0006
     16 C          14.7622   84.1876   22.9376 C.ar    1  UNL1        0.0143
     17 C          14.1053   84.1847   24.1726 C.ar    1  UNL1        0.0479
     18 C          14.1920   85.3132   24.9991 C.ar    1  UNL1        0.0181
     19 C          14.9271   86.4526   24.6092 C.ar    1  UNL1        0.0710
     20 C          14.9753   87.6586   25.5299 C.3     1  UNL1        0.4184
     21 F          14.4874   88.7993   24.9150 F       1  UNL1       -0.1659
     22 F          16.2833   87.9061   25.9056 F       1  UNL1       -0.1659
     23 F          14.2073   87.4223   26.6552 F       1  UNL1       -0.1659
     24 C          16.4214   87.5991   22.8314 C.3     1  UNL1        0.1686
     25 C          18.4289   88.6464   23.3267 C.3     1  UNL1        0.1746
     26 O          17.7966   87.4049   23.1034 O.3     1  UNL1       -0.3463
     27 C           9.0259   76.0016   26.5389 C.2     1  UNL1        0.2483
     28 O           9.4281   75.3360   27.5322 O.2     1  UNL1       -0.2701
     29 N           7.8808   75.5579   25.7909 N.am    1  UNL1       -0.2945
     30 H           7.6754   76.0234   24.8779 H       1  UNL1        0.1501
     31 C           7.1797   74.3034   26.0903 C.3     1  UNL1        0.1535
     32 C           6.3869   74.4453   27.3626 C.2     1  UNL1        0.2443
     33 O           5.6415   73.5012   27.7432 O.2     1  UNL1       -0.2730
     34 N           6.5594   75.6103   28.1854 N.am    1  UNL1       -0.2825
     35 H           7.4055   76.2018   28.0208 H       1  UNL1        0.1549
     36 C           5.7035   75.9502   29.2896 C.ar    1  UNL1        0.0535
     37 C           6.2018   75.8723   30.5973 C.ar    1  UNL1        0.0353
     38 C           5.3818   76.2232   31.6723 C.ar    1  UNL1        0.1002
     39 N           4.1120   76.6538   31.4492 N.ar    1  UNL1       -0.2422
     40 C           3.6068   76.7588   30.1919 C.ar    1  UNL1        0.1002
     41 C           4.3929   76.4169   29.0886 C.ar    1  UNL1        0.0353
     42 C           6.2458   73.9221   24.9297 C.3     1  UNL1        0.0569
     43 C           5.8135   75.1349   24.1575 C.ar    1  UNL1       -0.0017
     44 C           6.2917   75.5379   22.9137 C.ar    1  UNL1        0.0681
     45 N           5.5911   76.6025   22.4610 N.ar    1  UNL1       -0.3523
     46 C           4.6677   76.8667   23.4017 C.ar    1  UNL1        0.0563
     47 C           3.6866   77.8565   23.3680 C.ar    1  UNL1        0.0170
     48 C           2.7929   77.9336   24.4521 C.ar    1  UNL1        0.0015
     49 C           2.8949   77.0261   25.5300 C.ar    1  UNL1        0.0001
     50 C           3.8928   76.0345   25.5349 C.ar    1  UNL1        0.0012
     51 C           4.7692   75.9891   24.4507 C.ar    1  UNL1        0.0131
     52 H           5.7259   77.0984   21.5520 H       1  UNL1        0.1660
@<TRIPOS>BOND
     1    25    26    1
     2    26    24    1
     3    24    14    1
     4    14    15   ar
     5    15    16   ar
     6    16    17   ar
     7    17     8    1
     8     8     9    1
     9     9    10    1
    10    10    11    1
    11    11     1    1
    12     1     2   ar
    13     2     3   ar
    14     3     4   ar
    15     4    27    1
    16    27    28    2
    17    27    29   am
    18    29    31    1
    19    31    42    1
    20    42    43    1
    21    43    44   ar
    22    44    45   ar
    23    45    46   ar
    24    46    47   ar
    25    47    48   ar
    26    48    49   ar
    27    49    50   ar
    28    50    51   ar
    29    31    32    1
    30    32    33    2
    31    32    34   am
    32    34    36    1
    33    36    37   ar
    34    37    38   ar
    35    38    39   ar
    36    39    40   ar
    37    40    41   ar
    38     4     5   ar
    39     5     6    1
    40     5     7   ar
    41    11    12    1
    42    12    13    1
    43    17    18   ar
    44    18    19   ar
    45    19    20    1
    46    20    21    1
    47    20    22    1
    48    20    23    1
    49    19    14   ar
    50    13     8    1
    51     7     1   ar
    52    51    43   ar
    53    41    36   ar
    54    51    46   ar
    55    29    30    1
    56    45    52    1
    57    34    35    1
@<TRIPOS>MOLECULE
*****
 52 57 0 0 0
SMALL
GASTEIGER

@<TRIPOS>ATOM
      1 C          11.4024   80.4397   25.6041 C.ar    1  UNL1        0.0502
      2 C          10.8096   81.6884   25.3667 C.ar    1  UNL1        0.0148
      3 C          11.5784   82.7613   24.9092 C.ar    1  UNL1        0.0080
      4 C          12.9536   82.6030   24.6707 C.ar    1  UNL1        0.0808
      5 C          13.5525   81.3534   24.9199 C.ar    1  UNL1        0.1457
      6 F          14.8896   81.1770   24.7690 F       1  UNL1       -0.2040
      7 C          12.7793   80.2820   25.3787 C.ar    1  UNL1        0.0443
      8 N           8.7267   77.3466   26.5483 N.pl3   1  UNL1       -0.3041
      9 C           8.3755   78.7252   26.9088 C.3     1  UNL1        0.1122
     10 C           9.6455   79.5368   27.1663 C.3     1  UNL1        0.1122
     11 N          10.6034   79.3369   26.0720 N.pl3   1  UNL1       -0.3040
     12 C          10.9538   77.9579   25.7107 C.3     1  UNL1        0.1122
     13 C           9.6837   77.1466   25.4534 C.3     1  UNL1        0.1122
     14 C           6.3573   74.0889   27.9449 C.ar    1  UNL1        0.0112
     15 C           6.6782   74.2159   26.5827 C.ar    1  UNL1       -0.0006
     16 C           7.4508   75.2801   26.1239 C.ar    1  UNL1        0.0143
     17 C           7.9299   76.2430   27.0182 C.ar    1  UNL1        0.0479
     18 C           7.6242   76.1267   28.3810 C.ar    1  UNL1        0.0181
     19 C           6.8445   75.0568   28.8687 C.ar    1  UNL1        0.0710
     20 C           6.5566   74.9627   30.3562 C.3     1  UNL1        0.4184
     21 F           7.1869   73.8756   30.9379 F       1  UNL1       -0.1659
     22 F           5.1955   74.8223   30.5595 F       1  UNL1       -0.1659
     23 F           7.0046   76.1042   30.9952 F       1  UNL1       -0.1659
     24 C           5.5053   72.9014   28.3507 C.3     1  UNL1        0.1686
     25 C           3.4760   72.3578   29.3299 C.3     1  UNL1        0.1746
     26 O           4.1499   73.2798   28.5011 O.3     1  UNL1       -0.3463
     27 C          13.7423   83.7508   24.1744 C.2     1  UNL1        0.2483
     28 O          14.6329   83.5531   23.3030 O.2     1  UNL1       -0.2701
     29 N          13.5399   85.0697   24.7106 N.am    1  UNL1       -0.2945
     30 H          12.9240   85.1740   25.5485 H       1  UNL1        0.1501
     31 C          14.3822   86.2122   24.3362 C.3     1  UNL1        0.1535
     32 C          14.2493   86.4913   22.8625 C.2     1  UNL1        0.2443
     33 O          15.2819   86.5337   22.1387 O.2     1  UNL1       -0.2730
     34 N          12.9446   86.6084   22.2726 N.am    1  UNL1       -0.2825
     35 H          12.1293   86.2467   22.8178 H       1  UNL1        0.1549
     36 C          12.7041   87.0885   20.9387 C.ar    1  UNL1        0.0535
     37 C          12.0242   88.3003   20.7546 C.ar    1  UNL1        0.0353
     38 C          11.8078   88.7827   19.4616 C.ar    1  UNL1        0.1002
     39 N          12.2692   88.0879   18.3884 N.ar    1  UNL1       -0.2422
     40 C          12.9489   86.9201   18.5354 C.ar    1  UNL1        0.1002
     41 C          13.1860   86.4016   19.8110 C.ar    1  UNL1        0.0353
     42 C          13.9840   87.4582   25.1444 C.3     1  UNL1        0.0569
     43 C          15.1003   87.9036   26.0440 C.ar    1  UNL1       -0.0017
     44 C          15.1314   87.8106   27.4327 C.ar    1  UNL1        0.0681
     45 N          16.3407   88.1909   27.9043 N.ar    1  UNL1       -0.3523
     46 C          17.0762   88.5109   26.8254 C.ar    1  UNL1        0.0563
     47 C          18.4063   88.9276   26.8032 C.ar    1  UNL1        0.0170
     48 C          18.9964   89.1767   25.5503 C.ar    1  UNL1        0.0015
     49 C          18.2541   88.9998   24.3615 C.ar    1  UNL1        0.0001
     50 C          16.9143   88.5741   24.4143 C.ar    1  UNL1        0.0012
     51 C          16.3547   88.3439   25.6711 C.ar    1  UNL1        0.0131
     52 H          16.6454   88.2055   28.9029 H       1  UNL1        0.1660
@<TRIPOS>BOND
     1    25    26    1
     2    26    24    1
     3    24    14    1
     4    14    15   ar
     5    15    16   ar
     6    16    17   ar
     7    17     8    1
     8     8     9    1
     9     9    10    1
    10    10    11    1
    11    11     1    1
    12     1     2   ar
    13     2     3   ar
    14     3     4   ar
    15     4    27    1
    16    27    28    2
    17    27    29   am
    18    29    31    1
    19    31    42    1
    20    42    43    1
    21    43    44   ar
    22    44    45   ar
    23    45    46   ar
    24    46    47   ar
    25    47    48   ar
    26    48    49   ar
    27    49    50   ar
    28    50    51   ar
    29    31    32    1
    30    32    33    2
    31    32    34   am
    32    34    36    1
    33    36    37   ar
    34    37    38   ar
    35    38    39   ar
    36    39    40   ar
    37    40    41   ar
    38     4     5   ar
    39     5     6    1
    40     5     7   ar
    41    11    12    1
    42    12    13    1
    43    17    18   ar
    44    18    19   ar
    45    19    20    1
    46    20    21    1
    47    20    22    1
    48    20    23    1
    49    19    14   ar
    50    13     8    1
    51     7     1   ar
    52    51    43   ar
    53    41    36   ar
    54    51    46   ar
    55    29    30    1
    56    45    52    1
    57    34    35    1
@<TRIPOS>MOLECULE
*****
 52 57 0 0 0
SMALL
GASTEIGER

@<TRIPOS>ATOM
      1 C          11.2819   79.3920   25.2231 C.ar    1  UNL1        0.0502
      2 C          10.1764   79.5101   26.0780 C.ar    1  UNL1        0.0148
      3 C           9.4492   78.3785   26.4548 C.ar    1  UNL1        0.0080
      4 C           9.8200   77.1053   25.9917 C.ar    1  UNL1        0.0808
      5 C          10.9224   76.9866   25.1239 C.ar    1  UNL1        0.1457
      6 F          11.2717   75.7849   24.5987 F       1  UNL1       -0.2040
      7 C          11.6473   78.1221   24.7484 C.ar    1  UNL1        0.0443
      8 N          13.3534   82.9933   24.6241 N.pl3   1  UNL1       -0.3041
      9 C          11.8864   83.0015   24.5822 C.3     1  UNL1        0.1122
     10 C          11.3705   81.6449   24.1010 C.3     1  UNL1        0.1122
     11 N          12.0295   80.5622   24.8416 N.pl3   1  UNL1       -0.3040
     12 C          13.4968   80.5546   24.8844 C.3     1  UNL1        0.1122
     13 C          14.0123   81.9112   25.3655 C.3     1  UNL1        0.1122
     14 C          15.5779   86.4520   23.4991 C.ar    1  UNL1        0.0112
     15 C          15.5126   85.3302   22.6554 C.ar    1  UNL1       -0.0006
     16 C          14.7879   84.1984   23.0215 C.ar    1  UNL1        0.0143
     17 C          14.1018   84.1620   24.2399 C.ar    1  UNL1        0.0479
     18 C          14.1515   85.2755   25.0895 C.ar    1  UNL1        0.0181
     19 C          14.8781   86.4330   24.7391 C.ar    1  UNL1        0.0710
     20 C          14.8858   87.6217   25.6833 C.3     1  UNL1        0.4184
     21 F          14.3356   88.7503   25.0995 F       1  UNL1       -0.1659
     22 F          16.1871   87.9224   26.0434 F       1  UNL1       -0.1659
     23 F          14.1484   87.3279   26.8155 F       1  UNL1       -0.1659
     24 C          16.3967   87.6356   23.0199 C.3     1  UNL1        0.1686
     25 C          18.4536   88.5642   23.5482 C.3     1  UNL1        0.1746
     26 O          17.7818   87.3839   23.1653 O.3     1  UNL1       -0.3463
     27 C           9.0415   75.9221   26.4157 C.2     1  UNL1        0.2483
     28 O           9.4569   75.2285   27.3841 O.2     1  UNL1       -0.2701
     29 N           7.8540   75.5295   25.7060 N.am    1  UNL1       -0.2945
     30 H           7.6311   76.0151   24.8077 H       1  UNL1        0.1501
     31 C           7.1207   74.2960   26.0152 C.3     1  UNL1        0.1535
     32 C           6.4868   74.3992   27.3772 C.2     1  UNL1        0.2443
     33 O           5.9049   73.3957   27.8734 O.2     1  UNL1       -0.2730
     34 N           6.6339   75.6052   28.1439 N.am    1  UNL1       -0.2825
     35 H           7.3815   76.2769   27.8564 H       1  UNL1        0.1549
     36 C           5.8943   75.8923   29.3430 C.ar    1  UNL1        0.0535
     37 C           4.5408   76.2448   29.2501 C.ar    1  UNL1        0.0353
     38 C           3.8116   76.5026   30.4133 C.ar    1  UNL1        0.1002
     39 N           4.4081   76.3958   31.6299 N.ar    1  UNL1       -0.2422
     40 C           5.7132   76.0370   31.7535 C.ar    1  UNL1        0.1002
     41 C           6.4791   75.7715   30.6155 C.ar    1  UNL1        0.0353
     42 C           6.0410   74.0345   24.9521 C.3     1  UNL1        0.0569
     43 C           6.6508   73.8271   23.5960 C.ar    1  UNL1       -0.0017
     44 C           7.9169   73.3142   23.3275 C.ar    1  UNL1        0.0681
     45 N           8.0867   73.1490   21.9959 N.ar    1  UNL1       -0.3523
     46 C           6.9353   73.5412   21.4233 C.ar    1  UNL1        0.0563
     47 C           6.6172   73.5214   20.0662 C.ar    1  UNL1        0.0170
     48 C           5.3307   73.9462   19.6861 C.ar    1  UNL1        0.0015
     49 C           4.3999   74.3703   20.6606 C.ar    1  UNL1        0.0001
     50 C           4.7474   74.3756   22.0237 C.ar    1  UNL1        0.0012
     51 C           6.0328   73.9575   22.3682 C.ar    1  UNL1        0.0131
     52 H           8.9325   72.7683   21.5165 H       1  UNL1        0.1660
@<TRIPOS>BOND
     1    25    26    1
     2    26    24    1
     3    24    14    1
     4    14    15   ar
     5    15    16   ar
     6    16    17   ar
     7    17     8    1
     8     8     9    1
     9     9    10    1
    10    10    11    1
    11    11     1    1
    12     1     2   ar
    13     2     3   ar
    14     3     4   ar
    15     4    27    1
    16    27    28    2
    17    27    29   am
    18    29    31    1
    19    31    42    1
    20    42    43    1
    21    43    44   ar
    22    44    45   ar
    23    45    46   ar
    24    46    47   ar
    25    47    48   ar
    26    48    49   ar
    27    49    50   ar
    28    50    51   ar
    29    31    32    1
    30    32    33    2
    31    32    34   am
    32    34    36    1
    33    36    37   ar
    34    37    38   ar
    35    38    39   ar
    36    39    40   ar
    37    40    41   ar
    38     4     5   ar
    39     5     6    1
    40     5     7   ar
    41    11    12    1
    42    12    13    1
    43    17    18   ar
    44    18    19   ar
    45    19    20    1
    46    20    21    1
    47    20    22    1
    48    20    23    1
    49    19    14   ar
    50    13     8    1
    51     7     1   ar
    52    51    43   ar
    53    41    36   ar
    54    51    46   ar
    55    29    30    1
    56    45    52    1
    57    34    35    1
@<TRIPOS>MOLECULE
*****
 52 57 0 0 0
SMALL
GASTEIGER

@<TRIPOS>ATOM
      1 C          11.6900   79.4412   24.9486 C.ar    1  UNL1        0.0502
      2 C          10.5370   79.3172   25.7373 C.ar    1  UNL1        0.0148
      3 C           9.9213   78.0739   25.9001 C.ar    1  UNL1        0.0080
      4 C          10.4529   76.9286   25.2849 C.ar    1  UNL1        0.0808
      5 C          11.6035   77.0535   24.4831 C.ar    1  UNL1        0.1457
      6 F          12.1090   75.9855   23.8155 F       1  UNL1       -0.2040
      7 C          12.2165   78.3002   24.3221 C.ar    1  UNL1        0.0443
      8 N          13.3574   83.2930   24.9990 N.pl3   1  UNL1       -0.3041
      9 C          11.9096   83.1474   24.8074 C.3     1  UNL1        0.1122
     10 C          11.6057   81.8171   24.1176 C.3     1  UNL1        0.1122
     11 N          12.3221   80.7251   24.7881 N.pl3   1  UNL1       -0.3040
     12 C          13.7700   80.8712   24.9806 C.3     1  UNL1        0.1122
     13 C          14.0735   82.2016   25.6703 C.3     1  UNL1        0.1122
     14 C          15.2428   87.0875   24.5258 C.ar    1  UNL1        0.0112
     15 C          15.0804   86.2210   23.4315 C.ar    1  UNL1       -0.0006
     16 C          14.4662   84.9802   23.5840 C.ar    1  UNL1        0.0143
     17 C          13.9906   84.5759   24.8357 C.ar    1  UNL1        0.0479
     18 C          14.1390   85.4316   25.9357 C.ar    1  UNL1        0.0181
     19 C          14.7567   86.6933   25.8048 C.ar    1  UNL1        0.0710
     20 C          14.8765   87.5936   27.0213 C.3     1  UNL1        0.4184
     21 F          14.1087   88.7390   26.8955 F       1  UNL1       -0.1659
     22 F          16.1938   87.9822   27.1856 F       1  UNL1       -0.1659
     23 F          14.4490   86.9186   28.1499 F       1  UNL1       -0.1659
     24 C          15.9294   88.4149   24.2657 C.3     1  UNL1        0.1686
     25 C          18.2423   88.2818   24.3368 C.3     1  UNL1        0.1746
     26 O          17.1064   88.2337   23.5011 O.3     1  UNL1       -0.3463
     27 C           9.7895   75.6223   25.4835 C.2     1  UNL1        0.2483
     28 O          10.4676   74.6477   25.9101 O.2     1  UNL1       -0.2701
     29 N           8.4030   75.4424   25.1475 N.am    1  UNL1       -0.2945
     30 H           7.9141   76.2115   24.6357 H       1  UNL1        0.1501
     31 C           7.7377   74.1355   25.2128 C.3     1  UNL1        0.1535
     32 C           6.5296   74.2147   26.1081 C.2     1  UNL1        0.2443
     33 O           5.5778   74.9862   25.8067 O.2     1  UNL1       -0.2730
     34 N           6.4236   73.3410   27.2436 N.am    1  UNL1       -0.2825
     35 H           7.0518   72.5061   27.2759 H       1  UNL1        0.1549
     36 C           5.4352   73.4817   28.2784 C.ar    1  UNL1        0.0535
     37 C           5.4039   74.6536   29.0467 C.ar    1  UNL1        0.0353
     38 C           4.4317   74.8052   30.0381 C.ar    1  UNL1        0.1002
     39 N           3.5104   73.8274   30.2450 N.ar    1  UNL1       -0.2422
     40 C           3.5027   72.6885   29.5033 C.ar    1  UNL1        0.1002
     41 C           4.4583   72.4962   28.5023 C.ar    1  UNL1        0.0353
     42 C           7.3193   73.6770   23.8060 C.3     1  UNL1        0.0569
     43 C           8.3499   74.0537   22.7814 C.ar    1  UNL1       -0.0017
     44 C           8.3135   75.1620   21.9396 C.ar    1  UNL1        0.0681
     45 N           9.4643   75.2579   21.2354 N.ar    1  UNL1       -0.3523
     46 C          10.2306   74.2279   21.6343 C.ar    1  UNL1        0.0563
     47 C          11.5255   73.9264   21.2150 C.ar    1  UNL1        0.0170
     48 C          12.1616   72.8129   21.7942 C.ar    1  UNL1        0.0015
     49 C          11.4991   72.0386   22.7725 C.ar    1  UNL1        0.0001
     50 C          10.1936   72.3691   23.1794 C.ar    1  UNL1        0.0012
     51 C           9.5863   73.4729   22.5807 C.ar    1  UNL1        0.0131
     52 H           9.7132   75.9990   20.5433 H       1  UNL1        0.1660
@<TRIPOS>BOND
     1    25    26    1
     2    26    24    1
     3    24    14    1
     4    14    15   ar
     5    15    16   ar
     6    16    17   ar
     7    17     8    1
     8     8     9    1
     9     9    10    1
    10    10    11    1
    11    11     1    1
    12     1     2   ar
    13     2     3   ar
    14     3     4   ar
    15     4    27    1
    16    27    28    2
    17    27    29   am
    18    29    31    1
    19    31    42    1
    20    42    43    1
    21    43    44   ar
    22    44    45   ar
    23    45    46   ar
    24    46    47   ar
    25    47    48   ar
    26    48    49   ar
    27    49    50   ar
    28    50    51   ar
    29    31    32    1
    30    32    33    2
    31    32    34   am
    32    34    36    1
    33    36    37   ar
    34    37    38   ar
    35    38    39   ar
    36    39    40   ar
    37    40    41   ar
    38     4     5   ar
    39     5     6    1
    40     5     7   ar
    41    11    12    1
    42    12    13    1
    43    17    18   ar
    44    18    19   ar
    45    19    20    1
    46    20    21    1
    47    20    22    1
    48    20    23    1
    49    19    14   ar
    50    13     8    1
    51     7     1   ar
    52    51    43   ar
    53    41    36   ar
    54    51    46   ar
    55    29    30    1
    56    45    52    1
    57    34    35    1
@<TRIPOS>MOLECULE
*****
 52 57 0 0 0
SMALL
GASTEIGER

@<TRIPOS>ATOM
      1 C          11.0760   80.3108   25.7944 C.ar    1  UNL1        0.0502
      2 C          10.6577   81.6169   25.5013 C.ar    1  UNL1        0.0148
      3 C          11.5572   82.5465   24.9737 C.ar    1  UNL1        0.0080
      4 C          12.8903   82.1844   24.7198 C.ar    1  UNL1        0.0808
      5 C          13.3148   80.8770   25.0246 C.ar    1  UNL1        0.1457
      6 F          14.6100   80.5068   24.8597 F       1  UNL1       -0.2040
      7 C          12.4114   79.9496   25.5535 C.ar    1  UNL1        0.0443
      8 N           7.9558   77.8708   27.1834 N.pl3   1  UNL1       -0.3041
      9 C           8.2990   79.0833   27.9358 C.3     1  UNL1        0.1122
     10 C           9.7829   79.4059   27.7569 C.3     1  UNL1        0.1122
     11 N          10.1427   79.3564   26.3346 N.pl3   1  UNL1       -0.3040
     12 C           9.7985   78.1441   25.5818 C.3     1  UNL1        0.1122
     13 C           8.3147   77.8217   25.7610 C.3     1  UNL1        0.1122
     14 C           5.1880   75.0486   28.7806 C.ar    1  UNL1        0.0112
     15 C           6.0499   74.6975   27.7279 C.ar    1  UNL1       -0.0006
     16 C           6.9539   75.6183   27.2033 C.ar    1  UNL1        0.0143
     17 C           7.0249   76.9145   27.7241 C.ar    1  UNL1        0.0479
     18 C           6.1766   77.2781   28.7788 C.ar    1  UNL1        0.0181
     19 C           5.2540   76.3620   29.3267 C.ar    1  UNL1        0.0710
     20 C           4.3699   76.7963   30.4819 C.3     1  UNL1        0.4184
     21 F           4.4292   78.1634   30.6938 F       1  UNL1       -0.1659
     22 F           4.7805   76.1690   31.6444 F       1  UNL1       -0.1659
     23 F           3.0538   76.4651   30.2173 F       1  UNL1       -0.1659
     24 C           4.2328   73.9823   29.2823 C.3     1  UNL1        0.1686
     25 C           3.5063   71.8002   28.9944 C.3     1  UNL1        0.1746
     26 O           4.5343   72.7238   28.7094 O.3     1  UNL1       -0.3463
     27 C          13.8190   83.1833   24.1491 C.2     1  UNL1        0.2483
     28 O          14.9081   82.7925   23.6464 O.2     1  UNL1       -0.2701
     29 N          13.5170   84.5879   24.2095 N.am    1  UNL1       -0.2945
     30 H          12.6982   84.8937   24.7826 H       1  UNL1        0.1501
     31 C          14.4635   85.6189   23.7669 C.3     1  UNL1        0.1535
     32 C          14.6861   85.5128   22.2814 C.2     1  UNL1        0.2443
     33 O          15.7851   85.0737   21.8439 O.2     1  UNL1       -0.2730
     34 N          13.6138   85.8167   21.3750 N.am    1  UNL1       -0.2825
     35 H          12.6438   85.8533   21.7630 H       1  UNL1        0.1549
     36 C          13.7776   85.9633   19.9541 C.ar    1  UNL1        0.0535
     37 C          13.7217   87.2418   19.3822 C.ar    1  UNL1        0.0353
     38 C          13.9028   87.3924   18.0054 C.ar    1  UNL1        0.1002
     39 N          14.1484   86.3056   17.2269 N.ar    1  UNL1       -0.2422
     40 C          14.2280   85.0556   17.7547 C.ar    1  UNL1        0.1002
     41 C          14.0518   84.8604   19.1269 C.ar    1  UNL1        0.0353
     42 C          13.9337   87.0187   24.1195 C.3     1  UNL1        0.0569
     43 C          14.6977   87.6177   25.2646 C.ar    1  UNL1       -0.0017
     44 C          14.2624   87.7283   26.5823 C.ar    1  UNL1        0.0681
     45 N          15.2548   88.2031   27.3691 N.ar    1  UNL1       -0.3523
     46 C          16.3153   88.3811   26.5623 C.ar    1  UNL1        0.0563
     47 C          17.5871   88.8231   26.9239 C.ar    1  UNL1        0.0170
     48 C          18.5666   88.9022   25.9169 C.ar    1  UNL1        0.0015
     49 C          18.2582   88.5360   24.5878 C.ar    1  UNL1        0.0001
     50 C          16.9670   88.0893   24.2528 C.ar    1  UNL1        0.0012
     51 C          16.0154   88.0302   25.2709 C.ar    1  UNL1        0.0131
     52 H          15.2100   88.3702   28.3988 H       1  UNL1        0.1660
@<TRIPOS>BOND
     1    25    26    1
     2    26    24    1
     3    24    14    1
     4    14    15   ar
     5    15    16   ar
     6    16    17   ar
     7    17     8    1
     8     8     9    1
     9     9    10    1
    10    10    11    1
    11    11     1    1
    12     1     2   ar
    13     2     3   ar
    14     3     4   ar
    15     4    27    1
    16    27    28    2
    17    27    29   am
    18    29    31    1
    19    31    42    1
    20    42    43    1
    21    43    44   ar
    22    44    45   ar
    23    45    46   ar
    24    46    47   ar
    25    47    48   ar
    26    48    49   ar
    27    49    50   ar
    28    50    51   ar
    29    31    32    1
    30    32    33    2
    31    32    34   am
    32    34    36    1
    33    36    37   ar
    34    37    38   ar
    35    38    39   ar
    36    39    40   ar
    37    40    41   ar
    38     4     5   ar
    39     5     6    1
    40     5     7   ar
    41    11    12    1
    42    12    13    1
    43    17    18   ar
    44    18    19   ar
    45    19    20    1
    46    20    21    1
    47    20    22    1
    48    20    23    1
    49    19    14   ar
    50    13     8    1
    51     7     1   ar
    52    51    43   ar
    53    41    36   ar
    54    51    46   ar
    55    29    30    1
    56    45    52    1
    57    34    35    1
@<TRIPOS>MOLECULE
*****
 52 57 0 0 0
SMALL
GASTEIGER

@<TRIPOS>ATOM
      1 C          11.4913   80.1420   25.4485 C.ar    1  UNL1        0.0502
      2 C          10.3665   79.8785   26.2437 C.ar    1  UNL1        0.0148
      3 C           9.8053   78.5996   26.2744 C.ar    1  UNL1        0.0080
      4 C          10.3647   77.5568   25.5176 C.ar    1  UNL1        0.0808
      5 C          11.4867   77.8226   24.7095 C.ar    1  UNL1        0.1457
      6 F          12.0153   76.8616   23.9103 F       1  UNL1       -0.2040
      7 C          12.0449   79.1046   24.6811 C.ar    1  UNL1        0.0443
      8 N          13.6445   83.7383   25.2263 N.pl3   1  UNL1       -0.3041
      9 C          13.8437   82.8608   26.3857 C.3     1  UNL1        0.1122
     10 C          12.5670   82.0670   26.6649 C.3     1  UNL1        0.1122
     11 N          12.0671   81.4617   25.4244 N.pl3   1  UNL1       -0.3040
     12 C          11.8689   82.3391   24.2645 C.3     1  UNL1        0.1122
     13 C          13.1456   83.1328   23.9857 C.3     1  UNL1        0.1122
     14 C          15.3310   87.6531   25.1457 C.ar    1  UNL1        0.0112
     15 C          14.7814   87.1284   26.3277 C.ar    1  UNL1       -0.0006
     16 C          14.2284   85.8503   26.3561 C.ar    1  UNL1        0.0143
     17 C          14.2175   85.0591   25.2027 C.ar    1  UNL1        0.0479
     18 C          14.7679   85.5655   24.0175 C.ar    1  UNL1        0.0181
     19 C          15.3344   86.8566   23.9654 C.ar    1  UNL1        0.0710
     20 C          15.9365   87.3537   22.6635 C.3     1  UNL1        0.4184
     21 F          17.2681   87.7043   22.8093 F       1  UNL1       -0.1659
     22 F          15.2487   88.4724   22.2291 F       1  UNL1       -0.1659
     23 F          15.8621   86.3625   21.7022 F       1  UNL1       -0.1659
     24 C          15.9042   89.0561   25.2085 C.3     1  UNL1        0.1686
     25 C          18.1126   88.9291   25.9009 C.3     1  UNL1        0.1746
     26 O          16.7870   89.1927   26.3062 O.3     1  UNL1       -0.3463
     27 C           9.7594   76.2093   25.5775 C.2     1  UNL1        0.2483
     28 O          10.4681   75.2338   25.9488 O.2     1  UNL1       -0.2701
     29 N           8.3972   75.9955   25.1695 N.am    1  UNL1       -0.2945
     30 H           7.8908   76.7825   24.7041 H       1  UNL1        0.1501
     31 C           7.7952   74.6587   25.0966 C.3     1  UNL1        0.1535
     32 C           6.5809   74.5896   25.9844 C.2     1  UNL1        0.2443
     33 O           5.5401   75.2301   25.6708 O.2     1  UNL1       -0.2730
     34 N           6.5802   73.7189   27.1271 N.am    1  UNL1       -0.2825
     35 H           7.3101   72.9718   27.1705 H       1  UNL1        0.1549
     36 C           5.5750   73.7401   28.1550 C.ar    1  UNL1        0.0535
     37 C           4.7456   72.6239   28.3310 C.ar    1  UNL1        0.0353
     38 C           3.7826   72.6302   29.3428 C.ar    1  UNL1        0.1002
     39 N           3.6623   73.7072   30.1631 N.ar    1  UNL1       -0.2422
     40 C           4.4648   74.7961   30.0302 C.ar    1  UNL1        0.1002
     41 C           5.4401   74.8316   29.0304 C.ar    1  UNL1        0.0353
     42 C           7.4052   74.3256   23.6470 C.3     1  UNL1        0.0569
     43 C           8.5548   74.5510   22.7082 C.ar    1  UNL1       -0.0017
     44 C           8.7817   75.6864   21.9351 C.ar    1  UNL1        0.0681
     45 N           9.9753   75.5979   21.3053 N.ar    1  UNL1       -0.3523
     46 C          10.5087   74.4233   21.6838 C.ar    1  UNL1        0.0563
     47 C          11.7507   73.9038   21.3218 C.ar    1  UNL1        0.0170
     48 C          12.1286   72.6630   21.8673 C.ar    1  UNL1        0.0015
     49 C          11.2692   71.9804   22.7568 C.ar    1  UNL1        0.0001
     50 C          10.0231   72.5310   23.1076 C.ar    1  UNL1        0.0012
     51 C           9.6729   73.7578   22.5437 C.ar    1  UNL1        0.0131
     52 H          10.4037   76.3119   20.6753 H       1  UNL1        0.1660
@<TRIPOS>BOND
     1    25    26    1
     2    26    24    1
     3    24    14    1
     4    14    15   ar
     5    15    16   ar
     6    16    17   ar
     7    17     8    1
     8     8     9    1
     9     9    10    1
    10    10    11    1
    11    11     1    1
    12     1     2   ar
    13     2     3   ar
    14     3     4   ar
    15     4    27    1
    16    27    28    2
    17    27    29   am
    18    29    31    1
    19    31    42    1
    20    42    43    1
    21    43    44   ar
    22    44    45   ar
    23    45    46   ar
    24    46    47   ar
    25    47    48   ar
    26    48    49   ar
    27    49    50   ar
    28    50    51   ar
    29    31    32    1
    30    32    33    2
    31    32    34   am
    32    34    36    1
    33    36    37   ar
    34    37    38   ar
    35    38    39   ar
    36    39    40   ar
    37    40    41   ar
    38     4     5   ar
    39     5     6    1
    40     5     7   ar
    41    11    12    1
    42    12    13    1
    43    17    18   ar
    44    18    19   ar
    45    19    20    1
    46    20    21    1
    47    20    22    1
    48    20    23    1
    49    19    14   ar
    50    13     8    1
    51     7     1   ar
    52    51    43   ar
    53    41    36   ar
    54    51    46   ar
    55    29    30    1
    56    45    52    1
    57    34    35    1
@<TRIPOS>MOLECULE
*****
 52 57 0 0 0
SMALL
GASTEIGER

@<TRIPOS>ATOM
      1 C           7.6742   75.9697   21.7888 C.ar    1  UNL1        0.0502
      2 C           8.7413   75.0890   21.5594 C.ar    1  UNL1        0.0148
      3 C          10.0085   75.3618   22.0803 C.ar    1  UNL1        0.0080
      4 C          10.2302   76.5162   22.8493 C.ar    1  UNL1        0.0808
      5 C           9.1628   77.4073   23.0704 C.ar    1  UNL1        0.1457
      6 F           9.3506   78.5677   23.7486 F       1  UNL1       -0.2040
      7 C           7.8959   77.1308   22.5465 C.ar    1  UNL1        0.0443
      8 N           3.7767   74.8532   20.7014 N.pl3   1  UNL1       -0.3041
      9 C           4.8488   73.8535   20.6298 C.3     1  UNL1        0.1122
     10 C           6.1849   74.5406   20.3457 C.3     1  UNL1        0.1122
     11 N           6.3695   75.6805   21.2521 N.pl3   1  UNL1       -0.3040
     12 C           5.2967   76.6799   21.3245 C.3     1  UNL1        0.1122
     13 C           3.9609   75.9925   21.6084 C.3     1  UNL1        0.1122
     14 C          -0.0896   74.0009   19.1196 C.ar    1  UNL1        0.0112
     15 C           0.5413   75.2294   18.8603 C.ar    1  UNL1       -0.0006
     16 C           1.8037   75.5108   19.3773 C.ar    1  UNL1        0.0143
     17 C           2.4727   74.5660   20.1624 C.ar    1  UNL1        0.0479
     18 C           1.8597   73.3332   20.4245 C.ar    1  UNL1        0.0181
     19 C           0.5822   73.0258   19.9105 C.ar    1  UNL1        0.0710
     20 C          -0.0324   71.6693   20.2052 C.3     1  UNL1        0.4184
     21 F           0.9067   70.7661   20.6737 F       1  UNL1       -0.1659
     22 F          -0.5836   71.1464   19.0492 F       1  UNL1       -0.1659
     23 F          -1.0150   71.7976   21.1695 F       1  UNL1       -0.1659
     24 C          -1.4665   73.7862   18.5205 C.3     1  UNL1        0.1686
     25 C          -2.7942   75.5116   19.3158 C.3     1  UNL1        0.1746
     26 O          -2.4797   74.1419   19.4423 O.3     1  UNL1       -0.3463
     27 C          11.5777   76.7752   23.3999 C.2     1  UNL1        0.2483
     28 O          12.5236   75.9959   23.1007 O.2     1  UNL1       -0.2701
     29 N          11.8045   77.8676   24.3071 N.am    1  UNL1       -0.2945
     30 H          10.9748   78.3874   24.6729 H       1  UNL1        0.1501
     31 C          13.0948   78.0875   24.9716 C.3     1  UNL1        0.1535
     32 C          13.5320   79.5171   24.7913 C.2     1  UNL1        0.2443
     33 O          14.6016   79.7703   24.1718 O.2     1  UNL1       -0.2730
     34 N          12.6814   80.5857   25.2369 N.am    1  UNL1       -0.2825
     35 H          11.6805   80.3601   25.4374 H       1  UNL1        0.1549
     36 C          13.0916   81.9614   25.3173 C.ar    1  UNL1        0.0535
     37 C          13.6628   82.4421   26.5036 C.ar    1  UNL1        0.0353
     38 C          14.0840   83.7717   26.5796 C.ar    1  UNL1        0.1002
     39 N          13.9553   84.5904   25.5023 N.ar    1  UNL1       -0.2422
     40 C          13.4236   84.1485   24.3321 C.ar    1  UNL1        0.1002
     41 C          12.9887   82.8260   24.2138 C.ar    1  UNL1        0.0353
     42 C          12.9889   77.7558   26.4693 C.3     1  UNL1        0.0569
     43 C          11.6396   77.1917   26.8081 C.ar    1  UNL1       -0.0017
     44 C          11.3516   75.8660   27.1209 C.ar    1  UNL1        0.0681
     45 N          10.0580   75.7396   27.4950 N.ar    1  UNL1       -0.3523
     46 C           9.5311   76.9748   27.4331 C.ar    1  UNL1        0.0563
     47 C           8.2309   77.3560   27.7611 C.ar    1  UNL1        0.0170
     48 C           7.8994   78.7195   27.6569 C.ar    1  UNL1        0.0015
     49 C           8.8656   79.6612   27.2381 C.ar    1  UNL1        0.0001
     50 C          10.1716   79.2481   26.9176 C.ar    1  UNL1        0.0012
     51 C          10.4672   77.8889   27.0221 C.ar    1  UNL1        0.0131
     52 H           9.5776   74.8628   27.7962 H       1  UNL1        0.1660
@<TRIPOS>BOND
     1    25    26    1
     2    26    24    1
     3    24    14    1
     4    14    15   ar
     5    15    16   ar
     6    16    17   ar
     7    17     8    1
     8     8     9    1
     9     9    10    1
    10    10    11    1
    11    11     1    1
    12     1     2   ar
    13     2     3   ar
    14     3     4   ar
    15     4    27    1
    16    27    28    2
    17    27    29   am
    18    29    31    1
    19    31    42    1
    20    42    43    1
    21    43    44   ar
    22    44    45   ar
    23    45    46   ar
    24    46    47   ar
    25    47    48   ar
    26    48    49   ar
    27    49    50   ar
    28    50    51   ar
    29    31    32    1
    30    32    33    2
    31    32    34   am
    32    34    36    1
    33    36    37   ar
    34    37    38   ar
    35    38    39   ar
    36    39    40   ar
    37    40    41   ar
    38     4     5   ar
    39     5     6    1
    40     5     7   ar
    41    11    12    1
    42    12    13    1
    43    17    18   ar
    44    18    19   ar
    45    19    20    1
    46    20    21    1
    47    20    22    1
    48    20    23    1
    49    19    14   ar
    50    13     8    1
    51     7     1   ar
    52    51    43   ar
    53    41    36   ar
    54    51    46   ar
    55    29    30    1
    56    45    52    1
    57    34    35    1
@<TRIPOS>MOLECULE
*****
 52 57 0 0 0
SMALL
GASTEIGER

@<TRIPOS>ATOM
      1 C          10.7213   79.9764   25.8911 C.ar    1  UNL1        0.0502
      2 C          10.5991   81.3734   25.8744 C.ar    1  UNL1        0.0148
      3 C          11.6205   82.1669   25.3464 C.ar    1  UNL1        0.0080
      4 C          12.7797   81.5774   24.8158 C.ar    1  UNL1        0.0808
      5 C          12.9091   80.1757   24.8427 C.ar    1  UNL1        0.1457
      6 F          14.0416   79.5701   24.4040 F       1  UNL1       -0.2040
      7 C          11.8846   79.3850   25.3729 C.ar    1  UNL1        0.0443
      8 N           8.0280   77.2202   27.5549 N.pl3   1  UNL1       -0.3041
      9 C           8.4810   77.0258   26.1725 C.3     1  UNL1        0.1122
     10 C           8.8087   78.3769   25.5360 C.3     1  UNL1        0.1122
     11 N           9.6630   79.1642   26.4334 N.pl3   1  UNL1       -0.3040
     12 C           9.2105   79.3576   27.8164 C.3     1  UNL1        0.1122
     13 C           8.8827   78.0065   28.4525 C.3     1  UNL1        0.1122
     14 C           4.8789   74.8324   29.1544 C.ar    1  UNL1        0.0112
     15 C           5.7799   74.3031   28.2149 C.ar    1  UNL1       -0.0006
     16 C           6.8085   75.0818   27.6897 C.ar    1  UNL1        0.0143
     17 C           6.9678   76.4104   28.0970 C.ar    1  UNL1        0.0479
     18 C           6.0815   76.9510   29.0384 C.ar    1  UNL1        0.0181
     19 C           5.0331   76.1809   29.5848 C.ar    1  UNL1        0.0710
     20 C           4.1106   76.8046   30.6166 C.3     1  UNL1        0.4184
     21 F           4.2019   78.1862   30.6250 F       1  UNL1       -0.1659
     22 F           4.4478   76.3498   31.8787 F       1  UNL1       -0.1659
     23 F           2.7984   76.4682   30.3388 F       1  UNL1       -0.1659
     24 C           3.7867   73.9120   29.6654 C.3     1  UNL1        0.1686
     25 C           3.4831   71.7638   28.8499 C.3     1  UNL1        0.1746
     26 O           4.2406   72.5728   29.7234 O.3     1  UNL1       -0.3463
     27 C          13.8404   82.4390   24.2513 C.2     1  UNL1        0.2483
     28 O          15.0246   82.0061   24.2072 O.2     1  UNL1       -0.2701
     29 N          13.5447   83.7736   23.8050 N.am    1  UNL1       -0.2945
     30 H          12.5988   84.1667   24.0131 H       1  UNL1        0.1501
     31 C          14.5861   84.7041   23.3529 C.3     1  UNL1        0.1535
     32 C          14.7385   84.6221   21.8571 C.2     1  UNL1        0.2443
     33 O          15.5701   83.8158   21.3568 O.2     1  UNL1       -0.2730
     34 N          13.8690   85.3876   21.0076 N.am    1  UNL1       -0.2825
     35 H          12.9957   85.7778   21.4295 H       1  UNL1        0.1549
     36 C          14.0681   85.5560   19.5936 C.ar    1  UNL1        0.0535
     37 C          13.8227   86.8051   19.0069 C.ar    1  UNL1        0.0353
     38 C          14.0363   86.9804   17.6377 C.ar    1  UNL1        0.1002
     39 N          14.4958   85.9486   16.8816 N.ar    1  UNL1       -0.2422
     40 C          14.7617   84.7314   17.4249 C.ar    1  UNL1        0.1002
     41 C          14.5607   84.5130   18.7902 C.ar    1  UNL1        0.0353
     42 C          14.2347   86.1427   23.7667 C.3     1  UNL1        0.0569
     43 C          15.4502   86.8854   24.2407 C.ar    1  UNL1       -0.0017
     44 C          16.5962   87.1568   23.4982 C.ar    1  UNL1        0.0681
     45 N          17.4354   87.9528   24.1993 N.ar    1  UNL1       -0.3523
     46 C          16.8239   88.1959   25.3716 C.ar    1  UNL1        0.0563
     47 C          17.2851   88.9979   26.4145 C.ar    1  UNL1        0.0170
     48 C          16.4608   89.1440   27.5455 C.ar    1  UNL1        0.0015
     49 C          15.2060   88.4978   27.6051 C.ar    1  UNL1        0.0001
     50 C          14.7646   87.6978   26.5355 C.ar    1  UNL1        0.0012
     51 C          15.6077   87.5650   25.4322 C.ar    1  UNL1        0.0131
     52 H          18.3580   88.3230   23.8798 H       1  UNL1        0.1660
@<TRIPOS>BOND
     1    25    26    1
     2    26    24    1
     3    24    14    1
     4    14    15   ar
     5    15    16   ar
     6    16    17   ar
     7    17     8    1
     8     8     9    1
     9     9    10    1
    10    10    11    1
    11    11     1    1
    12     1     2   ar
    13     2     3   ar
    14     3     4   ar
    15     4    27    1
    16    27    28    2
    17    27    29   am
    18    29    31    1
    19    31    42    1
    20    42    43    1
    21    43    44   ar
    22    44    45   ar
    23    45    46   ar
    24    46    47   ar
    25    47    48   ar
    26    48    49   ar
    27    49    50   ar
    28    50    51   ar
    29    31    32    1
    30    32    33    2
    31    32    34   am
    32    34    36    1
    33    36    37   ar
    34    37    38   ar
    35    38    39   ar
    36    39    40   ar
    37    40    41   ar
    38     4     5   ar
    39     5     6    1
    40     5     7   ar
    41    11    12    1
    42    12    13    1
    43    17    18   ar
    44    18    19   ar
    45    19    20    1
    46    20    21    1
    47    20    22    1
    48    20    23    1
    49    19    14   ar
    50    13     8    1
    51     7     1   ar
    52    51    43   ar
    53    41    36   ar
    54    51    46   ar
    55    29    30    1
    56    45    52    1
    57    34    35    1
@<TRIPOS>MOLECULE
*****
 52 57 0 0 0
SMALL
GASTEIGER

@<TRIPOS>ATOM
      1 C           5.9084   76.2605   23.7834 C.ar    1  UNL1        0.0502
      2 C           7.1965   76.3905   23.2443 C.ar    1  UNL1        0.0148
      3 C           8.2512   76.8534   24.0348 C.ar    1  UNL1        0.0080
      4 C           8.0396   77.1859   25.3830 C.ar    1  UNL1        0.0808
      5 C           6.7444   77.0673   25.9224 C.ar    1  UNL1        0.1457
      6 F           6.4827   77.4434   27.1998 F       1  UNL1       -0.2040
      7 C           5.6912   76.6042   25.1274 C.ar    1  UNL1        0.0443
      8 N           2.9180   75.2376   21.0211 N.pl3   1  UNL1       -0.3041
      9 C           2.7585   76.4565   21.8228 C.3     1  UNL1        0.1122
     10 C           3.4665   76.2926   23.1681 C.3     1  UNL1        0.1122
     11 N           4.8265   75.7791   22.9640 N.pl3   1  UNL1       -0.3040
     12 C           4.9861   74.5605   22.1612 C.3     1  UNL1        0.1122
     13 C           4.2780   74.7247   20.8161 C.3     1  UNL1        0.1122
     14 C          -0.2951   73.8036   18.6136 C.ar    1  UNL1        0.0112
     15 C           0.2315   75.0921   18.4211 C.ar    1  UNL1       -0.0006
     16 C           1.2801   75.5634   19.2074 C.ar    1  UNL1        0.0143
     17 C           1.8357   74.7539   20.2037 C.ar    1  UNL1        0.0479
     18 C           1.3261   73.4637   20.4036 C.ar    1  UNL1        0.0181
     19 C           0.2653   72.9648   19.6185 C.ar    1  UNL1        0.0710
     20 C          -0.2394   71.5534   19.8592 C.3     1  UNL1        0.4184
     21 F           0.7455   70.7336   20.3837 F       1  UNL1       -0.1659
     22 F          -0.6604   70.9989   18.6639 F       1  UNL1       -0.1659
     23 F          -1.2927   71.5768   20.7548 F       1  UNL1       -0.1659
     24 C          -1.4408   73.3792   17.7146 C.3     1  UNL1        0.1686
     25 C          -2.6629   74.8086   19.0695 C.3     1  UNL1        0.1746
     26 O          -2.6875   73.5959   18.3485 O.3     1  UNL1       -0.3463
     27 C           9.1753   77.6613   26.2015 C.2     1  UNL1        0.2483
     28 O          10.3234   77.7223   25.6822 O.2     1  UNL1       -0.2701
     29 N           8.9927   78.0014   27.5867 N.am    1  UNL1       -0.2945
     30 H           8.0754   77.7766   28.0346 H       1  UNL1        0.1501
     31 C          10.1121   78.3594   28.4662 C.3     1  UNL1        0.1535
     32 C           9.8927   79.7300   29.0500 C.2     1  UNL1        0.2443
     33 O          10.0253   80.7495   28.3185 O.2     1  UNL1       -0.2730
     34 N           9.4380   79.8643   30.4061 N.am    1  UNL1       -0.2825
     35 H           9.0275   79.0210   30.8678 H       1  UNL1        0.1549
     36 C           9.4104   81.1082   31.1268 C.ar    1  UNL1        0.0535
     37 C           8.9003   81.1373   32.4320 C.ar    1  UNL1        0.0353
     38 C           8.8920   82.3384   33.1450 C.ar    1  UNL1        0.1002
     39 N           9.3915   83.4697   32.5810 N.ar    1  UNL1       -0.2422
     40 C           9.9108   83.4692   31.3250 C.ar    1  UNL1        0.1002
     41 C           9.9374   82.2895   30.5768 C.ar    1  UNL1        0.0353
     42 C          10.2579   77.3253   29.5948 C.3     1  UNL1        0.0569
     43 C           9.2274   76.2401   29.4757 C.ar    1  UNL1       -0.0017
     44 C           9.4337   74.9530   28.9867 C.ar    1  UNL1        0.0681
     45 N           8.3178   74.2047   29.1417 N.ar    1  UNL1       -0.3523
     46 C           7.4141   75.0039   29.7349 C.ar    1  UNL1        0.0563
     47 C           6.1201   74.6683   30.1303 C.ar    1  UNL1        0.0170
     48 C           5.3514   75.6568   30.7720 C.ar    1  UNL1        0.0015
     49 C           5.8895   76.9418   31.0069 C.ar    1  UNL1        0.0001
     50 C           7.2003   77.2509   30.6004 C.ar    1  UNL1        0.0012
     51 C           7.9341   76.2530   29.9589 C.ar    1  UNL1        0.0131
     52 H           8.1963   73.2019   28.8773 H       1  UNL1        0.1660
@<TRIPOS>BOND
     1    25    26    1
     2    26    24    1
     3    24    14    1
     4    14    15   ar
     5    15    16   ar
     6    16    17   ar
     7    17     8    1
     8     8     9    1
     9     9    10    1
    10    10    11    1
    11    11     1    1
    12     1     2   ar
    13     2     3   ar
    14     3     4   ar
    15     4    27    1
    16    27    28    2
    17    27    29   am
    18    29    31    1
    19    31    42    1
    20    42    43    1
    21    43    44   ar
    22    44    45   ar
    23    45    46   ar
    24    46    47   ar
    25    47    48   ar
    26    48    49   ar
    27    49    50   ar
    28    50    51   ar
    29    31    32    1
    30    32    33    2
    31    32    34   am
    32    34    36    1
    33    36    37   ar
    34    37    38   ar
    35    38    39   ar
    36    39    40   ar
    37    40    41   ar
    38     4     5   ar
    39     5     6    1
    40     5     7   ar
    41    11    12    1
    42    12    13    1
    43    17    18   ar
    44    18    19   ar
    45    19    20    1
    46    20    21    1
    47    20    22    1
    48    20    23    1
    49    19    14   ar
    50    13     8    1
    51     7     1   ar
    52    51    43   ar
    53    41    36   ar
    54    51    46   ar
    55    29    30    1
    56    45    52    1
    57    34    35    1
