@<TRIPOS>MOLECULE
*****
 47 52 0 0 0
SMALL
GASTEIGER

@<TRIPOS>ATOM
      1 C          61.4568   88.0725    8.8872 C.ar    1  UNL1        0.0702
      2 C          61.8021   88.8037   10.0331 C.ar    1  UNL1        0.0191
      3 C          61.8192   88.1824   11.2831 C.ar    1  UNL1        0.0356
      4 C          61.4730   86.8228   11.3919 C.ar    1  UNL1        0.1318
      5 N          61.1168   86.1456   10.2638 N.ar    1  UNL1       -0.2279
      6 C          61.0923   86.7302    9.0375 C.ar    1  UNL1        0.1149
      7 N          61.4897   86.1392   12.6681 N.pl3   1  UNL1       -0.2919
      8 C          62.7354   86.0311   13.4471 C.3     1  UNL1        0.0924
      9 C          62.6017   85.0282   14.6021 C.3     1  UNL1        0.0266
     10 C          61.9400   83.7226   14.1142 C.3     1  UNL1        0.0613
     11 C          60.5598   83.9724   13.4123 C.3     1  UNL1        0.0745
     12 N          60.5149   83.2641   12.1293 N.3     1  UNL1       -0.3207
     13 C          60.2832   85.4722   13.1807 C.3     1  UNL1        0.1077
     14 H          59.5574   83.3714   11.7215 H       1  UNL1        0.1189
     15 H          60.6293   82.2410   12.3110 H       1  UNL1        0.1189
     16 C          61.8060   82.7360   15.2928 C.3     1  UNL1        0.2067
     17 O          62.2280   81.4231   14.9206 O.3     1  UNL1       -0.4754
     18 C          61.9243   80.7793   13.7095 C.ar    1  UNL1        0.1388
     19 C          62.7668   80.8373   12.5832 C.ar    1  UNL1        0.0369
     20 C          62.4091   80.1805   11.4042 C.ar    1  UNL1        0.0033
     21 C          61.2155   79.4593   11.3341 C.ar    1  UNL1        0.0066
     22 C          60.3636   79.3858   12.4498 C.ar    1  UNL1        0.0785
     23 C          60.7312   80.0496   13.6336 C.ar    1  UNL1        0.0433
     24 C          59.0974   78.6230   12.3832 C.2     1  UNL1        0.3381
     25 O          58.6460   78.0440   13.4083 O.2     1  UNL1       -0.2451
     26 O          58.3916   78.5371   11.1858 O.3     1  UNL1       -0.4771
     27 H          57.5238   78.0174   11.1294 H       1  UNL1        0.2954
     28 C          60.1908   88.8495    6.8266 C.2     1  UNL1        0.2839
     29 O          59.0988   88.3883    7.2536 O.2     1  UNL1       -0.2665
     30 N          61.4006   88.6810    7.5865 N.am    1  UNL1       -0.2766
     31 H          62.2911   89.0688    7.2058 H       1  UNL1        0.1553
     32 C          57.6371   89.8660    5.1147 C.3     1  UNL1        0.0345
     33 C          59.0948   89.9979    4.7928 C.ar    1  UNL1        0.0202
     34 C          60.1972   89.5401    5.5254 C.ar    1  UNL1        0.1946
     35 O          61.3144   89.7965    4.8679 O.2     1  UNL1       -0.4492
     36 C          60.9956   90.4186    3.7592 C.ar    1  UNL1        0.1452
     37 C          61.8576   90.8829    2.7717 C.ar    1  UNL1        0.0375
     38 C          61.2960   91.5279    1.6556 C.ar    1  UNL1        0.0031
     39 C          59.8892   91.6974    1.5432 C.ar    1  UNL1        0.0002
     40 C          59.0475   91.2077    2.5707 C.ar    1  UNL1        0.0028
     41 C          59.6398   90.5752    3.6637 C.ar    1  UNL1        0.0337
     42 C          59.3071   92.3803    0.3600 C.ar    1  UNL1        0.0000
     43 C          57.9472   92.2151    0.0350 C.ar    1  UNL1        0.0000
     44 C          57.4023   92.8586   -1.0804 C.ar    1  UNL1        0.0000
     45 C          58.2054   93.6726   -1.8821 C.ar    1  UNL1        0.0000
     46 C          59.5558   93.8447   -1.5703 C.ar    1  UNL1        0.0000
     47 C          60.1064   93.2030   -0.4566 C.ar    1  UNL1        0.0000
@<TRIPOS>BOND
     1    32    33    1
     2    33    34   ar
     3    34    28    1
     4    28    29    2
     5    28    30   am
     6    30     1    1
     7     1     2   ar
     8     2     3   ar
     9     3     4   ar
    10     4     7    1
    11     7     8    1
    12     8     9    1
    13     9    10    1
    14    10    16    1
    15    16    17    1
    16    17    18    1
    17    18    19   ar
    18    19    20   ar
    19    20    21   ar
    20    21    22   ar
    21    22    24    1
    22    24    25    2
    23    24    26    1
    24    22    23   ar
    25    10    11    1
    26    11    12    1
    27    11    13    1
    28     4     5   ar
    29     5     6   ar
    30    34    35   ar
    31    35    36   ar
    32    36    37   ar
    33    37    38   ar
    34    38    39   ar
    35    39    42    1
    36    42    43   ar
    37    43    44   ar
    38    44    45   ar
    39    45    46   ar
    40    46    47   ar
    41    39    40   ar
    42    40    41   ar
    43    41    33   ar
    44     6     1   ar
    45    41    36   ar
    46    13     7    1
    47    47    42   ar
    48    23    18   ar
    49    30    31    1
    50    26    27    1
    51    12    14    1
    52    12    15    1
@<TRIPOS>MOLECULE
*****
 47 52 0 0 0
SMALL
GASTEIGER

@<TRIPOS>ATOM
      1 C          60.8847   87.0518    8.4313 C.ar    1  UNL1        0.0702
      2 C          59.7710   86.3738    8.9480 C.ar    1  UNL1        0.0191
      3 C          59.8574   85.7174   10.1770 C.ar    1  UNL1        0.0356
      4 C          61.0713   85.7248   10.8889 C.ar    1  UNL1        0.1318
      5 N          62.1433   86.3703   10.3483 N.ar    1  UNL1       -0.2279
      6 C          62.0822   87.0148    9.1537 C.ar    1  UNL1        0.1149
      7 N          61.1982   85.0659   12.1718 N.pl3   1  UNL1       -0.2919
      8 C          62.5250   84.8206   12.7633 C.3     1  UNL1        0.0924
      9 C          62.4486   83.8610   13.9595 C.3     1  UNL1        0.0266
     10 C          61.5726   82.6373   13.6194 C.3     1  UNL1        0.0613
     11 C          60.1420   83.0408   13.1190 C.3     1  UNL1        0.0745
     12 N          59.8228   82.3216   11.8817 N.3     1  UNL1       -0.3207
     13 C          60.0120   84.5589   12.8784 C.3     1  UNL1        0.1077
     14 H          58.8345   82.5374   11.6151 H       1  UNL1        0.1189
     15 H          59.8421   81.2954   12.0802 H       1  UNL1        0.1189
     16 C          61.5014   81.6943   14.8385 C.3     1  UNL1        0.2067
     17 O          61.5820   80.3249   14.4402 O.3     1  UNL1       -0.4754
     18 C          60.8116   79.7196   13.4335 C.ar    1  UNL1        0.1388
     19 C          59.5188   79.2121   13.6641 C.ar    1  UNL1        0.0369
     20 C          58.8026   78.6161   12.6243 C.ar    1  UNL1        0.0033
     21 C          59.3612   78.5215   11.3482 C.ar    1  UNL1        0.0066
     22 C          60.6487   79.0268   11.0972 C.ar    1  UNL1        0.0785
     23 C          61.3634   79.6260   12.1495 C.ar    1  UNL1        0.0433
     24 C          61.2470   78.9307    9.7473 C.2     1  UNL1        0.3381
     25 O          60.8342   79.6684    8.8117 O.2     1  UNL1       -0.2451
     26 O          62.2730   78.0229    9.4970 O.3     1  UNL1       -0.4771
     27 H          62.6894   77.9491    8.5765 H       1  UNL1        0.2954
     28 C          60.0138   88.8538    6.8670 C.2     1  UNL1        0.2839
     29 O          59.2008   89.2870    7.7265 O.2     1  UNL1       -0.2665
     30 N          60.8453   87.7165    7.1577 N.am    1  UNL1       -0.2766
     31 H          61.5055   87.3765    6.4250 H       1  UNL1        0.1553
     32 C          57.5335   89.9477    5.0958 C.3     1  UNL1        0.0345
     33 C          59.0008   90.0170    4.7987 C.ar    1  UNL1        0.0202
     34 C          60.0708   89.5256    5.5571 C.ar    1  UNL1        0.1946
     35 O          61.2089   89.7282    4.9168 O.2     1  UNL1       -0.4492
     36 C          60.9349   90.3472    3.7945 C.ar    1  UNL1        0.1452
     37 C          61.8321   90.7631    2.8168 C.ar    1  UNL1        0.0375
     38 C          61.3166   91.4145    1.6824 C.ar    1  UNL1        0.0031
     39 C          59.9199   91.6385    1.5422 C.ar    1  UNL1        0.0002
     40 C          59.0413   91.1969    2.5606 C.ar    1  UNL1        0.0028
     41 C          59.5884   90.5564    3.6723 C.ar    1  UNL1        0.0337
     42 C          59.3867   92.3276    0.3398 C.ar    1  UNL1        0.0000
     43 C          58.0545   92.1266   -0.0689 C.ar    1  UNL1        0.0000
     44 C          57.5556   92.7761   -1.2022 C.ar    1  UNL1        0.0000
     45 C          58.3775   93.6319   -1.9386 C.ar    1  UNL1        0.0000
     46 C          59.7008   93.8399   -1.5435 C.ar    1  UNL1        0.0000
     47 C          60.2054   93.1924   -0.4115 C.ar    1  UNL1        0.0000
@<TRIPOS>BOND
     1    32    33    1
     2    33    34   ar
     3    34    28    1
     4    28    29    2
     5    28    30   am
     6    30     1    1
     7     1     2   ar
     8     2     3   ar
     9     3     4   ar
    10     4     7    1
    11     7     8    1
    12     8     9    1
    13     9    10    1
    14    10    16    1
    15    16    17    1
    16    17    18    1
    17    18    19   ar
    18    19    20   ar
    19    20    21   ar
    20    21    22   ar
    21    22    24    1
    22    24    25    2
    23    24    26    1
    24    22    23   ar
    25    10    11    1
    26    11    12    1
    27    11    13    1
    28     4     5   ar
    29     5     6   ar
    30    34    35   ar
    31    35    36   ar
    32    36    37   ar
    33    37    38   ar
    34    38    39   ar
    35    39    42    1
    36    42    43   ar
    37    43    44   ar
    38    44    45   ar
    39    45    46   ar
    40    46    47   ar
    41    39    40   ar
    42    40    41   ar
    43    41    33   ar
    44     6     1   ar
    45    41    36   ar
    46    13     7    1
    47    47    42   ar
    48    23    18   ar
    49    30    31    1
    50    26    27    1
    51    12    14    1
    52    12    15    1
@<TRIPOS>MOLECULE
*****
 47 52 0 0 0
SMALL
GASTEIGER

@<TRIPOS>ATOM
      1 C          61.4370   88.3916    9.0416 C.ar    1  UNL1        0.0702
      2 C          62.1691   88.9726   10.0872 C.ar    1  UNL1        0.0191
      3 C          62.1554   88.3957   11.3584 C.ar    1  UNL1        0.0356
      4 C          61.3910   87.2374   11.5914 C.ar    1  UNL1        0.1318
      5 N          60.6695   86.7111   10.5616 N.ar    1  UNL1       -0.2279
      6 C          60.6673   87.2561    9.3170 C.ar    1  UNL1        0.1149
      7 N          61.3597   86.6024   12.8922 N.pl3   1  UNL1       -0.2919
      8 C          62.5784   86.5136   13.7152 C.3     1  UNL1        0.0924
      9 C          62.3977   85.5562   14.9020 C.3     1  UNL1        0.0266
     10 C          61.7399   84.2386   14.4420 C.3     1  UNL1        0.0613
     11 C          60.3857   84.4730   13.6862 C.3     1  UNL1        0.0745
     12 N          60.3759   83.7171   12.4299 N.3     1  UNL1       -0.3207
     13 C          60.1310   85.9651   13.3895 C.3     1  UNL1        0.1077
     14 H          59.4333   83.8168   11.9871 H       1  UNL1        0.1189
     15 H          60.4747   82.7007   12.6535 H       1  UNL1        0.1189
     16 C          61.5584   83.2984   15.6517 C.3     1  UNL1        0.2067
     17 O          62.0447   81.9860   15.3661 O.3     1  UNL1       -0.4754
     18 C          62.0531   81.3745   14.1014 C.ar    1  UNL1        0.1388
     19 C          61.1581   80.3479   13.7451 C.ar    1  UNL1        0.0369
     20 C          61.2177   79.7743   12.4736 C.ar    1  UNL1        0.0033
     21 C          62.1628   80.2160   11.5454 C.ar    1  UNL1        0.0066
     22 C          63.0616   81.2432   11.8810 C.ar    1  UNL1        0.0785
     23 C          62.9949   81.8161   13.1634 C.ar    1  UNL1        0.0433
     24 C          64.0655   81.7169   10.9025 C.2     1  UNL1        0.3381
     25 O          63.9426   81.4428    9.6779 O.2     1  UNL1       -0.2451
     26 O          65.1572   82.4708   11.3257 O.3     1  UNL1       -0.4771
     27 H          65.8501   82.8000   10.6640 H       1  UNL1        0.2954
     28 C          60.2493   88.9494    6.8665 C.2     1  UNL1        0.2839
     29 O          59.2037   88.3386    7.2145 O.2     1  UNL1       -0.2665
     30 N          61.4027   88.9692    7.7261 N.am    1  UNL1       -0.2766
     31 H          62.2564   89.4784    7.4097 H       1  UNL1        0.1553
     32 C          57.7162   90.0578    5.1814 C.3     1  UNL1        0.0345
     33 C          59.1725   90.1150    4.8323 C.ar    1  UNL1        0.0202
     34 C          60.2649   89.6174    5.5536 C.ar    1  UNL1        0.1946
     35 O          61.3811   89.8095    4.8727 O.2     1  UNL1       -0.4492
     36 C          61.0721   90.4278    3.7591 C.ar    1  UNL1        0.1452
     37 C          61.9371   90.8342    2.7490 C.ar    1  UNL1        0.0375
     38 C          61.3867   91.4867    1.6318 C.ar    1  UNL1        0.0031
     39 C          59.9876   91.7211    1.5406 C.ar    1  UNL1        0.0002
     40 C          59.1424   91.2890    2.5908 C.ar    1  UNL1        0.0028
     41 C          59.7237   90.6470    3.6842 C.ar    1  UNL1        0.0337
     42 C          59.4173   92.4113    0.3559 C.ar    1  UNL1        0.0000
     43 C          60.2363   93.1951   -0.4791 C.ar    1  UNL1        0.0000
     44 C          59.6962   93.8446   -1.5933 C.ar    1  UNL1        0.0000
     45 C          58.3366   93.7196   -1.8871 C.ar    1  UNL1        0.0000
     46 C          57.5137   92.9449   -1.0667 C.ar    1  UNL1        0.0000
     47 C          58.0482   92.2937    0.0494 C.ar    1  UNL1        0.0000
@<TRIPOS>BOND
     1    32    33    1
     2    33    34   ar
     3    34    28    1
     4    28    29    2
     5    28    30   am
     6    30     1    1
     7     1     2   ar
     8     2     3   ar
     9     3     4   ar
    10     4     7    1
    11     7     8    1
    12     8     9    1
    13     9    10    1
    14    10    16    1
    15    16    17    1
    16    17    18    1
    17    18    19   ar
    18    19    20   ar
    19    20    21   ar
    20    21    22   ar
    21    22    24    1
    22    24    25    2
    23    24    26    1
    24    22    23   ar
    25    10    11    1
    26    11    12    1
    27    11    13    1
    28     4     5   ar
    29     5     6   ar
    30    34    35   ar
    31    35    36   ar
    32    36    37   ar
    33    37    38   ar
    34    38    39   ar
    35    39    42    1
    36    42    43   ar
    37    43    44   ar
    38    44    45   ar
    39    45    46   ar
    40    46    47   ar
    41    39    40   ar
    42    40    41   ar
    43    41    33   ar
    44     6     1   ar
    45    41    36   ar
    46    13     7    1
    47    47    42   ar
    48    23    18   ar
    49    30    31    1
    50    26    27    1
    51    12    14    1
    52    12    15    1
@<TRIPOS>MOLECULE
*****
 47 52 0 0 0
SMALL
GASTEIGER

@<TRIPOS>ATOM
      1 C          59.7369   87.0701    7.3350 C.ar    1  UNL1        0.0702
      2 C          59.9650   87.3967    8.6797 C.ar    1  UNL1        0.0191
      3 C          59.5485   86.5308    9.6924 C.ar    1  UNL1        0.0356
      4 C          58.8842   85.3356    9.3600 C.ar    1  UNL1        0.1318
      5 N          58.6540   85.0585    8.0453 N.ar    1  UNL1       -0.2279
      6 C          59.0495   85.8869    7.0435 C.ar    1  UNL1        0.1149
      7 N          58.4469   84.4059   10.3801 N.pl3   1  UNL1       -0.2919
      8 C          59.0315   84.4430   11.7318 C.3     1  UNL1        0.0924
      9 C          58.6511   83.2025   12.5530 C.3     1  UNL1        0.0266
     10 C          58.8427   81.9189   11.7188 C.3     1  UNL1        0.0613
     11 C          58.0647   81.9631   10.3576 C.3     1  UNL1        0.0745
     12 N          58.9561   81.5792    9.2585 N.3     1  UNL1       -0.3207
     13 C          57.4655   83.3552   10.0702 C.3     1  UNL1        0.1077
     14 H          58.3965   81.5299    8.3759 H       1  UNL1        0.1189
     15 H          59.2947   80.6053    9.4308 H       1  UNL1        0.1189
     16 C          58.4438   80.6883   12.5596 C.3     1  UNL1        0.2067
     17 O          59.5828   79.8882   12.8805 O.3     1  UNL1       -0.4754
     18 C          60.9204   80.3151   12.8367 C.ar    1  UNL1        0.1388
     19 C          61.5401   80.7607   11.6538 C.ar    1  UNL1        0.0369
     20 C          62.8753   81.1684   11.6711 C.ar    1  UNL1        0.0033
     21 C          63.6048   81.1402   12.8614 C.ar    1  UNL1        0.0066
     22 C          63.0020   80.7031   14.0536 C.ar    1  UNL1        0.0785
     23 C          61.6568   80.2946   14.0280 C.ar    1  UNL1        0.0433
     24 C          63.7686   80.6710   15.3189 C.2     1  UNL1        0.3381
     25 O          64.5300   81.6271   15.6288 O.2     1  UNL1       -0.2451
     26 O          63.6562   79.5827   16.1805 O.3     1  UNL1       -0.4771
     27 H          64.1766   79.5508   17.0491 H       1  UNL1        0.2954
     28 C          59.3459   89.0709    5.8197 C.2     1  UNL1        0.2839
     29 O          58.2129   89.3009    6.3206 O.2     1  UNL1       -0.2665
     30 N          60.1253   87.9465    6.2643 N.am    1  UNL1       -0.2766
     31 H          61.0576   87.7774    5.8280 H       1  UNL1        0.1553
     32 C          62.0301   88.7427    4.0386 C.3     1  UNL1        0.0345
     33 C          60.9856   89.8154    3.9721 C.ar    1  UNL1        0.0202
     34 C          59.8355   89.9660    4.7569 C.ar    1  UNL1        0.1946
     35 O          59.2081   91.0819    4.4294 O.2     1  UNL1       -0.4492
     36 C          59.8780   91.6499    3.4565 C.ar    1  UNL1        0.1452
     37 C          59.5734   92.8375    2.8004 C.ar    1  UNL1        0.0375
     38 C          60.4371   93.2662    1.7770 C.ar    1  UNL1        0.0031
     39 C          61.5863   92.5063    1.4271 C.ar    1  UNL1        0.0002
     40 C          61.8604   91.3039    2.1221 C.ar    1  UNL1        0.0028
     41 C          60.9807   90.9088    3.1299 C.ar    1  UNL1        0.0337
     42 C          62.4914   92.9687    0.3445 C.ar    1  UNL1        0.0000
     43 C          62.0327   93.0560   -0.9838 C.ar    1  UNL1        0.0000
     44 C          62.8876   93.4907   -2.0012 C.ar    1  UNL1        0.0000
     45 C          64.2064   93.8431   -1.7062 C.ar    1  UNL1        0.0000
     46 C          64.6734   93.7611   -0.3926 C.ar    1  UNL1        0.0000
     47 C          63.8232   93.3262    0.6289 C.ar    1  UNL1        0.0000
@<TRIPOS>BOND
     1    32    33    1
     2    33    34   ar
     3    34    28    1
     4    28    29    2
     5    28    30   am
     6    30     1    1
     7     1     2   ar
     8     2     3   ar
     9     3     4   ar
    10     4     7    1
    11     7     8    1
    12     8     9    1
    13     9    10    1
    14    10    16    1
    15    16    17    1
    16    17    18    1
    17    18    19   ar
    18    19    20   ar
    19    20    21   ar
    20    21    22   ar
    21    22    24    1
    22    24    25    2
    23    24    26    1
    24    22    23   ar
    25    10    11    1
    26    11    12    1
    27    11    13    1
    28     4     5   ar
    29     5     6   ar
    30    34    35   ar
    31    35    36   ar
    32    36    37   ar
    33    37    38   ar
    34    38    39   ar
    35    39    42    1
    36    42    43   ar
    37    43    44   ar
    38    44    45   ar
    39    45    46   ar
    40    46    47   ar
    41    39    40   ar
    42    40    41   ar
    43    41    33   ar
    44     6     1   ar
    45    41    36   ar
    46    13     7    1
    47    47    42   ar
    48    23    18   ar
    49    30    31    1
    50    26    27    1
    51    12    14    1
    52    12    15    1
