@<TRIPOS>MOLECULE
*****
 50 55 0 0 0
SMALL
GASTEIGER

@<TRIPOS>ATOM
      1 O          10.2367   76.6432   24.8036 O.2     1  UNL1       -0.2701
      2 C           9.2588   77.4396   24.8277 C.2     1  UNL1        0.2481
      3 N           9.3187   78.6294   25.6280 N.am    1  UNL1       -0.2945
      4 H           8.5796   79.3572   25.4964 H       1  UNL1        0.1501
      5 C           8.0696   77.1551   23.9973 C.ar    1  UNL1        0.0792
      6 C           6.9094   76.6747   24.6288 C.ar    1  UNL1        0.1454
      7 F           6.8803   76.4950   25.9747 F       1  UNL1       -0.2040
      8 C           5.7825   76.3348   23.8803 C.ar    1  UNL1        0.0443
      9 C           5.7855   76.4617   22.4833 C.ar    1  UNL1        0.0500
     10 C           6.9368   76.9578   21.8499 C.ar    1  UNL1        0.0129
     11 C           8.0707   77.3408   22.5903 C.ar    1  UNL1        0.0147
     12 N           4.6257   76.0841   21.7079 N.pl3   1  UNL1       -0.3040
     13 C           4.7269   75.0248   20.6935 C.3     1  UNL1        0.1122
     14 C           3.3912   74.2914   20.5371 C.3     1  UNL1        0.1122
     15 N           2.2793   75.2316   20.3257 N.pl3   1  UNL1       -0.3040
     16 C           2.4486   76.6540   20.6570 C.3     1  UNL1        0.1122
     17 C           3.3649   76.8246   21.8727 C.3     1  UNL1        0.1122
     18 C           1.0550   74.7680   19.7132 C.ar    1  UNL1        0.0488
     19 C           0.0573   75.6804   19.3238 C.ar    1  UNL1        0.0154
     20 C          -1.1234   75.2298   18.7285 C.ar    1  UNL1        0.0135
     21 C          -1.3285   73.8643   18.5110 C.ar    1  UNL1        0.0683
     22 CL         -2.8279   73.3368   17.7588 Cl      1  UNL1       -0.0814
     23 C          -0.3405   72.9425   18.8925 C.ar    1  UNL1        0.0694
     24 CL         -0.5593   71.2160   18.6391 Cl      1  UNL1       -0.0813
     25 C           0.8426   73.3951   19.4883 C.ar    1  UNL1        0.0268
     26 C           9.2625   77.9118   21.8497 C.3     1  UNL1        0.1639
     27 O           9.7477   76.9913   20.9066 O.3     1  UNL1       -0.3772
     28 H          10.5603   76.5734   21.2946 H       1  UNL1        0.2109
     29 C          10.3932   78.8539   26.6005 C.3     1  UNL1        0.1535
     30 C          11.6640   79.2199   25.8844 C.2     1  UNL1        0.2443
     31 O          11.7943   80.3773   25.3995 O.2     1  UNL1       -0.2730
     32 N          12.7507   78.2825   25.8317 N.am    1  UNL1       -0.2825
     33 H          12.7435   77.4898   26.5133 H       1  UNL1        0.1549
     34 C          13.8903   78.4202   24.9662 C.ar    1  UNL1        0.0535
     35 C          14.7350   79.5294   25.1101 C.ar    1  UNL1        0.0353
     36 C          15.8567   79.6559   24.2870 C.ar    1  UNL1        0.1002
     37 N          16.1358   78.6991   23.3629 N.ar    1  UNL1       -0.2422
     38 C          15.3467   77.6026   23.2130 C.ar    1  UNL1        0.1002
     39 C          14.2145   77.4377   24.0149 C.ar    1  UNL1        0.0353
     40 C          10.0178   79.9639   27.5985 C.3     1  UNL1        0.0569
     41 C           9.4814   79.3934   28.8803 C.ar    1  UNL1       -0.0017
     42 C          10.1449   79.3378   30.1025 C.ar    1  UNL1        0.0681
     43 N           9.3315   78.8358   31.0593 N.ar    1  UNL1       -0.3523
     44 C           8.1596   78.5789   30.4532 C.ar    1  UNL1        0.0563
     45 C           7.0005   78.0702   31.0373 C.ar    1  UNL1        0.0170
     46 C           5.8729   77.8933   30.2147 C.ar    1  UNL1        0.0015
     47 C           5.9281   78.2265   28.8430 C.ar    1  UNL1        0.0001
     48 C           7.1108   78.7410   28.2814 C.ar    1  UNL1        0.0012
     49 C           8.2120   78.9052   29.1219 C.ar    1  UNL1        0.0131
     50 H           9.5647   78.6962   32.0675 H       1  UNL1        0.1660
@<TRIPOS>BOND
     1     1     2    2
     2     2     3   am
     3     3    29    1
     4    29    40    1
     5    40    41    1
     6    41    42   ar
     7    42    43   ar
     8    43    44   ar
     9    44    45   ar
    10    45    46   ar
    11    46    47   ar
    12    47    48   ar
    13    48    49   ar
    14    29    30    1
    15    30    31    2
    16    30    32   am
    17    32    34    1
    18    34    35   ar
    19    35    36   ar
    20    36    37   ar
    21    37    38   ar
    22    38    39   ar
    23     2     5    1
    24     5     6   ar
    25     6     7    1
    26     6     8   ar
    27     8     9   ar
    28     9    12    1
    29    12    13    1
    30    13    14    1
    31    14    15    1
    32    15    18    1
    33    18    19   ar
    34    19    20   ar
    35    20    21   ar
    36    21    22    1
    37    21    23   ar
    38    23    24    1
    39    23    25   ar
    40    15    16    1
    41    16    17    1
    42     9    10   ar
    43    10    11   ar
    44    11    26    1
    45    26    27    1
    46    49    41   ar
    47    39    34   ar
    48    11     5   ar
    49    49    44   ar
    50    17    12    1
    51    25    18   ar
    52     3     4    1
    53    43    50    1
    54    32    33    1
    55    27    28    1
@<TRIPOS>MOLECULE
*****
 50 55 0 0 0
SMALL
GASTEIGER

@<TRIPOS>ATOM
      1 O          10.7450   75.9500   24.2817 O.2     1  UNL1       -0.2701
      2 C           9.7175   76.5881   24.6396 C.2     1  UNL1        0.2481
      3 N           9.7806   77.4857   25.7577 N.am    1  UNL1       -0.2945
      4 H           8.9757   78.1318   25.9251 H       1  UNL1        0.1501
      5 C           8.4619   76.4310   23.8758 C.ar    1  UNL1        0.0792
      6 C           7.4166   75.6861   24.4485 C.ar    1  UNL1        0.1454
      7 F           7.5548   75.1402   25.6844 F       1  UNL1       -0.2040
      8 C           6.2359   75.4594   23.7412 C.ar    1  UNL1        0.0443
      9 C           6.0694   75.9664   22.4440 C.ar    1  UNL1        0.0500
     10 C           7.1047   76.7259   21.8747 C.ar    1  UNL1        0.0129
     11 C           8.2885   76.9967   22.5858 C.ar    1  UNL1        0.0147
     12 N           4.8555   75.7079   21.7033 N.pl3   1  UNL1       -0.3040
     13 C           4.8943   74.8927   20.4805 C.3     1  UNL1        0.1122
     14 C           3.5709   74.1479   20.2804 C.3     1  UNL1        0.1122
     15 N           2.4188   75.0591   20.3675 N.pl3   1  UNL1       -0.3040
     16 C           2.5778   76.3856   20.9812 C.3     1  UNL1        0.1122
     17 C           3.5946   76.3377   22.1259 C.3     1  UNL1        0.1122
     18 C           1.1577   74.6792   19.7722 C.ar    1  UNL1        0.0488
     19 C           0.1992   75.6537   19.4388 C.ar    1  UNL1        0.0154
     20 C          -1.0173   75.2840   18.8601 C.ar    1  UNL1        0.0135
     21 C          -1.2977   73.9388   18.6036 C.ar    1  UNL1        0.0683
     22 CL         -2.8402   73.5138   17.8739 Cl      1  UNL1       -0.0814
     23 C          -0.3496   72.9557   18.9291 C.ar    1  UNL1        0.0694
     24 CL         -0.6634   71.2521   18.6254 Cl      1  UNL1       -0.0813
     25 C           0.8694   73.3272   19.5083 C.ar    1  UNL1        0.0268
     26 C           9.3466   77.8614   21.9317 C.3     1  UNL1        0.1639
     27 O           9.4627   77.5552   20.5662 O.3     1  UNL1       -0.3772
     28 H          10.2738   76.9930   20.4587 H       1  UNL1        0.2109
     29 C          10.9447   77.5308   26.6484 C.3     1  UNL1        0.1535
     30 C          12.0603   78.2991   25.9949 C.2     1  UNL1        0.2443
     31 O          11.8981   79.5197   25.7202 O.2     1  UNL1       -0.2730
     32 N          13.3279   77.6643   25.7665 N.am    1  UNL1       -0.2825
     33 H          13.5367   76.7883   26.2977 H       1  UNL1        0.1549
     34 C          14.3603   78.2086   24.9270 C.ar    1  UNL1        0.0535
     35 C          14.8033   77.4766   23.8169 C.ar    1  UNL1        0.0353
     36 C          15.7897   78.0114   22.9847 C.ar    1  UNL1        0.1002
     37 N          16.3048   79.2427   23.2417 N.ar    1  UNL1       -0.2422
     38 C          15.8816   79.9847   24.2989 C.ar    1  UNL1        0.1002
     39 C          14.8977   79.4868   25.1569 C.ar    1  UNL1        0.0353
     40 C          10.5875   78.1763   27.9993 C.3     1  UNL1        0.0569
     41 C           9.2845   77.6525   28.5322 C.ar    1  UNL1       -0.0017
     42 C           8.0814   78.3484   28.6060 C.ar    1  UNL1        0.0681
     43 N           7.0960   77.5415   29.0610 N.ar    1  UNL1       -0.3523
     44 C           7.6651   76.3419   29.2703 C.ar    1  UNL1        0.0563
     45 C           7.0422   75.1787   29.7200 C.ar    1  UNL1        0.0170
     46 C           7.8298   74.0206   29.8534 C.ar    1  UNL1        0.0015
     47 C           9.2062   74.0505   29.5365 C.ar    1  UNL1        0.0001
     48 C           9.8075   75.2382   29.0819 C.ar    1  UNL1        0.0012
     49 C           9.0009   76.3700   28.9597 C.ar    1  UNL1        0.0131
     50 H           6.0935   77.7976   29.2012 H       1  UNL1        0.1660
@<TRIPOS>BOND
     1     1     2    2
     2     2     3   am
     3     3    29    1
     4    29    40    1
     5    40    41    1
     6    41    42   ar
     7    42    43   ar
     8    43    44   ar
     9    44    45   ar
    10    45    46   ar
    11    46    47   ar
    12    47    48   ar
    13    48    49   ar
    14    29    30    1
    15    30    31    2
    16    30    32   am
    17    32    34    1
    18    34    35   ar
    19    35    36   ar
    20    36    37   ar
    21    37    38   ar
    22    38    39   ar
    23     2     5    1
    24     5     6   ar
    25     6     7    1
    26     6     8   ar
    27     8     9   ar
    28     9    12    1
    29    12    13    1
    30    13    14    1
    31    14    15    1
    32    15    18    1
    33    18    19   ar
    34    19    20   ar
    35    20    21   ar
    36    21    22    1
    37    21    23   ar
    38    23    24    1
    39    23    25   ar
    40    15    16    1
    41    16    17    1
    42     9    10   ar
    43    10    11   ar
    44    11    26    1
    45    26    27    1
    46    49    41   ar
    47    39    34   ar
    48    11     5   ar
    49    49    44   ar
    50    17    12    1
    51    25    18   ar
    52     3     4    1
    53    43    50    1
    54    32    33    1
    55    27    28    1
@<TRIPOS>MOLECULE
*****
 50 55 0 0 0
SMALL
GASTEIGER

@<TRIPOS>ATOM
      1 O          10.4693   76.5275   24.8844 O.2     1  UNL1       -0.2701
      2 C           9.4041   77.1989   24.9586 C.2     1  UNL1        0.2481
      3 N           9.3511   78.3770   25.7766 N.am    1  UNL1       -0.2945
      4 H           8.5249   79.0112   25.6852 H       1  UNL1        0.1501
      5 C           8.2265   76.7827   24.1683 C.ar    1  UNL1        0.0792
      6 C           8.0961   77.2637   22.8540 C.ar    1  UNL1        0.1454
      7 F           9.0430   78.0777   22.3200 F       1  UNL1       -0.2040
      8 C           6.9723   76.9478   22.0905 C.ar    1  UNL1        0.0443
      9 C           5.9488   76.1476   22.6194 C.ar    1  UNL1        0.0500
     10 C           6.0833   75.6506   23.9262 C.ar    1  UNL1        0.0129
     11 C           7.2260   75.9277   24.6995 C.ar    1  UNL1        0.0147
     12 N           4.7733   75.8433   21.8354 N.pl3   1  UNL1       -0.3040
     13 C           4.8642   74.9231   20.6924 C.3     1  UNL1        0.1122
     14 C           3.5394   74.1837   20.4820 C.3     1  UNL1        0.1122
     15 N           2.4028   75.1163   20.4231 N.pl3   1  UNL1       -0.3040
     16 C           2.5537   76.4892   20.9272 C.3     1  UNL1        0.1122
     17 C           3.5037   76.5268   22.1284 C.3     1  UNL1        0.1122
     18 C           1.1696   74.7046   19.7915 C.ar    1  UNL1        0.0488
     19 C           0.2236   75.6590   19.3745 C.ar    1  UNL1        0.0154
     20 C          -0.9657   75.2584   18.7610 C.ar    1  UNL1        0.0135
     21 C          -1.2310   73.9019   18.5523 C.ar    1  UNL1        0.0683
     22 CL         -2.7393   73.4379   17.7764 Cl      1  UNL1       -0.0814
     23 C          -0.2950   72.9386   18.9613 C.ar    1  UNL1        0.0694
     24 CL         -0.5905   71.2218   18.7199 Cl      1  UNL1       -0.0813
     25 C           0.8968   73.3410   19.5754 C.ar    1  UNL1        0.0268
     26 C           7.3297   75.3226   26.0845 C.3     1  UNL1        0.1639
     27 O           6.7816   74.0298   26.1030 O.3     1  UNL1       -0.3772
     28 H           5.8829   74.0972   26.5192 H       1  UNL1        0.2109
     29 C          10.4277   78.7178   26.7122 C.3     1  UNL1        0.1535
     30 C          11.6626   79.1130   25.9502 C.2     1  UNL1        0.2443
     31 O          11.7282   80.2562   25.4207 O.2     1  UNL1       -0.2730
     32 N          12.7889   78.2235   25.9026 N.am    1  UNL1       -0.2825
     33 H          12.8345   77.4570   26.6121 H       1  UNL1        0.1549
     34 C          13.8993   78.3794   25.0029 C.ar    1  UNL1        0.0535
     35 C          14.7545   79.4804   25.1479 C.ar    1  UNL1        0.0353
     36 C          15.8484   79.6240   24.2910 C.ar    1  UNL1        0.1002
     37 N          16.0909   78.6914   23.3324 N.ar    1  UNL1       -0.2422
     38 C          15.2912   77.6030   23.1799 C.ar    1  UNL1        0.1002
     39 C          14.1858   77.4216   24.0150 C.ar    1  UNL1        0.0353
     40 C          10.0064   79.8608   27.6531 C.3     1  UNL1        0.0569
     41 C           9.4459   79.3337   28.9431 C.ar    1  UNL1       -0.0017
     42 C          10.0808   79.3323   30.1816 C.ar    1  UNL1        0.0681
     43 N           9.2502   78.8580   31.1378 N.ar    1  UNL1       -0.3523
     44 C           8.0957   78.5648   30.5149 C.ar    1  UNL1        0.0563
     45 C           6.9285   78.0656   31.0910 C.ar    1  UNL1        0.0170
     46 C           5.8227   77.8447   30.2498 C.ar    1  UNL1        0.0015
     47 C           5.9068   78.1257   28.8680 C.ar    1  UNL1        0.0001
     48 C           7.0970   78.6318   28.3146 C.ar    1  UNL1        0.0012
     49 C           8.1763   78.8406   29.1737 C.ar    1  UNL1        0.0131
     50 H           9.4609   78.7597   32.1558 H       1  UNL1        0.1660
@<TRIPOS>BOND
     1     1     2    2
     2     2     3   am
     3     3    29    1
     4    29    40    1
     5    40    41    1
     6    41    42   ar
     7    42    43   ar
     8    43    44   ar
     9    44    45   ar
    10    45    46   ar
    11    46    47   ar
    12    47    48   ar
    13    48    49   ar
    14    29    30    1
    15    30    31    2
    16    30    32   am
    17    32    34    1
    18    34    35   ar
    19    35    36   ar
    20    36    37   ar
    21    37    38   ar
    22    38    39   ar
    23     2     5    1
    24     5     6   ar
    25     6     7    1
    26     6     8   ar
    27     8     9   ar
    28     9    12    1
    29    12    13    1
    30    13    14    1
    31    14    15    1
    32    15    18    1
    33    18    19   ar
    34    19    20   ar
    35    20    21   ar
    36    21    22    1
    37    21    23   ar
    38    23    24    1
    39    23    25   ar
    40    15    16    1
    41    16    17    1
    42     9    10   ar
    43    10    11   ar
    44    11    26    1
    45    26    27    1
    46    49    41   ar
    47    39    34   ar
    48    11     5   ar
    49    49    44   ar
    50    17    12    1
    51    25    18   ar
    52     3     4    1
    53    43    50    1
    54    32    33    1
    55    27    28    1
@<TRIPOS>MOLECULE
*****
 50 55 0 0 0
SMALL
GASTEIGER

@<TRIPOS>ATOM
      1 O          10.8479   75.8083   24.5052 O.2     1  UNL1       -0.2701
      2 C           9.7783   76.4029   24.8111 C.2     1  UNL1        0.2481
      3 N           9.7749   77.3863   25.8564 N.am    1  UNL1       -0.2945
      4 H           8.9282   77.9888   25.9721 H       1  UNL1        0.1501
      5 C           8.5408   76.1047   24.0598 C.ar    1  UNL1        0.0792
      6 C           8.4447   76.5374   22.7260 C.ar    1  UNL1        0.1454
      7 F           9.4758   77.1981   22.1388 F       1  UNL1       -0.2040
      8 C           7.2740   76.3328   21.9957 C.ar    1  UNL1        0.0443
      9 C           6.1686   75.6953   22.5783 C.ar    1  UNL1        0.0500
     10 C           6.2666   75.2460   23.9054 C.ar    1  UNL1        0.0129
     11 C           7.4514   75.4100   24.6469 C.ar    1  UNL1        0.0147
     12 N           4.9476   75.5080   21.8278 N.pl3   1  UNL1       -0.3040
     13 C           4.9915   74.9354   20.4745 C.3     1  UNL1        0.1122
     14 C           3.7037   74.1651   20.1672 C.3     1  UNL1        0.1122
     15 N           2.5084   74.9767   20.4457 N.pl3   1  UNL1       -0.3040
     16 C           2.6160   76.1745   21.2914 C.3     1  UNL1        0.1122
     17 C           3.6690   75.9754   22.3860 C.3     1  UNL1        0.1122
     18 C           1.2512   74.6408   19.8166 C.ar    1  UNL1        0.0488
     19 C           0.3455   75.6493   19.4396 C.ar    1  UNL1        0.0154
     20 C          -0.8671   75.3219   18.8283 C.ar    1  UNL1        0.0135
     21 C          -1.1963   73.9859   18.5821 C.ar    1  UNL1        0.0683
     22 CL         -2.7321   73.6146   17.8104 Cl      1  UNL1       -0.0814
     23 C          -0.3010   72.9691   18.9510 C.ar    1  UNL1        0.0694
     24 CL         -0.6771   71.2756   18.6616 Cl      1  UNL1       -0.0813
     25 C           0.9142   73.2981   19.5629 C.ar    1  UNL1        0.0268
     26 C           7.5068   74.8610   26.0578 C.3     1  UNL1        0.1639
     27 O           6.2161   74.5666   26.5263 O.3     1  UNL1       -0.3772
     28 H           5.9497   75.3027   27.1368 H       1  UNL1        0.2109
     29 C          10.9277   77.5767   26.7427 C.3     1  UNL1        0.1535
     30 C          12.0093   78.3324   26.0210 C.2     1  UNL1        0.2443
     31 O          11.7877   79.5090   25.6234 O.2     1  UNL1       -0.2730
     32 N          13.3102   77.7446   25.8650 N.am    1  UNL1       -0.2825
     33 H          13.5579   76.9387   26.4832 H       1  UNL1        0.1549
     34 C          14.3223   78.2547   24.9805 C.ar    1  UNL1        0.0535
     35 C          14.7406   77.4783   23.8912 C.ar    1  UNL1        0.0353
     36 C          15.7069   77.9790   23.0154 C.ar    1  UNL1        0.1002
     37 N          16.2262   79.2199   23.2102 N.ar    1  UNL1       -0.2422
     38 C          15.8265   80.0042   24.2457 C.ar    1  UNL1        0.1002
     39 C          14.8633   79.5414   25.1457 C.ar    1  UNL1        0.0353
     40 C          10.5272   78.3326   28.0223 C.3     1  UNL1        0.0569
     41 C           9.2860   77.7531   28.6384 C.ar    1  UNL1       -0.0017
     42 C           8.0748   78.4103   28.8331 C.ar    1  UNL1        0.0681
     43 N           7.1512   77.5599   29.3361 N.ar    1  UNL1       -0.3523
     44 C           7.7671   76.3712   29.4558 C.ar    1  UNL1        0.0563
     45 C           7.2138   75.1756   29.9117 C.ar    1  UNL1        0.0170
     46 C           8.0401   74.0374   29.9399 C.ar    1  UNL1        0.0015
     47 C           9.3851   74.1184   29.5154 C.ar    1  UNL1        0.0001
     48 C           9.9158   75.3380   29.0573 C.ar    1  UNL1        0.0012
     49 C           9.0721   76.4490   29.0408 C.ar    1  UNL1        0.0131
     50 H           6.1568   77.7816   29.5650 H       1  UNL1        0.1660
@<TRIPOS>BOND
     1     1     2    2
     2     2     3   am
     3     3    29    1
     4    29    40    1
     5    40    41    1
     6    41    42   ar
     7    42    43   ar
     8    43    44   ar
     9    44    45   ar
    10    45    46   ar
    11    46    47   ar
    12    47    48   ar
    13    48    49   ar
    14    29    30    1
    15    30    31    2
    16    30    32   am
    17    32    34    1
    18    34    35   ar
    19    35    36   ar
    20    36    37   ar
    21    37    38   ar
    22    38    39   ar
    23     2     5    1
    24     5     6   ar
    25     6     7    1
    26     6     8   ar
    27     8     9   ar
    28     9    12    1
    29    12    13    1
    30    13    14    1
    31    14    15    1
    32    15    18    1
    33    18    19   ar
    34    19    20   ar
    35    20    21   ar
    36    21    22    1
    37    21    23   ar
    38    23    24    1
    39    23    25   ar
    40    15    16    1
    41    16    17    1
    42     9    10   ar
    43    10    11   ar
    44    11    26    1
    45    26    27    1
    46    49    41   ar
    47    39    34   ar
    48    11     5   ar
    49    49    44   ar
    50    17    12    1
    51    25    18   ar
    52     3     4    1
    53    43    50    1
    54    32    33    1
    55    27    28    1
@<TRIPOS>MOLECULE
*****
 50 55 0 0 0
SMALL
GASTEIGER

@<TRIPOS>ATOM
      1 O          14.7778   82.0589   25.2492 O.2     1  UNL1       -0.2701
      2 C          13.6404   82.1266   24.7082 C.2     1  UNL1        0.2481
      3 N          13.3353   83.1995   23.8052 N.am    1  UNL1       -0.2945
      4 H          12.4602   83.1394   23.2362 H       1  UNL1        0.1501
      5 C          12.6410   81.0729   24.9836 C.ar    1  UNL1        0.0792
      6 C          11.3102   81.4563   25.2235 C.ar    1  UNL1        0.1454
      7 F          10.9515   82.7656   25.1838 F       1  UNL1       -0.2040
      8 C          10.3442   80.5037   25.5474 C.ar    1  UNL1        0.0443
      9 C          10.6816   79.1456   25.6439 C.ar    1  UNL1        0.0500
     10 C          12.0066   78.7562   25.3880 C.ar    1  UNL1        0.0129
     11 C          12.9876   79.6972   25.0239 C.ar    1  UNL1        0.0147
     12 N           9.6844   78.1637   26.0054 N.pl3   1  UNL1       -0.3040
     13 C           9.9843   76.7289   25.8933 C.3     1  UNL1        0.1122
     14 C           9.2000   75.9258   26.9355 C.3     1  UNL1        0.1122
     15 N           7.7655   76.2517   26.9022 N.pl3   1  UNL1       -0.3040
     16 C           7.3079   77.4804   26.2370 C.3     1  UNL1        0.1122
     17 C           8.3368   78.6034   26.4000 C.3     1  UNL1        0.1122
     18 C           6.8057   75.3194   27.4487 C.ar    1  UNL1        0.0488
     19 C           6.7192   74.0055   26.9531 C.ar    1  UNL1        0.0154
     20 C           5.7931   73.1055   27.4858 C.ar    1  UNL1        0.0135
     21 C           4.9398   73.4993   28.5205 C.ar    1  UNL1        0.0683
     22 CL          3.7880   72.3370   29.1644 Cl      1  UNL1       -0.0814
     23 C           5.0165   74.8068   29.0266 C.ar    1  UNL1        0.0694
     24 CL          3.9601   75.3436   30.3260 Cl      1  UNL1       -0.0813
     25 C           5.9453   75.7077   28.4926 C.ar    1  UNL1        0.0268
     26 C          14.3869   79.2052   24.7160 C.3     1  UNL1        0.1639
     27 O          15.2430   79.4314   25.8060 O.3     1  UNL1       -0.3772
     28 H          15.7919   80.2294   25.5882 H       1  UNL1        0.2109
     29 C          14.2242   84.3554   23.6494 C.3     1  UNL1        0.1535
     30 C          14.8086   84.3693   22.2638 C.2     1  UNL1        0.2443
     31 O          16.0595   84.4418   22.1163 O.2     1  UNL1       -0.2730
     32 N          13.9495   84.2141   21.1236 N.am    1  UNL1       -0.2825
     33 H          12.9925   83.8250   21.2843 H       1  UNL1        0.1549
     34 C          14.3565   84.4714   19.7690 C.ar    1  UNL1        0.0535
     35 C          13.6908   85.4545   19.0243 C.ar    1  UNL1        0.0353
     36 C          14.0977   85.7245   17.7154 C.ar    1  UNL1        0.1002
     37 N          15.1447   85.0481   17.1735 N.ar    1  UNL1       -0.2422
     38 C          15.8224   84.1032   17.8772 C.ar    1  UNL1        0.1002
     39 C          15.4474   83.8015   19.1888 C.ar    1  UNL1        0.0353
     40 C          13.4747   85.6737   23.9133 C.3     1  UNL1        0.0569
     41 C          13.9932   86.7850   23.0460 C.ar    1  UNL1       -0.0017
     42 C          15.2721   87.3329   23.0800 C.ar    1  UNL1        0.0681
     43 N          15.4165   88.2568   22.1030 N.ar    1  UNL1       -0.3523
     44 C          14.2422   88.2934   21.4499 C.ar    1  UNL1        0.0563
     45 C          13.9132   89.0807   20.3475 C.ar    1  UNL1        0.0170
     46 C          12.6216   88.9471   19.8062 C.ar    1  UNL1        0.0015
     47 C          11.6988   88.0391   20.3715 C.ar    1  UNL1        0.0001
     48 C          12.0595   87.2550   21.4824 C.ar    1  UNL1        0.0012
     49 C          13.3471   87.4095   21.9968 C.ar    1  UNL1        0.0131
     50 H          16.2745   88.8126   21.8904 H       1  UNL1        0.1660
@<TRIPOS>BOND
     1     1     2    2
     2     2     3   am
     3     3    29    1
     4    29    40    1
     5    40    41    1
     6    41    42   ar
     7    42    43   ar
     8    43    44   ar
     9    44    45   ar
    10    45    46   ar
    11    46    47   ar
    12    47    48   ar
    13    48    49   ar
    14    29    30    1
    15    30    31    2
    16    30    32   am
    17    32    34    1
    18    34    35   ar
    19    35    36   ar
    20    36    37   ar
    21    37    38   ar
    22    38    39   ar
    23     2     5    1
    24     5     6   ar
    25     6     7    1
    26     6     8   ar
    27     8     9   ar
    28     9    12    1
    29    12    13    1
    30    13    14    1
    31    14    15    1
    32    15    18    1
    33    18    19   ar
    34    19    20   ar
    35    20    21   ar
    36    21    22    1
    37    21    23   ar
    38    23    24    1
    39    23    25   ar
    40    15    16    1
    41    16    17    1
    42     9    10   ar
    43    10    11   ar
    44    11    26    1
    45    26    27    1
    46    49    41   ar
    47    39    34   ar
    48    11     5   ar
    49    49    44   ar
    50    17    12    1
    51    25    18   ar
    52     3     4    1
    53    43    50    1
    54    32    33    1
    55    27    28    1
@<TRIPOS>MOLECULE
*****
 50 55 0 0 0
SMALL
GASTEIGER

@<TRIPOS>ATOM
      1 O          14.8928   81.7522   24.9101 O.2     1  UNL1       -0.2701
      2 C          13.6907   81.9447   24.5800 C.2     1  UNL1        0.2481
      3 N          13.3199   83.1384   23.8750 N.am    1  UNL1       -0.2945
      4 H          12.3627   83.1950   23.4582 H       1  UNL1        0.1501
      5 C          12.6777   80.9147   24.8926 C.ar    1  UNL1        0.0792
      6 C          11.3530   81.3243   25.1228 C.ar    1  UNL1        0.1454
      7 F          11.0122   82.6364   25.0405 F       1  UNL1       -0.2040
      8 C          10.3748   80.3965   25.4804 C.ar    1  UNL1        0.0443
      9 C          10.6937   79.0377   25.6212 C.ar    1  UNL1        0.0500
     10 C          12.0125   78.6217   25.3752 C.ar    1  UNL1        0.0129
     11 C          13.0053   79.5364   24.9778 C.ar    1  UNL1        0.0147
     12 N           9.6841   78.0823   26.0174 N.pl3   1  UNL1       -0.3040
     13 C           9.9910   76.6446   26.0313 C.3     1  UNL1        0.1122
     14 C           9.1654   75.9221   27.1003 C.3     1  UNL1        0.1122
     15 N           7.7330   76.2371   26.9821 N.pl3   1  UNL1       -0.3040
     16 C           7.3012   77.4073   26.2037 C.3     1  UNL1        0.1122
     17 C           8.3205   78.5448   26.3201 C.3     1  UNL1        0.1122
     18 C           6.7529   75.3459   27.5603 C.ar    1  UNL1        0.0488
     19 C           6.6634   74.0068   27.1381 C.ar    1  UNL1        0.0154
     20 C           5.7177   73.1467   27.7013 C.ar    1  UNL1        0.0135
     21 C           4.8474   73.6061   28.6940 C.ar    1  UNL1        0.0683
     22 CL          3.6710   72.4926   29.3784 Cl      1  UNL1       -0.0814
     23 C           4.9268   74.9395   29.1267 C.ar    1  UNL1        0.0694
     24 CL          3.8495   75.5587   30.3713 Cl      1  UNL1       -0.0813
     25 C           5.8752   75.8005   28.5622 C.ar    1  UNL1        0.0268
     26 C          14.3969   79.0151   24.6831 C.3     1  UNL1        0.1639
     27 O          15.2567   79.2570   25.7667 O.3     1  UNL1       -0.3772
     28 H          15.8177   80.0405   25.5278 H       1  UNL1        0.2109
     29 C          14.2505   84.2598   23.7102 C.3     1  UNL1        0.1535
     30 C          14.5287   84.4842   22.2494 C.2     1  UNL1        0.2443
     31 O          15.5451   83.9560   21.7208 O.2     1  UNL1       -0.2730
     32 N          13.5940   85.2242   21.4488 N.am    1  UNL1       -0.2825
     33 H          12.6261   85.3518   21.8230 H       1  UNL1        0.1549
     34 C          13.8791   85.7168   20.1286 C.ar    1  UNL1        0.0535
     35 C          13.9960   84.8110   19.0654 C.ar    1  UNL1        0.0353
     36 C          14.2499   85.2864   17.7766 C.ar    1  UNL1        0.1002
     37 N          14.3664   86.6221   17.5530 N.ar    1  UNL1       -0.2422
     38 C          14.2385   87.5260   18.5599 C.ar    1  UNL1        0.1002
     39 C          13.9856   87.0930   19.8640 C.ar    1  UNL1        0.0353
     40 C          13.6878   85.5473   24.3386 C.3     1  UNL1        0.0569
     41 C          14.7804   86.5273   24.6576 C.ar    1  UNL1       -0.0017
     42 C          15.7213   87.0359   23.7672 C.ar    1  UNL1        0.0681
     43 N          16.4999   87.9578   24.3780 N.ar    1  UNL1       -0.3523
     44 C          16.0558   88.0389   25.6441 C.ar    1  UNL1        0.0563
     45 C          16.5327   88.8727   26.6544 C.ar    1  UNL1        0.0170
     46 C          15.9058   88.8064   27.9121 C.ar    1  UNL1        0.0015
     47 C          14.8278   87.9194   28.1288 C.ar    1  UNL1        0.0001
     48 C          14.3657   87.0916   27.0895 C.ar    1  UNL1        0.0012
     49 C          15.0071   87.1799   25.8538 C.ar    1  UNL1        0.0131
     50 H          17.2752   88.5069   23.9446 H       1  UNL1        0.1660
@<TRIPOS>BOND
     1     1     2    2
     2     2     3   am
     3     3    29    1
     4    29    40    1
     5    40    41    1
     6    41    42   ar
     7    42    43   ar
     8    43    44   ar
     9    44    45   ar
    10    45    46   ar
    11    46    47   ar
    12    47    48   ar
    13    48    49   ar
    14    29    30    1
    15    30    31    2
    16    30    32   am
    17    32    34    1
    18    34    35   ar
    19    35    36   ar
    20    36    37   ar
    21    37    38   ar
    22    38    39   ar
    23     2     5    1
    24     5     6   ar
    25     6     7    1
    26     6     8   ar
    27     8     9   ar
    28     9    12    1
    29    12    13    1
    30    13    14    1
    31    14    15    1
    32    15    18    1
    33    18    19   ar
    34    19    20   ar
    35    20    21   ar
    36    21    22    1
    37    21    23   ar
    38    23    24    1
    39    23    25   ar
    40    15    16    1
    41    16    17    1
    42     9    10   ar
    43    10    11   ar
    44    11    26    1
    45    26    27    1
    46    49    41   ar
    47    39    34   ar
    48    11     5   ar
    49    49    44   ar
    50    17    12    1
    51    25    18   ar
    52     3     4    1
    53    43    50    1
    54    32    33    1
    55    27    28    1
@<TRIPOS>MOLECULE
*****
 50 55 0 0 0
SMALL
GASTEIGER

@<TRIPOS>ATOM
      1 O           9.7173   76.8622   26.2008 O.2     1  UNL1       -0.2701
      2 C           8.5325   77.2539   26.3854 C.2     1  UNL1        0.2481
      3 N           8.1942   77.9914   27.5692 N.am    1  UNL1       -0.2945
      4 H           7.2586   78.4558   27.6175 H       1  UNL1        0.1501
      5 C           7.5078   76.9790   25.3562 C.ar    1  UNL1        0.0792
      6 C           6.1567   76.9587   25.7430 C.ar    1  UNL1        0.1454
      7 F           5.8039   77.2049   27.0312 F       1  UNL1       -0.2040
      8 C           5.1587   76.6443   24.8206 C.ar    1  UNL1        0.0443
      9 C           5.4832   76.3387   23.4906 C.ar    1  UNL1        0.0500
     10 C           6.8306   76.3749   23.0958 C.ar    1  UNL1        0.0129
     11 C           7.8485   76.7255   24.0020 C.ar    1  UNL1        0.0147
     12 N           4.4495   75.9878   22.5432 N.pl3   1  UNL1       -0.3040
     13 C           4.7487   75.0841   21.4229 C.3     1  UNL1        0.1122
     14 C           3.5049   74.2860   21.0201 C.3     1  UNL1        0.1122
     15 N           2.3459   75.1653   20.7994 N.pl3   1  UNL1       -0.3040
     16 C           2.3569   76.5387   21.3241 C.3     1  UNL1        0.1122
     17 C           3.1198   76.6086   22.6506 C.3     1  UNL1        0.1122
     18 C           1.2382   74.7029   19.9942 C.ar    1  UNL1        0.0488
     19 C           0.4220   75.6176   19.3038 C.ar    1  UNL1        0.0154
     20 C          -0.6456   75.1677   18.5233 C.ar    1  UNL1        0.0135
     21 C          -0.9163   73.8004   18.4173 C.ar    1  UNL1        0.0683
     22 CL         -2.2690   73.2738   17.4248 Cl      1  UNL1       -0.0814
     23 C          -0.1087   72.8760   19.0990 C.ar    1  UNL1        0.0694
     24 CL         -0.4160   71.1475   18.9946 Cl      1  UNL1       -0.0813
     25 C           0.9612   73.3278   19.8803 C.ar    1  UNL1        0.0268
     26 C           9.2765   76.7907   23.5003 C.3     1  UNL1        0.1639
     27 O           9.9571   75.5959   23.7852 O.3     1  UNL1       -0.3772
     28 H          10.5360   75.7678   24.5732 H       1  UNL1        0.2109
     29 C           9.1290   78.1239   28.6913 C.3     1  UNL1        0.1535
     30 C           8.7784   79.3358   29.5098 C.2     1  UNL1        0.2443
     31 O           7.6882   79.9350   29.2996 O.2     1  UNL1       -0.2730
     32 N           9.6426   79.7513   30.5788 N.am    1  UNL1       -0.2825
     33 H          10.3384   79.0595   30.9395 H       1  UNL1        0.1549
     34 C           9.5458   81.0226   31.2432 C.ar    1  UNL1        0.0535
     35 C           9.0940   81.0747   32.5689 C.ar    1  UNL1        0.0353
     36 C           9.0203   82.3049   33.2266 C.ar    1  UNL1        0.1002
     37 N           9.4007   83.4432   32.5886 N.ar    1  UNL1       -0.2422
     38 C           9.8615   83.4224   31.3101 C.ar    1  UNL1        0.1002
     39 C           9.9500   82.2134   30.6155 C.ar    1  UNL1        0.0353
     40 C           9.1109   76.8688   29.5821 C.3     1  UNL1        0.0569
     41 C           7.7071   76.4415   29.9029 C.ar    1  UNL1       -0.0017
     42 C           6.8405   77.0559   30.8020 C.ar    1  UNL1        0.0681
     43 N           5.6292   76.4549   30.7765 N.ar    1  UNL1       -0.3523
     44 C           5.7221   75.4703   29.8662 C.ar    1  UNL1        0.0563
     45 C           4.7185   74.5863   29.4730 C.ar    1  UNL1        0.0170
     46 C           5.0300   73.6361   28.4835 C.ar    1  UNL1        0.0015
     47 C           6.3223   73.5922   27.9146 C.ar    1  UNL1        0.0001
     48 C           7.3147   74.4991   28.3288 C.ar    1  UNL1        0.0012
     49 C           6.9760   75.4296   29.3115 C.ar    1  UNL1        0.0131
     50 H           4.7890   76.7183   31.3379 H       1  UNL1        0.1660
@<TRIPOS>BOND
     1     1     2    2
     2     2     3   am
     3     3    29    1
     4    29    40    1
     5    40    41    1
     6    41    42   ar
     7    42    43   ar
     8    43    44   ar
     9    44    45   ar
    10    45    46   ar
    11    46    47   ar
    12    47    48   ar
    13    48    49   ar
    14    29    30    1
    15    30    31    2
    16    30    32   am
    17    32    34    1
    18    34    35   ar
    19    35    36   ar
    20    36    37   ar
    21    37    38   ar
    22    38    39   ar
    23     2     5    1
    24     5     6   ar
    25     6     7    1
    26     6     8   ar
    27     8     9   ar
    28     9    12    1
    29    12    13    1
    30    13    14    1
    31    14    15    1
    32    15    18    1
    33    18    19   ar
    34    19    20   ar
    35    20    21   ar
    36    21    22    1
    37    21    23   ar
    38    23    24    1
    39    23    25   ar
    40    15    16    1
    41    16    17    1
    42     9    10   ar
    43    10    11   ar
    44    11    26    1
    45    26    27    1
    46    49    41   ar
    47    39    34   ar
    48    11     5   ar
    49    49    44   ar
    50    17    12    1
    51    25    18   ar
    52     3     4    1
    53    43    50    1
    54    32    33    1
    55    27    28    1
@<TRIPOS>MOLECULE
*****
 50 55 0 0 0
SMALL
GASTEIGER

@<TRIPOS>ATOM
      1 O          10.1816   74.9602   26.3375 O.2     1  UNL1       -0.2701
      2 C           9.5637   75.8435   25.6825 C.2     1  UNL1        0.2481
      3 N           8.2500   75.5739   25.1714 N.am    1  UNL1       -0.2945
      4 H           7.6896   76.3700   24.7904 H       1  UNL1        0.1501
      5 C          10.1888   77.1674   25.4791 C.ar    1  UNL1        0.0792
      6 C          11.3050   77.2593   24.6298 C.ar    1  UNL1        0.1454
      7 F          11.7837   76.1567   23.9976 F       1  UNL1       -0.2040
      8 C          11.9654   78.4753   24.4542 C.ar    1  UNL1        0.0443
      9 C          11.5320   79.6290   25.1240 C.ar    1  UNL1        0.0500
     10 C          10.4065   79.5453   25.9601 C.ar    1  UNL1        0.0129
     11 C           9.7045   78.3364   26.1218 C.ar    1  UNL1        0.0147
     12 N          12.2339   80.8819   24.9607 N.pl3   1  UNL1       -0.3040
     13 C          13.6820   80.9557   25.2034 C.3     1  UNL1        0.1122
     14 C          14.3265   82.0348   24.3280 C.3     1  UNL1        0.1122
     15 N          13.6232   83.3215   24.4496 N.pl3   1  UNL1       -0.3040
     16 C          12.2658   83.3648   25.0129 C.3     1  UNL1        0.1122
     17 C          11.4804   82.1040   24.6386 C.3     1  UNL1        0.1122
     18 C          14.3030   84.5465   24.0944 C.ar    1  UNL1        0.0488
     19 C          14.9388   84.6782   22.8462 C.ar    1  UNL1        0.0154
     20 C          15.5919   85.8647   22.5041 C.ar    1  UNL1        0.0135
     21 C          15.6211   86.9385   23.3986 C.ar    1  UNL1        0.0683
     22 CL         16.4532   88.4153   22.9308 Cl      1  UNL1       -0.0814
     23 C          14.9888   86.8220   24.6469 C.ar    1  UNL1        0.0694
     24 CL         15.0038   88.1476   25.8024 Cl      1  UNL1       -0.0813
     25 C          14.3341   85.6328   24.9886 C.ar    1  UNL1        0.0268
     26 C           8.4713   78.3250   27.0016 C.3     1  UNL1        0.1639
     27 O           7.3170   78.0992   26.2344 O.3     1  UNL1       -0.3772
     28 H           6.8659   78.9757   26.1165 H       1  UNL1        0.2109
     29 C           7.6746   74.2251   25.1907 C.3     1  UNL1        0.1535
     30 C           6.4408   74.2067   26.0503 C.2     1  UNL1        0.2443
     31 O           5.4263   74.8684   25.6975 O.2     1  UNL1       -0.2730
     32 N           6.3949   73.3717   27.2178 N.am    1  UNL1       -0.2825
     33 H           7.0968   72.6006   27.2930 H       1  UNL1        0.1549
     34 C           5.3880   73.4719   28.2390 C.ar    1  UNL1        0.0535
     35 C           4.4936   72.4101   28.4316 C.ar    1  UNL1        0.0353
     36 C           3.5283   72.4928   29.4380 C.ar    1  UNL1        0.1002
     37 N           3.4683   73.5909   30.2368 N.ar    1  UNL1       -0.2422
     38 C           4.3341   74.6279   30.0874 C.ar    1  UNL1        0.1002
     39 C           5.3140   74.5863   29.0924 C.ar    1  UNL1        0.0353
     40 C           7.3280   73.7474   23.7691 C.3     1  UNL1        0.0569
     41 C           8.4000   74.1216   22.7858 C.ar    1  UNL1       -0.0017
     42 C           8.3898   75.2176   21.9282 C.ar    1  UNL1        0.0681
     43 N           9.5538   75.2928   21.2437 N.ar    1  UNL1       -0.3523
     44 C          10.3000   74.2573   21.6650 C.ar    1  UNL1        0.0563
     45 C          11.5933   73.9290   21.2613 C.ar    1  UNL1        0.0170
     46 C          12.1992   72.8029   21.8480 C.ar    1  UNL1        0.0015
     47 C          11.5073   72.0399   22.8148 C.ar    1  UNL1        0.0001
     48 C          10.2038   72.3967   23.2052 C.ar    1  UNL1        0.0012
     49 C           9.6295   73.5182   22.6061 C.ar    1  UNL1        0.0131
     50 H           9.8217   76.0209   20.5447 H       1  UNL1        0.1660
@<TRIPOS>BOND
     1     1     2    2
     2     2     3   am
     3     3    29    1
     4    29    40    1
     5    40    41    1
     6    41    42   ar
     7    42    43   ar
     8    43    44   ar
     9    44    45   ar
    10    45    46   ar
    11    46    47   ar
    12    47    48   ar
    13    48    49   ar
    14    29    30    1
    15    30    31    2
    16    30    32   am
    17    32    34    1
    18    34    35   ar
    19    35    36   ar
    20    36    37   ar
    21    37    38   ar
    22    38    39   ar
    23     2     5    1
    24     5     6   ar
    25     6     7    1
    26     6     8   ar
    27     8     9   ar
    28     9    12    1
    29    12    13    1
    30    13    14    1
    31    14    15    1
    32    15    18    1
    33    18    19   ar
    34    19    20   ar
    35    20    21   ar
    36    21    22    1
    37    21    23   ar
    38    23    24    1
    39    23    25   ar
    40    15    16    1
    41    16    17    1
    42     9    10   ar
    43    10    11   ar
    44    11    26    1
    45    26    27    1
    46    49    41   ar
    47    39    34   ar
    48    11     5   ar
    49    49    44   ar
    50    17    12    1
    51    25    18   ar
    52     3     4    1
    53    43    50    1
    54    32    33    1
    55    27    28    1
@<TRIPOS>MOLECULE
*****
 50 55 0 0 0
SMALL
GASTEIGER

@<TRIPOS>ATOM
      1 O           9.0801   77.9275   26.4400 O.2     1  UNL1       -0.2701
      2 C           8.7711   76.7563   26.0882 C.2     1  UNL1        0.2481
      3 N           9.4370   75.6288   26.6755 N.am    1  UNL1       -0.2945
      4 H           9.0471   74.6739   26.5041 H       1  UNL1        0.1501
      5 C           7.6941   76.5561   25.0959 C.ar    1  UNL1        0.0792
      6 C           6.3600   76.5902   25.5371 C.ar    1  UNL1        0.1454
      7 F           6.0711   76.8207   26.8439 F       1  UNL1       -0.2040
      8 C           5.3121   76.3466   24.6493 C.ar    1  UNL1        0.0443
      9 C           5.5682   76.0592   23.3005 C.ar    1  UNL1        0.0500
     10 C           6.8990   76.0412   22.8517 C.ar    1  UNL1        0.0129
     11 C           7.9680   76.3204   23.7234 C.ar    1  UNL1        0.0147
     12 N           4.4818   75.7814   22.3884 N.pl3   1  UNL1       -0.3040
     13 C           4.7096   74.9486   21.1984 C.3     1  UNL1        0.1122
     14 C           3.4353   74.1917   20.8116 C.3     1  UNL1        0.1122
     15 N           2.2791   75.0960   20.7089 N.pl3   1  UNL1       -0.3040
     16 C           2.3369   76.4325   21.3190 C.3     1  UNL1        0.1122
     17 C           3.1685   76.4084   22.6052 C.3     1  UNL1        0.1122
     18 C           1.1246   74.6986   19.9353 C.ar    1  UNL1        0.0488
     19 C           0.2560   75.6645   19.3948 C.ar    1  UNL1        0.0154
     20 C          -0.8568   75.2777   18.6444 C.ar    1  UNL1        0.0135
     21 C          -1.1215   73.9236   18.4197 C.ar    1  UNL1        0.0683
     22 CL         -2.5323   73.4771   17.4697 Cl      1  UNL1       -0.0814
     23 C          -0.2620   72.9488   18.9511 C.ar    1  UNL1        0.0694
     24 CL         -0.5598   71.2347   18.6942 Cl      1  UNL1       -0.0813
     25 C           0.8533   73.3375   19.7024 C.ar    1  UNL1        0.0268
     26 C           9.3763   76.3303   23.1652 C.3     1  UNL1        0.1639
     27 O           9.7893   77.6429   22.8851 O.3     1  UNL1       -0.3772
     28 H           9.7137   77.7720   21.9037 H       1  UNL1        0.2109
     29 C          10.6269   75.7862   27.5181 C.3     1  UNL1        0.1535
     30 C          11.3029   77.0940   27.2108 C.2     1  UNL1        0.2443
     31 O          11.3012   78.0138   28.0742 O.2     1  UNL1       -0.2730
     32 N          12.0170   77.2570   25.9756 N.am    1  UNL1       -0.2825
     33 H          12.2831   76.3938   25.4493 H       1  UNL1        0.1549
     34 C          12.4686   78.5244   25.4690 C.ar    1  UNL1        0.0535
     35 C          11.5281   79.5113   25.1436 C.ar    1  UNL1        0.0353
     36 C          11.9629   80.7527   24.6730 C.ar    1  UNL1        0.1002
     37 N          13.2922   81.0069   24.5474 N.ar    1  UNL1       -0.2422
     38 C          14.2285   80.0773   24.8734 C.ar    1  UNL1        0.1002
     39 C          13.8367   78.8225   25.3467 C.ar    1  UNL1        0.0353
     40 C          10.2629   75.7250   29.0125 C.3     1  UNL1        0.0569
     41 C           8.8321   75.3148   29.2142 C.ar    1  UNL1       -0.0017
     42 C           8.3209   74.0236   29.1220 C.ar    1  UNL1        0.0681
     43 N           7.0082   74.0108   29.4472 N.ar    1  UNL1       -0.3523
     44 C           6.6877   75.2809   29.7482 C.ar    1  UNL1        0.0563
     45 C           5.4475   75.7630   30.1640 C.ar    1  UNL1        0.0170
     46 C           5.3368   77.1372   30.4445 C.ar    1  UNL1        0.0015
     47 C           6.4555   77.9886   30.3061 C.ar    1  UNL1        0.0001
     48 C           7.6958   77.4735   29.8874 C.ar    1  UNL1        0.0012
     49 C           7.7747   76.1072   29.6168 C.ar    1  UNL1        0.0131
     50 H           6.3797   73.1773   29.4760 H       1  UNL1        0.1660
@<TRIPOS>BOND
     1     1     2    2
     2     2     3   am
     3     3    29    1
     4    29    40    1
     5    40    41    1
     6    41    42   ar
     7    42    43   ar
     8    43    44   ar
     9    44    45   ar
    10    45    46   ar
    11    46    47   ar
    12    47    48   ar
    13    48    49   ar
    14    29    30    1
    15    30    31    2
    16    30    32   am
    17    32    34    1
    18    34    35   ar
    19    35    36   ar
    20    36    37   ar
    21    37    38   ar
    22    38    39   ar
    23     2     5    1
    24     5     6   ar
    25     6     7    1
    26     6     8   ar
    27     8     9   ar
    28     9    12    1
    29    12    13    1
    30    13    14    1
    31    14    15    1
    32    15    18    1
    33    18    19   ar
    34    19    20   ar
    35    20    21   ar
    36    21    22    1
    37    21    23   ar
    38    23    24    1
    39    23    25   ar
    40    15    16    1
    41    16    17    1
    42     9    10   ar
    43    10    11   ar
    44    11    26    1
    45    26    27    1
    46    49    41   ar
    47    39    34   ar
    48    11     5   ar
    49    49    44   ar
    50    17    12    1
    51    25    18   ar
    52     3     4    1
    53    43    50    1
    54    32    33    1
    55    27    28    1
