@<TRIPOS>MOLECULE
*****
 44 48 0 0 0
SMALL
GASTEIGER

@<TRIPOS>ATOM
      1 C          -8.2967  -11.7255   30.8329 C.3     1  UNL1        0.1562
      2 C          -7.8646  -11.8218   32.2976 C.3     1  UNL1        0.0622
      3 C          -8.9794  -11.1406   33.1120 C.3     1  UNL1        0.1294
      4 O          -8.3998  -10.3445   34.1190 O.3     1  UNL1       -0.3808
      5 C          -9.7064  -10.2248   32.0993 C.3     1  UNL1        0.1264
      6 N          -9.3313  -10.6976   30.7728 N.am    1  UNL1       -0.2544
      7 C         -10.1634  -10.5245   29.6058 C.2     1  UNL1        0.3081
      8 O          -9.8603  -11.1108   28.5321 O.2     1  UNL1       -0.2522
      9 N         -11.3975   -9.7972   29.6649 N.am    1  UNL1       -0.2681
     10 H          -9.1385   -9.8647   34.5792 H       1  UNL1        0.2107
     11 H         -12.2356  -10.2309   29.2159 H       1  UNL1        0.1564
     12 C          -9.8996  -12.2184   33.7151 C.ar    1  UNL1        0.0310
     13 C         -11.0365  -12.6711   33.0068 C.ar    1  UNL1        0.0026
     14 C         -11.8488  -13.6831   33.5236 C.ar    1  UNL1        0.0295
     15 C         -11.5289  -14.2859   34.7390 C.ar    1  UNL1        0.1424
     16 F         -12.3168  -15.2713   35.2359 F       1  UNL1       -0.2041
     17 C         -10.3846  -13.8907   35.4313 C.ar    1  UNL1        0.0590
     18 C          -9.5635  -12.8787   34.9227 C.ar    1  UNL1        0.1406
     19 F          -8.4313  -12.5724   35.6050 F       1  UNL1       -0.2044
     20 C         -11.5440   -8.4985   30.2551 C.ar    1  UNL1        0.0520
     21 C         -12.5894   -8.2723   31.1595 C.ar    1  UNL1        0.0156
     22 C         -12.7833   -7.0052   31.7118 C.ar    1  UNL1        0.0131
     23 C         -11.9581   -5.9399   31.3391 C.ar    1  UNL1        0.0631
     24 CL        -12.2575   -4.3553   32.0398 Cl      1  UNL1       -0.0818
     25 C         -10.9250   -6.1495   30.4084 C.ar    1  UNL1        0.0418
     26 I          -9.7306   -4.5479   29.7086 I       1  UNL1       -0.0416
     27 C         -10.7082   -7.4319   29.8845 C.ar    1  UNL1        0.0213
     28 O          -6.7620  -10.2583   29.7477 O.2     1  UNL1       -0.2730
     29 C          -7.1371  -11.4512   29.9011 C.2     1  UNL1        0.2454
     30 N          -6.3994  -12.4954   29.2480 N.am    1  UNL1       -0.2680
     31 H          -5.3602  -12.3880   29.2174 H       1  UNL1        0.1563
     32 C          -6.9943  -13.5024   28.4153 C.ar    1  UNL1        0.1346
     33 C          -6.2221  -14.1512   27.4437 C.ar    1  UNL1        0.0406
     34 C          -6.8210  -15.0896   26.6022 C.ar    1  UNL1        0.0736
     35 C          -8.1855  -15.3878   26.7368 C.ar    1  UNL1        0.2466
     36 C          -8.9216  -14.7174   27.7235 C.ar    1  UNL1        0.1691
     37 N          -8.3177  -13.7971   28.5190 N.ar    1  UNL1       -0.2228
     38 N          -8.8115  -16.3858   25.9041 N.am    1  UNL1       -0.0841
     39 C          -9.2169  -17.5622   26.4762 C.2     1  UNL1        0.2905
     40 C          -9.8092  -18.5636   25.7049 C.2     1  UNL1        0.0758
     41 C          -9.9925  -18.3578   24.3402 C.2     1  UNL1        0.0161
     42 C          -9.5882  -17.1564   23.7624 C.2     1  UNL1        0.1156
     43 C          -8.9990  -16.1694   24.5601 C.2     1  UNL1        0.4230
     44 O          -8.6595  -15.0766   24.0288 O.2     1  UNL1       -0.2135
@<TRIPOS>BOND
     1    28    29    2
     2    29    30   am
     3    30    32    1
     4    32    33   ar
     5    33    34   ar
     6    34    35   ar
     7    35    38    1
     8    38    39    1
     9    39    40    2
    10    40    41    1
    11    41    42    2
    12    42    43    1
    13    43    44    2
    14    35    36   ar
    15    36    37   ar
    16    29     1    1
    17     1     2    1
    18     2     3    1
    19     3     4    1
    20     3    12    1
    21    12    13   ar
    22    13    14   ar
    23    14    15   ar
    24    15    16    1
    25    15    17   ar
    26    17    18   ar
    27    18    19    1
    28     3     5    1
    29     5     6    1
    30     6     7   am
    31     7     8    2
    32     7     9   am
    33     9    20    1
    34    20    21   ar
    35    21    22   ar
    36    22    23   ar
    37    23    24    1
    38    23    25   ar
    39    25    26    1
    40    25    27   ar
    41    37    32   ar
    42     6     1    1
    43    27    20   ar
    44    43    38    1
    45    18    12   ar
    46    30    31    1
    47     4    10    1
    48     9    11    1
@<TRIPOS>MOLECULE
*****
 44 48 0 0 0
SMALL
GASTEIGER

@<TRIPOS>ATOM
      1 C          -8.3124  -11.7769   30.8439 C.3     1  UNL1        0.1562
      2 C          -7.9122  -11.8861   32.3168 C.3     1  UNL1        0.0622
      3 C          -9.0388  -11.2016   33.1119 C.3     1  UNL1        0.1294
      4 O          -8.4746  -10.4165   34.1362 O.3     1  UNL1       -0.3808
      5 C          -9.7371  -10.2735   32.0901 C.3     1  UNL1        0.1264
      6 N          -9.3376  -10.7406   30.7688 N.am    1  UNL1       -0.2544
      7 C         -10.1435  -10.5535   29.5856 C.2     1  UNL1        0.3081
      8 O          -9.8220  -11.1351   28.5147 O.2     1  UNL1       -0.2522
      9 N         -11.3729   -9.8170   29.6234 N.am    1  UNL1       -0.2681
     10 H          -9.2192   -9.9339   34.5838 H       1  UNL1        0.2107
     11 H         -12.2046  -10.2412   29.1539 H       1  UNL1        0.1564
     12 C          -9.9797  -12.2761   33.6882 C.ar    1  UNL1        0.0310
     13 C         -11.1330  -12.6784   32.9758 C.ar    1  UNL1        0.0026
     14 C         -11.9652  -13.6869   33.4670 C.ar    1  UNL1        0.0295
     15 C         -11.6501  -14.3362   34.6596 C.ar    1  UNL1        0.1424
     16 F         -12.4574  -15.3180   35.1316 F       1  UNL1       -0.2041
     17 C         -10.4911  -13.9909   35.3540 C.ar    1  UNL1        0.0590
     18 C          -9.6500  -12.9829   34.8710 C.ar    1  UNL1        0.1406
     19 F          -8.5052  -12.7258   35.5527 F       1  UNL1       -0.2044
     20 C         -11.5220   -8.5211   30.2190 C.ar    1  UNL1        0.0520
     21 C         -12.5646   -8.3022   31.1283 C.ar    1  UNL1        0.0156
     22 C         -12.7612   -7.0379   31.6861 C.ar    1  UNL1        0.0131
     23 C         -11.9414   -5.9681   31.3142 C.ar    1  UNL1        0.0631
     24 CL        -12.2440   -4.3872   32.0219 Cl      1  UNL1       -0.0818
     25 C         -10.9112   -6.1703   30.3786 C.ar    1  UNL1        0.0418
     26 I          -9.7256   -4.5617   29.6802 I       1  UNL1       -0.0416
     27 C         -10.6917   -7.4499   29.8492 C.ar    1  UNL1        0.0213
     28 O          -6.7224  -10.3190   29.8278 O.2     1  UNL1       -0.2730
     29 C          -7.1312  -11.5056   29.9387 C.2     1  UNL1        0.2454
     30 N          -6.4109  -12.5488   29.2651 N.am    1  UNL1       -0.2680
     31 H          -5.3688  -12.4684   29.2535 H       1  UNL1        0.1563
     32 C          -7.0187  -13.5138   28.3928 C.ar    1  UNL1        0.1346
     33 C          -6.2518  -14.1421   27.4036 C.ar    1  UNL1        0.0406
     34 C          -6.8623  -15.0381   26.5250 C.ar    1  UNL1        0.0736
     35 C          -8.2331  -15.3147   26.6399 C.ar    1  UNL1        0.2466
     36 C          -8.9636  -14.6661   27.6452 C.ar    1  UNL1        0.1691
     37 N          -8.3481  -13.7867   28.4771 N.ar    1  UNL1       -0.2228
     38 N          -8.8718  -16.2701   25.7678 N.am    1  UNL1       -0.0841
     39 C          -9.1221  -15.9135   24.4694 C.2     1  UNL1        0.2905
     40 C          -9.7558  -16.7989   23.5960 C.2     1  UNL1        0.0758
     41 C         -10.1313  -18.0593   24.0526 C.2     1  UNL1        0.0161
     42 C          -9.8669  -18.4234   25.3711 C.2     1  UNL1        0.1156
     43 C          -9.2285  -17.5163   26.2240 C.2     1  UNL1        0.4230
     44 O          -8.9732  -17.8674   27.4086 O.2     1  UNL1       -0.2135
@<TRIPOS>BOND
     1    28    29    2
     2    29    30   am
     3    30    32    1
     4    32    33   ar
     5    33    34   ar
     6    34    35   ar
     7    35    38    1
     8    38    39    1
     9    39    40    2
    10    40    41    1
    11    41    42    2
    12    42    43    1
    13    43    44    2
    14    35    36   ar
    15    36    37   ar
    16    29     1    1
    17     1     2    1
    18     2     3    1
    19     3     4    1
    20     3    12    1
    21    12    13   ar
    22    13    14   ar
    23    14    15   ar
    24    15    16    1
    25    15    17   ar
    26    17    18   ar
    27    18    19    1
    28     3     5    1
    29     5     6    1
    30     6     7   am
    31     7     8    2
    32     7     9   am
    33     9    20    1
    34    20    21   ar
    35    21    22   ar
    36    22    23   ar
    37    23    24    1
    38    23    25   ar
    39    25    26    1
    40    25    27   ar
    41    37    32   ar
    42     6     1    1
    43    27    20   ar
    44    43    38    1
    45    18    12   ar
    46    30    31    1
    47     4    10    1
    48     9    11    1
