@<TRIPOS>MOLECULE
*****
 51 56 0 0 0
SMALL
GASTEIGER

@<TRIPOS>ATOM
      1 O          13.9486   83.3875   26.0328 O.2     1  UNL1       -0.2701
      2 C          13.4098   82.8153   25.0457 C.2     1  UNL1        0.2484
      3 N          13.6225   83.3277   23.7212 N.am    1  UNL1       -0.2945
      4 H          13.4289   82.7035   22.9051 H       1  UNL1        0.1501
      5 C          12.5918   81.6018   25.2685 C.ar    1  UNL1        0.0813
      6 C          11.3122   81.7241   25.8344 C.ar    1  UNL1        0.0081
      7 C          10.5249   80.5933   26.0578 C.ar    1  UNL1        0.0153
      8 C          10.9968   79.3232   25.7097 C.ar    1  UNL1        0.0556
      9 C          12.2691   79.1880   25.1275 C.ar    1  UNL1        0.0625
     10 S          12.8961   77.5685   24.6689 S.3     1  UNL1       -0.1381
     11 C          13.0614   80.3239   24.9038 C.ar    1  UNL1        0.1510
     12 F          14.2641   80.1807   24.2906 F       1  UNL1       -0.2035
     13 H          13.4656   77.3708   25.9406 H       1  UNL1        0.1072
     14 N          10.1733   78.1741   25.9448 N.pl3   1  UNL1       -0.3036
     15 C          10.6915   77.0609   26.7419 C.3     1  UNL1        0.1123
     16 C           9.5737   76.4780   27.6109 C.3     1  UNL1        0.1136
     17 N           8.3429   76.2354   26.8360 N.pl3   1  UNL1       -0.2897
     18 C           8.2600   76.6802   25.4349 C.3     1  UNL1        0.1136
     19 C           8.8768   78.0738   25.2673 C.3     1  UNL1        0.1123
     20 C           7.2890   75.4117   27.3868 C.ar    1  UNL1        0.1318
     21 C           6.7586   74.3236   26.6708 C.ar    1  UNL1        0.0343
     22 C           5.7404   73.5543   27.2359 C.ar    1  UNL1        0.0083
     23 C           5.2332   73.8728   28.5040 C.ar    1  UNL1        0.0906
     24 C           5.8074   74.9472   29.1994 C.ar    1  UNL1        0.1041
     25 N           6.7992   75.6812   28.6299 N.ar    1  UNL1       -0.2292
     26 C           4.1695   73.0189   29.1455 C.3     1  UNL1        0.4200
     27 F           2.9132   73.3802   28.6903 F       1  UNL1       -0.1658
     28 F           4.3706   71.6825   28.8466 F       1  UNL1       -0.1658
     29 F           4.2173   73.1862   30.5168 F       1  UNL1       -0.1658
     30 C          14.2969   84.6066   23.4817 C.3     1  UNL1        0.1535
     31 C          14.7206   84.6906   22.0403 C.2     1  UNL1        0.2443
     32 O          15.6256   83.9214   21.6150 O.2     1  UNL1       -0.2730
     33 N          14.1299   85.6702   21.1712 N.am    1  UNL1       -0.2825
     34 H          13.6251   86.4733   21.6101 H       1  UNL1        0.1549
     35 C          14.2880   85.6768   19.7421 C.ar    1  UNL1        0.0535
     36 C          14.7391   84.5418   19.0466 C.ar    1  UNL1        0.0353
     37 C          14.8528   84.5871   17.6548 C.ar    1  UNL1        0.1002
     38 N          14.5154   85.7168   16.9785 N.ar    1  UNL1       -0.2422
     39 C          14.0588   86.8227   17.6233 C.ar    1  UNL1        0.1002
     40 C          13.9289   86.8194   19.0142 C.ar    1  UNL1        0.0353
     41 C          13.3728   85.7851   23.8341 C.3     1  UNL1        0.0569
     42 C          14.1559   86.9476   24.3717 C.ar    1  UNL1       -0.0017
     43 C          14.6015   88.0516   23.6508 C.ar    1  UNL1        0.0681
     44 N          15.2018   88.9417   24.4735 N.ar    1  UNL1       -0.3523
     45 C          15.1312   88.4131   25.7076 C.ar    1  UNL1        0.0563
     46 C          15.5988   88.9741   26.8953 C.ar    1  UNL1        0.0170
     47 C          15.4012   88.2514   28.0863 C.ar    1  UNL1        0.0015
     48 C          14.7455   87.0002   28.0641 C.ar    1  UNL1        0.0001
     49 C          14.2822   86.4596   26.8507 C.ar    1  UNL1        0.0012
     50 C          14.4964   87.1976   25.6865 C.ar    1  UNL1        0.0131
     51 H          15.6196   89.8596   24.2028 H       1  UNL1        0.1660
@<TRIPOS>BOND
     1     1     2    2
     2     2     3   am
     3     3    30    1
     4    30    41    1
     5    41    42    1
     6    42    43   ar
     7    43    44   ar
     8    44    45   ar
     9    45    46   ar
    10    46    47   ar
    11    47    48   ar
    12    48    49   ar
    13    49    50   ar
    14    30    31    1
    15    31    32    2
    16    31    33   am
    17    33    35    1
    18    35    36   ar
    19    36    37   ar
    20    37    38   ar
    21    38    39   ar
    22    39    40   ar
    23     2     5    1
    24     5     6   ar
    25     6     7   ar
    26     7     8   ar
    27     8    14    1
    28    14    15    1
    29    15    16    1
    30    16    17    1
    31    17    20    1
    32    20    21   ar
    33    21    22   ar
    34    22    23   ar
    35    23    26    1
    36    26    27    1
    37    26    28    1
    38    26    29    1
    39    23    24   ar
    40    24    25   ar
    41    17    18    1
    42    18    19    1
    43     8     9   ar
    44     9    10    1
    45     9    11   ar
    46    11    12    1
    47    50    42   ar
    48    40    35   ar
    49    11     5   ar
    50    50    45   ar
    51    19    14    1
    52    25    20   ar
    53     3     4    1
    54    44    51    1
    55    33    34    1
    56    10    13    1
@<TRIPOS>MOLECULE
*****
 51 56 0 0 0
SMALL
GASTEIGER

@<TRIPOS>ATOM
      1 O          10.6391   77.3106   25.5766 O.2     1  UNL1       -0.2701
      2 C           9.4264   77.2825   25.9235 C.2     1  UNL1        0.2484
      3 N           9.0616   77.6250   27.2695 N.am    1  UNL1       -0.2945
      4 H           8.0683   77.8823   27.4698 H       1  UNL1        0.1501
      5 C           8.3940   76.9276   24.9237 C.ar    1  UNL1        0.0813
      6 C           8.7715   76.6991   23.5904 C.ar    1  UNL1        0.0081
      7 C           7.8148   76.3676   22.6295 C.ar    1  UNL1        0.0153
      8 C           6.4673   76.2475   22.9856 C.ar    1  UNL1        0.0556
      9 C           6.0778   76.4574   24.3199 C.ar    1  UNL1        0.0625
     10 S           4.3544   76.3059   24.8027 S.3     1  UNL1       -0.1381
     11 C           7.0387   76.7918   25.2858 C.ar    1  UNL1        0.1510
     12 F           6.6529   76.9369   26.5793 F       1  UNL1       -0.2035
     13 H           4.1025   77.6622   24.5240 H       1  UNL1        0.1072
     14 N           5.4996   75.9044   21.9857 N.pl3   1  UNL1       -0.3036
     15 C           5.4807   74.5507   21.4287 C.3     1  UNL1        0.1123
     16 C           4.0353   74.1084   21.1844 C.3     1  UNL1        0.1136
     17 N           3.2559   75.1393   20.4746 N.pl3   1  UNL1       -0.2897
     18 C           3.8532   76.4600   20.2158 C.3     1  UNL1        0.1136
     19 C           4.6350   76.9545   21.4384 C.3     1  UNL1        0.1123
     20 C           1.9808   74.8037   19.8797 C.ar    1  UNL1        0.1318
     21 C           1.2311   75.7560   19.1662 C.ar    1  UNL1        0.0343
     22 C           0.0038   75.3936   18.6090 C.ar    1  UNL1        0.0083
     23 C          -0.4914   74.0919   18.7733 C.ar    1  UNL1        0.0906
     24 C           0.2981   73.1623   19.4661 C.ar    1  UNL1        0.1041
     25 N           1.4909   73.5373   19.9987 N.ar    1  UNL1       -0.2292
     26 C          -1.7909   73.6750   18.1332 C.3     1  UNL1        0.4200
     27 F          -2.8681   74.1612   18.8538 F       1  UNL1       -0.1658
     28 F          -1.8776   74.1646   16.8414 F       1  UNL1       -0.1658
     29 F          -1.8586   72.2948   18.0976 F       1  UNL1       -0.1658
     30 C          10.0648   77.8317   28.3178 C.3     1  UNL1        0.1535
     31 C           9.9376   79.2260   28.8689 C.2     1  UNL1        0.2443
     32 O           9.7231   80.1868   28.0799 O.2     1  UNL1       -0.2730
     33 N          10.1052   79.4631   30.2760 N.am    1  UNL1       -0.2825
     34 H          10.5741   78.7222   30.8449 H       1  UNL1        0.1549
     35 C           9.7731   80.7007   30.9280 C.ar    1  UNL1        0.0535
     36 C           9.0966   80.7250   32.1597 C.ar    1  UNL1        0.0353
     37 C           8.8178   81.9514   32.7682 C.ar    1  UNL1        0.1002
     38 N           9.2115   83.1113   32.1789 N.ar    1  UNL1       -0.2422
     39 C           9.8834   83.1170   30.9975 C.ar    1  UNL1        0.1002
     40 C          10.1835   81.9127   30.3561 C.ar    1  UNL1        0.0353
     41 C           9.8981   76.7970   29.4441 C.3     1  UNL1        0.0569
     42 C           8.5928   76.0657   29.3211 C.ar    1  UNL1       -0.0017
     43 C           8.3880   74.8320   28.7103 C.ar    1  UNL1        0.0681
     44 N           7.1023   74.4391   28.8592 N.ar    1  UNL1       -0.3523
     45 C           6.4967   75.4096   29.5655 C.ar    1  UNL1        0.0563
     46 C           5.1677   75.4456   29.9853 C.ar    1  UNL1        0.0170
     47 C           4.7454   76.5576   30.7368 C.ar    1  UNL1        0.0015
     48 C           5.6513   77.5952   31.0509 C.ar    1  UNL1        0.0001
     49 C           6.9876   77.5310   30.6156 C.ar    1  UNL1        0.0012
     50 C           7.3753   76.4181   29.8691 C.ar    1  UNL1        0.0131
     51 H           6.6751   73.5531   28.5087 H       1  UNL1        0.1660
@<TRIPOS>BOND
     1     1     2    2
     2     2     3   am
     3     3    30    1
     4    30    41    1
     5    41    42    1
     6    42    43   ar
     7    43    44   ar
     8    44    45   ar
     9    45    46   ar
    10    46    47   ar
    11    47    48   ar
    12    48    49   ar
    13    49    50   ar
    14    30    31    1
    15    31    32    2
    16    31    33   am
    17    33    35    1
    18    35    36   ar
    19    36    37   ar
    20    37    38   ar
    21    38    39   ar
    22    39    40   ar
    23     2     5    1
    24     5     6   ar
    25     6     7   ar
    26     7     8   ar
    27     8    14    1
    28    14    15    1
    29    15    16    1
    30    16    17    1
    31    17    20    1
    32    20    21   ar
    33    21    22   ar
    34    22    23   ar
    35    23    26    1
    36    26    27    1
    37    26    28    1
    38    26    29    1
    39    23    24   ar
    40    24    25   ar
    41    17    18    1
    42    18    19    1
    43     8     9   ar
    44     9    10    1
    45     9    11   ar
    46    11    12    1
    47    50    42   ar
    48    40    35   ar
    49    11     5   ar
    50    50    45   ar
    51    19    14    1
    52    25    20   ar
    53     3     4    1
    54    44    51    1
    55    33    34    1
    56    10    13    1
@<TRIPOS>MOLECULE
*****
 51 56 0 0 0
SMALL
GASTEIGER

@<TRIPOS>ATOM
      1 O          10.7659   77.3260   25.5642 O.2     1  UNL1       -0.2701
      2 C           9.5411   77.3246   25.8672 C.2     1  UNL1        0.2484
      3 N           9.1371   77.6556   27.2049 N.am    1  UNL1       -0.2945
      4 H           8.1442   77.9360   27.3738 H       1  UNL1        0.1501
      5 C           8.5366   77.0128   24.8256 C.ar    1  UNL1        0.0813
      6 C           7.3898   76.2778   25.1680 C.ar    1  UNL1        0.0081
      7 C           6.4314   75.9682   24.2016 C.ar    1  UNL1        0.0153
      8 C           6.5959   76.3966   22.8800 C.ar    1  UNL1        0.0556
      9 C           7.7309   77.1471   22.5270 C.ar    1  UNL1        0.0625
     10 S           7.9633   77.7114   20.8377 S.3     1  UNL1       -0.1381
     11 C           8.6951   77.4575   23.4976 C.ar    1  UNL1        0.1510
     12 F           9.7569   78.2294   23.1513 F       1  UNL1       -0.2035
     13 H           8.6423   76.5314   20.4812 H       1  UNL1        0.1072
     14 N           5.6003   76.0709   21.9021 N.pl3   1  UNL1       -0.3036
     15 C           5.6695   74.7911   21.1947 C.3     1  UNL1        0.1123
     16 C           4.2581   74.2372   20.9810 C.3     1  UNL1        0.1136
     17 N           3.3419   75.2574   20.4388 N.pl3   1  UNL1       -0.2897
     18 C           3.7965   76.6511   20.3014 C.3     1  UNL1        0.1136
     19 C           4.6083   77.0838   21.5278 C.3     1  UNL1        0.1123
     20 C           2.0667   74.8644   19.8803 C.ar    1  UNL1        0.1318
     21 C           1.2864   75.7625   19.1303 C.ar    1  UNL1        0.0343
     22 C           0.0601   75.3457   18.6102 C.ar    1  UNL1        0.0083
     23 C          -0.4036   74.0437   18.8476 C.ar    1  UNL1        0.0906
     24 C           0.4157   73.1680   19.5753 C.ar    1  UNL1        0.1041
     25 N           1.6068   73.5955   20.0707 N.ar    1  UNL1       -0.2292
     26 C          -1.7020   73.5666   18.2485 C.3     1  UNL1        0.4200
     27 F          -1.8820   74.1013   16.9845 F       1  UNL1       -0.1658
     28 F          -1.7116   72.1868   18.1405 F       1  UNL1       -0.1658
     29 F          -2.7497   73.9626   19.0587 F       1  UNL1       -0.1658
     30 C          10.1068   77.8193   28.2915 C.3     1  UNL1        0.1535
     31 C          10.0031   79.2110   28.8539 C.2     1  UNL1        0.2443
     32 O           9.8259   80.1841   28.0707 O.2     1  UNL1       -0.2730
     33 N          10.1508   79.4307   30.2661 N.am    1  UNL1       -0.2825
     34 H          10.5914   78.6734   30.8360 H       1  UNL1        0.1549
     35 C           9.8366   80.6699   30.9242 C.ar    1  UNL1        0.0535
     36 C          10.1519   81.9110   30.3450 C.ar    1  UNL1        0.0353
     37 C           9.8041   83.0895   31.0100 C.ar    1  UNL1        0.1002
     38 N           9.1525   83.0344   32.2016 N.ar    1  UNL1       -0.2422
     39 C           8.8186   81.8487   32.7759 C.ar    1  UNL1        0.1002
     40 C           9.1466   80.6468   32.1439 C.ar    1  UNL1        0.0353
     41 C           9.8663   76.7786   29.3987 C.3     1  UNL1        0.0569
     42 C           8.5296   76.1142   29.2387 C.ar    1  UNL1       -0.0017
     43 C           8.2714   74.9211   28.5705 C.ar    1  UNL1        0.0681
     44 N           6.9685   74.5809   28.6980 N.ar    1  UNL1       -0.3523
     45 C           6.4048   75.5441   29.4476 C.ar    1  UNL1        0.0563
     46 C           5.0769   75.6212   29.8657 C.ar    1  UNL1        0.0170
     47 C           4.7026   76.7151   30.6675 C.ar    1  UNL1        0.0015
     48 C           5.6535   77.6944   31.0319 C.ar    1  UNL1        0.0001
     49 C           6.9874   77.5894   30.5970 C.ar    1  UNL1        0.0012
     50 C           7.3270   76.4960   29.8000 C.ar    1  UNL1        0.0131
     51 H           6.5029   73.7327   28.3054 H       1  UNL1        0.1660
@<TRIPOS>BOND
     1     1     2    2
     2     2     3   am
     3     3    30    1
     4    30    41    1
     5    41    42    1
     6    42    43   ar
     7    43    44   ar
     8    44    45   ar
     9    45    46   ar
    10    46    47   ar
    11    47    48   ar
    12    48    49   ar
    13    49    50   ar
    14    30    31    1
    15    31    32    2
    16    31    33   am
    17    33    35    1
    18    35    36   ar
    19    36    37   ar
    20    37    38   ar
    21    38    39   ar
    22    39    40   ar
    23     2     5    1
    24     5     6   ar
    25     6     7   ar
    26     7     8   ar
    27     8    14    1
    28    14    15    1
    29    15    16    1
    30    16    17    1
    31    17    20    1
    32    20    21   ar
    33    21    22   ar
    34    22    23   ar
    35    23    26    1
    36    26    27    1
    37    26    28    1
    38    26    29    1
    39    23    24   ar
    40    24    25   ar
    41    17    18    1
    42    18    19    1
    43     8     9   ar
    44     9    10    1
    45     9    11   ar
    46    11    12    1
    47    50    42   ar
    48    40    35   ar
    49    11     5   ar
    50    50    45   ar
    51    19    14    1
    52    25    20   ar
    53     3     4    1
    54    44    51    1
    55    33    34    1
    56    10    13    1
@<TRIPOS>MOLECULE
*****
 51 56 0 0 0
SMALL
GASTEIGER

@<TRIPOS>ATOM
      1 O          14.0692   83.9402   25.5787 O.2     1  UNL1       -0.2701
      2 C          13.4427   83.3456   24.6589 C.2     1  UNL1        0.2484
      3 N          13.4543   83.8812   23.3266 N.am    1  UNL1       -0.2945
      4 H          13.1944   83.2537   22.5317 H       1  UNL1        0.1501
      5 C          12.7314   82.0838   24.9642 C.ar    1  UNL1        0.0813
      6 C          11.3674   82.1212   25.2967 C.ar    1  UNL1        0.0081
      7 C          10.6773   80.9445   25.5927 C.ar    1  UNL1        0.0153
      8 C          11.3341   79.7100   25.5506 C.ar    1  UNL1        0.0556
      9 C          12.6952   79.6564   25.2033 C.ar    1  UNL1        0.0625
     10 S          13.5599   78.0834   25.1390 S.3     1  UNL1       -0.1381
     11 C          13.3896   80.8388   24.9069 C.ar    1  UNL1        0.1510
     12 F          14.6887   80.7631   24.5202 F       1  UNL1       -0.2035
     13 H          13.9178   78.1649   26.4976 H       1  UNL1        0.1072
     14 N          10.6085   78.5124   25.8556 N.pl3   1  UNL1       -0.3036
     15 C          11.0288   77.6762   26.9813 C.3     1  UNL1        0.1123
     16 C           9.7994   77.1036   27.6921 C.3     1  UNL1        0.1136
     17 N           8.8360   76.5182   26.7416 N.pl3   1  UNL1       -0.2897
     18 C           9.0588   76.6592   25.2930 C.3     1  UNL1        0.1136
     19 C           9.5420   78.0732   24.9502 C.3     1  UNL1        0.1123
     20 C           7.7742   75.6604   27.2202 C.ar    1  UNL1        0.1318
     21 C           7.0521   74.8293   26.3451 C.ar    1  UNL1        0.0343
     22 C           6.0328   74.0177   26.8455 C.ar    1  UNL1        0.0083
     23 C           5.7151   74.0416   28.2112 C.ar    1  UNL1        0.0906
     24 C           6.4766   74.8614   29.0571 C.ar    1  UNL1        0.1041
     25 N           7.4656   75.6420   28.5477 N.ar    1  UNL1       -0.2292
     26 C           4.6511   73.1324   28.7711 C.3     1  UNL1        0.4200
     27 F           4.8903   71.8186   28.4066 F       1  UNL1       -0.1658
     28 F           4.6285   73.2011   30.1533 F       1  UNL1       -0.1658
     29 F           3.4179   73.5188   28.2804 F       1  UNL1       -0.1658
     30 C          14.0175   85.2000   23.0241 C.3     1  UNL1        0.1535
     31 C          13.6425   86.1695   24.1120 C.2     1  UNL1        0.2443
     32 O          12.4871   86.6760   24.1191 O.2     1  UNL1       -0.2730
     33 N          14.6091   86.5473   25.1055 N.am    1  UNL1       -0.2825
     34 H          15.6175   86.3600   24.9038 H       1  UNL1        0.1549
     35 C          14.2876   87.2696   26.3064 C.ar    1  UNL1        0.0535
     36 C          14.3020   86.6463   27.5659 C.ar    1  UNL1        0.0353
     37 C          14.0074   87.3950   28.7082 C.ar    1  UNL1        0.1002
     38 N          13.7233   88.7199   28.6018 N.ar    1  UNL1       -0.2422
     39 C          13.7203   89.3528   27.3990 C.ar    1  UNL1        0.1002
     40 C          14.0107   88.6416   26.2321 C.ar    1  UNL1        0.0353
     41 C          15.5477   85.1211   22.8858 C.3     1  UNL1        0.0569
     42 C          16.0978   86.3529   22.2271 C.ar    1  UNL1       -0.0017
     43 C          15.7608   86.8405   20.9679 C.ar    1  UNL1        0.0681
     44 N          16.3889   88.0152   20.7330 N.ar    1  UNL1       -0.3523
     45 C          17.1120   88.2769   21.8357 C.ar    1  UNL1        0.0563
     46 C          17.9159   89.3907   22.0746 C.ar    1  UNL1        0.0170
     47 C          18.5735   89.4729   23.3158 C.ar    1  UNL1        0.0015
     48 C          18.4122   88.4533   24.2804 C.ar    1  UNL1        0.0001
     49 C          17.5926   87.3416   24.0124 C.ar    1  UNL1        0.0012
     50 C          16.9573   87.2865   22.7718 C.ar    1  UNL1        0.0131
     51 H          16.3120   88.6040   19.8740 H       1  UNL1        0.1660
@<TRIPOS>BOND
     1     1     2    2
     2     2     3   am
     3     3    30    1
     4    30    41    1
     5    41    42    1
     6    42    43   ar
     7    43    44   ar
     8    44    45   ar
     9    45    46   ar
    10    46    47   ar
    11    47    48   ar
    12    48    49   ar
    13    49    50   ar
    14    30    31    1
    15    31    32    2
    16    31    33   am
    17    33    35    1
    18    35    36   ar
    19    36    37   ar
    20    37    38   ar
    21    38    39   ar
    22    39    40   ar
    23     2     5    1
    24     5     6   ar
    25     6     7   ar
    26     7     8   ar
    27     8    14    1
    28    14    15    1
    29    15    16    1
    30    16    17    1
    31    17    20    1
    32    20    21   ar
    33    21    22   ar
    34    22    23   ar
    35    23    26    1
    36    26    27    1
    37    26    28    1
    38    26    29    1
    39    23    24   ar
    40    24    25   ar
    41    17    18    1
    42    18    19    1
    43     8     9   ar
    44     9    10    1
    45     9    11   ar
    46    11    12    1
    47    50    42   ar
    48    40    35   ar
    49    11     5   ar
    50    50    45   ar
    51    19    14    1
    52    25    20   ar
    53     3     4    1
    54    44    51    1
    55    33    34    1
    56    10    13    1
@<TRIPOS>MOLECULE
*****
 51 56 0 0 0
SMALL
GASTEIGER

@<TRIPOS>ATOM
      1 O          10.7507   74.8283   25.5978 O.2     1  UNL1       -0.2701
      2 C          10.0156   75.8335   25.3954 C.2     1  UNL1        0.2484
      3 N          10.2743   77.0591   26.0976 N.am    1  UNL1       -0.2945
      4 H           9.8675   77.9467   25.7237 H       1  UNL1        0.1501
      5 C           8.9156   75.7409   24.4091 C.ar    1  UNL1        0.0813
      6 C           7.8524   74.8525   24.6396 C.ar    1  UNL1        0.0081
      7 C           6.8066   74.7450   23.7213 C.ar    1  UNL1        0.0153
      8 C           6.7988   75.5304   22.5636 C.ar    1  UNL1        0.0556
      9 C           7.8483   76.4355   22.3285 C.ar    1  UNL1        0.0625
     10 S           7.8593   77.4571   20.8512 S.3     1  UNL1       -0.1381
     11 C           8.9003   76.5431   23.2503 C.ar    1  UNL1        0.1510
     12 F           9.8768   77.4612   23.0347 F       1  UNL1       -0.2035
     13 H           8.5501   76.4767   20.1147 H       1  UNL1        0.1072
     14 N           5.7155   75.4076   21.6334 N.pl3   1  UNL1       -0.3036
     15 C           5.6827   74.2779   20.7029 C.3     1  UNL1        0.1123
     16 C           4.2405   73.7987   20.5164 C.3     1  UNL1        0.1136
     17 N           3.3180   74.9176   20.2495 N.pl3   1  UNL1       -0.2897
     18 C           3.8069   76.3042   20.3274 C.3     1  UNL1        0.1136
     19 C           4.7311   76.4900   21.5364 C.3     1  UNL1        0.1123
     20 C           1.9886   74.6570   19.7424 C.ar    1  UNL1        0.1318
     21 C           1.2728   75.6325   19.0256 C.ar    1  UNL1        0.0343
     22 C          -0.0089   75.3432   18.5548 C.ar    1  UNL1        0.0083
     23 C          -0.5909   74.0929   18.8092 C.ar    1  UNL1        0.0906
     24 C           0.1651   73.1359   19.5021 C.ar    1  UNL1        0.1041
     25 N           1.4119   73.4395   19.9496 N.ar    1  UNL1       -0.2292
     26 C          -1.9534   73.7513   18.2623 C.3     1  UNL1        0.4200
     27 F          -2.0680   72.3876   18.0542 F       1  UNL1       -0.1658
     28 F          -2.9452   74.1394   19.1463 F       1  UNL1       -0.1658
     29 F          -2.1391   74.4078   17.0601 F       1  UNL1       -0.1658
     30 C          11.2530   77.1397   27.1855 C.3     1  UNL1        0.1535
     31 C          12.5914   77.5450   26.6301 C.2     1  UNL1        0.2443
     32 O          13.6430   77.2087   27.2405 O.2     1  UNL1       -0.2730
     33 N          12.6652   78.3467   25.4401 N.am    1  UNL1       -0.2825
     34 H          11.8036   78.8559   25.1386 H       1  UNL1        0.1549
     35 C          13.8774   78.5839   24.7044 C.ar    1  UNL1        0.0535
     36 C          14.6160   79.7687   24.8656 C.ar    1  UNL1        0.0353
     37 C          15.8020   79.9439   24.1480 C.ar    1  UNL1        0.1002
     38 N          16.2444   78.9684   23.3113 N.ar    1  UNL1       -0.2422
     39 C          15.5604   77.8050   23.1500 C.ar    1  UNL1        0.1002
     40 C          14.3707   77.5887   23.8495 C.ar    1  UNL1        0.0353
     41 C          10.7955   78.1437   28.2577 C.3     1  UNL1        0.0569
     42 C           9.4857   77.7315   28.8644 C.ar    1  UNL1       -0.0017
     43 C           8.3943   78.5563   29.1202 C.ar    1  UNL1        0.0681
     44 N           7.3554   77.8313   29.5940 N.ar    1  UNL1       -0.3523
     45 C           7.7787   76.5559   29.6312 C.ar    1  UNL1        0.0563
     46 C           7.0521   75.4355   30.0320 C.ar    1  UNL1        0.0170
     47 C           7.6895   74.1826   29.9725 C.ar    1  UNL1        0.0015
     48 C           9.0225   74.0784   29.5161 C.ar    1  UNL1        0.0001
     49 C           9.7308   75.2262   29.1158 C.ar    1  UNL1        0.0012
     50 C           9.0734   76.4544   29.1900 C.ar    1  UNL1        0.0131
     51 H           6.4121   78.1914   29.8604 H       1  UNL1        0.1660
@<TRIPOS>BOND
     1     1     2    2
     2     2     3   am
     3     3    30    1
     4    30    41    1
     5    41    42    1
     6    42    43   ar
     7    43    44   ar
     8    44    45   ar
     9    45    46   ar
    10    46    47   ar
    11    47    48   ar
    12    48    49   ar
    13    49    50   ar
    14    30    31    1
    15    31    32    2
    16    31    33   am
    17    33    35    1
    18    35    36   ar
    19    36    37   ar
    20    37    38   ar
    21    38    39   ar
    22    39    40   ar
    23     2     5    1
    24     5     6   ar
    25     6     7   ar
    26     7     8   ar
    27     8    14    1
    28    14    15    1
    29    15    16    1
    30    16    17    1
    31    17    20    1
    32    20    21   ar
    33    21    22   ar
    34    22    23   ar
    35    23    26    1
    36    26    27    1
    37    26    28    1
    38    26    29    1
    39    23    24   ar
    40    24    25   ar
    41    17    18    1
    42    18    19    1
    43     8     9   ar
    44     9    10    1
    45     9    11   ar
    46    11    12    1
    47    50    42   ar
    48    40    35   ar
    49    11     5   ar
    50    50    45   ar
    51    19    14    1
    52    25    20   ar
    53     3     4    1
    54    44    51    1
    55    33    34    1
    56    10    13    1
@<TRIPOS>MOLECULE
*****
 51 56 0 0 0
SMALL
GASTEIGER

@<TRIPOS>ATOM
      1 O          10.9110   74.9715   25.4469 O.2     1  UNL1       -0.2701
      2 C           9.9707   75.8129   25.4431 C.2     1  UNL1        0.2484
      3 N          10.0161   76.9370   26.3355 N.am    1  UNL1       -0.2945
      4 H           9.4090   77.7635   26.1319 H       1  UNL1        0.1501
      5 C           8.8494   75.6431   24.4917 C.ar    1  UNL1        0.0813
      6 C           9.1156   75.2373   23.1737 C.ar    1  UNL1        0.0081
      7 C           8.0746   75.0750   22.2580 C.ar    1  UNL1        0.0153
      8 C           6.7500   75.3039   22.6455 C.ar    1  UNL1        0.0556
      9 C           6.4679   75.6946   23.9660 C.ar    1  UNL1        0.0625
     10 S           4.7753   75.9913   24.4887 S.3     1  UNL1       -0.1381
     11 C           7.5138   75.8591   24.8864 C.ar    1  UNL1        0.1510
     12 F           7.2186   76.1832   26.1713 F       1  UNL1       -0.2035
     13 H           4.8402   77.3453   24.1103 H       1  UNL1        0.1072
     14 N           5.6944   75.1302   21.6919 N.pl3   1  UNL1       -0.3036
     15 C           5.4852   73.8208   21.0716 C.3     1  UNL1        0.1123
     16 C           3.9865   73.5612   20.8961 C.3     1  UNL1        0.1136
     17 N           3.2953   74.7126   20.2872 N.pl3   1  UNL1       -0.2897
     18 C           4.0284   75.9685   20.0567 C.3     1  UNL1        0.1136
     19 C           4.9301   76.3013   21.2512 C.3     1  UNL1        0.1123
     20 C           1.9583   74.5590   19.7568 C.ar    1  UNL1        0.1318
     21 C           1.2993   75.6200   19.1103 C.ar    1  UNL1        0.0343
     22 C           0.0083   75.4326   18.6142 C.ar    1  UNL1        0.0083
     23 C          -0.6392   74.1990   18.7739 C.ar    1  UNL1        0.0906
     24 C           0.0610   73.1560   19.3981 C.ar    1  UNL1        0.1041
     25 N           1.3181   73.3611   19.8718 N.ar    1  UNL1       -0.2292
     26 C          -2.0130   73.9693   18.1977 C.3     1  UNL1        0.4200
     27 F          -2.3286   72.6215   18.2104 F       1  UNL1       -0.1658
     28 F          -2.9703   74.6451   18.9344 F       1  UNL1       -0.1658
     29 F          -2.0420   74.4267   16.8936 F       1  UNL1       -0.1658
     30 C          11.0285   77.0526   27.3888 C.3     1  UNL1        0.1535
     31 C          12.3470   77.4453   26.7793 C.2     1  UNL1        0.2443
     32 O          13.4192   77.0615   27.3221 O.2     1  UNL1       -0.2730
     33 N          12.3810   78.2880   25.6161 N.am    1  UNL1       -0.2825
     34 H          11.5188   78.8288   25.3779 H       1  UNL1        0.1549
     35 C          13.5600   78.5224   24.8273 C.ar    1  UNL1        0.0535
     36 C          14.3180   79.6974   24.9684 C.ar    1  UNL1        0.0353
     37 C          15.4709   79.8699   24.1982 C.ar    1  UNL1        0.1002
     38 N          15.8631   78.9008   23.3295 N.ar    1  UNL1       -0.2422
     39 C          15.1599   77.7466   23.1861 C.ar    1  UNL1        0.1002
     40 C          14.0020   77.5334   23.9379 C.ar    1  UNL1        0.0353
     41 C          10.6014   78.0866   28.4449 C.3     1  UNL1        0.0569
     42 C           9.1240   78.3464   28.3844 C.ar    1  UNL1       -0.0017
     43 C           8.4887   79.3585   27.6710 C.ar    1  UNL1        0.0681
     44 N           7.1456   79.2411   27.7796 N.ar    1  UNL1       -0.3523
     45 C           6.9281   78.1595   28.5478 C.ar    1  UNL1        0.0563
     46 C           5.6972   77.6248   28.9255 C.ar    1  UNL1        0.0170
     47 C           5.7007   76.4661   29.7237 C.ar    1  UNL1        0.0015
     48 C           6.9204   75.8729   30.1192 C.ar    1  UNL1        0.0001
     49 C           8.1479   76.4334   29.7211 C.ar    1  UNL1        0.0012
     50 C           8.1119   77.5843   28.9336 C.ar    1  UNL1        0.0131
     51 H           6.4269   79.8585   27.3406 H       1  UNL1        0.1660
@<TRIPOS>BOND
     1     1     2    2
     2     2     3   am
     3     3    30    1
     4    30    41    1
     5    41    42    1
     6    42    43   ar
     7    43    44   ar
     8    44    45   ar
     9    45    46   ar
    10    46    47   ar
    11    47    48   ar
    12    48    49   ar
    13    49    50   ar
    14    30    31    1
    15    31    32    2
    16    31    33   am
    17    33    35    1
    18    35    36   ar
    19    36    37   ar
    20    37    38   ar
    21    38    39   ar
    22    39    40   ar
    23     2     5    1
    24     5     6   ar
    25     6     7   ar
    26     7     8   ar
    27     8    14    1
    28    14    15    1
    29    15    16    1
    30    16    17    1
    31    17    20    1
    32    20    21   ar
    33    21    22   ar
    34    22    23   ar
    35    23    26    1
    36    26    27    1
    37    26    28    1
    38    26    29    1
    39    23    24   ar
    40    24    25   ar
    41    17    18    1
    42    18    19    1
    43     8     9   ar
    44     9    10    1
    45     9    11   ar
    46    11    12    1
    47    50    42   ar
    48    40    35   ar
    49    11     5   ar
    50    50    45   ar
    51    19    14    1
    52    25    20   ar
    53     3     4    1
    54    44    51    1
    55    33    34    1
    56    10    13    1
@<TRIPOS>MOLECULE
*****
 51 56 0 0 0
SMALL
GASTEIGER

@<TRIPOS>ATOM
      1 O           7.5271   74.9659   24.8468 O.2     1  UNL1       -0.2701
      2 C           7.8469   75.7262   23.8921 C.2     1  UNL1        0.2484
      3 N           7.3459   75.4629   22.5723 N.am    1  UNL1       -0.2945
      4 H           7.3664   76.2328   21.8654 H       1  UNL1        0.1501
      5 C           8.7094   76.8997   24.1570 C.ar    1  UNL1        0.0813
      6 C           9.4357   77.4769   23.1025 C.ar    1  UNL1        0.0081
      7 C          10.2588   78.5811   23.3296 C.ar    1  UNL1        0.0153
      8 C          10.3620   79.1346   24.6103 C.ar    1  UNL1        0.0556
      9 C           9.6279   78.5770   25.6715 C.ar    1  UNL1        0.0625
     10 S           9.7409   79.2714   27.3241 S.3     1  UNL1       -0.1381
     11 C           8.8014   77.4664   25.4442 C.ar    1  UNL1        0.1510
     12 F           8.0579   76.9751   26.4683 F       1  UNL1       -0.2035
     13 H          10.8310   78.4446   27.6540 H       1  UNL1        0.1072
     14 N          11.2106   80.2696   24.8237 N.pl3   1  UNL1       -0.3036
     15 C          12.6386   80.0703   25.0773 C.3     1  UNL1        0.1123
     16 C          13.4481   81.1750   24.3926 C.3     1  UNL1        0.1136
     17 N          12.8959   82.5142   24.6680 N.pl3   1  UNL1       -0.2897
     18 C          11.6254   82.6461   25.4003 C.3     1  UNL1        0.1136
     19 C          10.6088   81.6030   24.9216 C.3     1  UNL1        0.1123
     20 C          13.6791   83.6956   24.3793 C.ar    1  UNL1        0.1318
     21 C          13.8079   84.7371   25.3156 C.ar    1  UNL1        0.0343
     22 C          14.5706   85.8621   24.9982 C.ar    1  UNL1        0.0083
     23 C          15.1923   85.9652   23.7454 C.ar    1  UNL1        0.0906
     24 C          15.0649   84.8936   22.8493 C.ar    1  UNL1        0.1041
     25 N          14.3185   83.8074   23.1807 N.ar    1  UNL1       -0.2292
     26 C          16.0598   87.1517   23.4107 C.3     1  UNL1        0.4200
     27 F          15.3313   88.3262   23.4874 F       1  UNL1       -0.1658
     28 F          17.1228   87.2430   24.2925 F       1  UNL1       -0.1658
     29 F          16.5507   87.0088   22.1264 F       1  UNL1       -0.1658
     30 C           6.6191   74.2322   22.2482 C.3     1  UNL1        0.1535
     31 C           5.2417   74.5769   21.7502 C.2     1  UNL1        0.2443
     32 O           4.3834   75.0221   22.5605 O.2     1  UNL1       -0.2730
     33 N           4.8971   74.3564   20.3729 N.am    1  UNL1       -0.2825
     34 H           5.5060   73.7185   19.8118 H       1  UNL1        0.1549
     35 C           3.7049   74.8656   19.7510 C.ar    1  UNL1        0.0535
     36 C           2.4273   74.4304   20.1429 C.ar    1  UNL1        0.0353
     37 C           1.2962   74.9726   19.5274 C.ar    1  UNL1        0.1002
     38 N           1.4318   75.9245   18.5667 N.ar    1  UNL1       -0.2422
     39 C           2.6538   76.3775   18.1812 C.ar    1  UNL1        0.1002
     40 C           3.8104   75.8630   18.7720 C.ar    1  UNL1        0.0353
     41 C           7.3780   73.4129   21.1900 C.3     1  UNL1        0.0569
     42 C           8.5278   72.6667   21.8025 C.ar    1  UNL1       -0.0017
     43 C           8.5619   71.3123   22.1207 C.ar    1  UNL1        0.0681
     44 N           9.7861   70.9658   22.5796 N.ar    1  UNL1       -0.3523
     45 C          10.5267   72.0874   22.5456 C.ar    1  UNL1        0.0563
     46 C          11.8663   72.2268   22.9059 C.ar    1  UNL1        0.0170
     47 C          12.4543   73.4981   22.7721 C.ar    1  UNL1        0.0015
     48 C          11.6996   74.5881   22.2839 C.ar    1  UNL1        0.0001
     49 C          10.3498   74.4173   21.9259 C.ar    1  UNL1        0.0012
     50 C           9.7941   73.1463   22.0736 C.ar    1  UNL1        0.0131
     51 H          10.0938   70.0151   22.8826 H       1  UNL1        0.1660
@<TRIPOS>BOND
     1     1     2    2
     2     2     3   am
     3     3    30    1
     4    30    41    1
     5    41    42    1
     6    42    43   ar
     7    43    44   ar
     8    44    45   ar
     9    45    46   ar
    10    46    47   ar
    11    47    48   ar
    12    48    49   ar
    13    49    50   ar
    14    30    31    1
    15    31    32    2
    16    31    33   am
    17    33    35    1
    18    35    36   ar
    19    36    37   ar
    20    37    38   ar
    21    38    39   ar
    22    39    40   ar
    23     2     5    1
    24     5     6   ar
    25     6     7   ar
    26     7     8   ar
    27     8    14    1
    28    14    15    1
    29    15    16    1
    30    16    17    1
    31    17    20    1
    32    20    21   ar
    33    21    22   ar
    34    22    23   ar
    35    23    26    1
    36    26    27    1
    37    26    28    1
    38    26    29    1
    39    23    24   ar
    40    24    25   ar
    41    17    18    1
    42    18    19    1
    43     8     9   ar
    44     9    10    1
    45     9    11   ar
    46    11    12    1
    47    50    42   ar
    48    40    35   ar
    49    11     5   ar
    50    50    45   ar
    51    19    14    1
    52    25    20   ar
    53     3     4    1
    54    44    51    1
    55    33    34    1
    56    10    13    1
@<TRIPOS>MOLECULE
*****
 51 56 0 0 0
SMALL
GASTEIGER

@<TRIPOS>ATOM
      1 O           6.3155   73.2647   22.1165 O.2     1  UNL1       -0.2701
      2 C           5.8803   74.4068   22.4297 C.2     1  UNL1        0.2484
      3 N           4.7554   74.9583   21.7279 N.am    1  UNL1       -0.2945
      4 H           4.2265   75.7453   22.1684 H       1  UNL1        0.1501
      5 C           6.5189   75.1464   23.5416 C.ar    1  UNL1        0.0813
      6 C           5.7502   76.0305   24.3164 C.ar    1  UNL1        0.0081
      7 C           6.3320   76.7420   25.3669 C.ar    1  UNL1        0.0153
      8 C           7.6877   76.5746   25.6689 C.ar    1  UNL1        0.0556
      9 C           8.4650   75.6807   24.9120 C.ar    1  UNL1        0.0625
     10 S          10.2068   75.4458   25.2821 S.3     1  UNL1       -0.1381
     11 C           7.8811   74.9662   23.8553 C.ar    1  UNL1        0.1510
     12 F           8.6330   74.0669   23.1704 F       1  UNL1       -0.2035
     13 H          10.5850   76.4922   24.4204 H       1  UNL1        0.1072
     14 N           8.2670   77.3122   26.7525 N.pl3   1  UNL1       -0.3036
     15 C           9.2329   78.3758   26.4718 C.3     1  UNL1        0.1123
     16 C           9.0264   79.5376   27.4475 C.3     1  UNL1        0.1136
     17 N           8.9230   79.0734   28.8432 N.pl3   1  UNL1       -0.2897
     18 C           8.8830   77.6306   29.1340 C.3     1  UNL1        0.1136
     19 C           7.9865   76.8962   28.1303 C.3     1  UNL1        0.1123
     20 C           9.0379   80.0181   29.9326 C.ar    1  UNL1        0.1318
     21 C           9.7592   81.2170   29.7907 C.ar    1  UNL1        0.0343
     22 C           9.8488   82.1017   30.8666 C.ar    1  UNL1        0.0083
     23 C           9.2389   81.7915   32.0906 C.ar    1  UNL1        0.0906
     24 C           8.5040   80.6005   32.1848 C.ar    1  UNL1        0.1041
     25 N           8.4291   79.7550   31.1235 N.ar    1  UNL1       -0.2292
     26 C           9.2859   82.7621   33.2430 C.3     1  UNL1        0.4200
     27 F          10.1932   83.7765   32.9903 F       1  UNL1       -0.1658
     28 F           8.0427   83.3346   33.4497 F       1  UNL1       -0.1658
     29 F           9.6688   82.0902   34.3888 F       1  UNL1       -0.1658
     30 C           4.1994   74.3232   20.5299 C.3     1  UNL1        0.1535
     31 C           2.7015   74.4664   20.5328 C.2     1  UNL1        0.2443
     32 O           2.1475   75.1612   21.4282 O.2     1  UNL1       -0.2730
     33 N           1.9098   73.7791   19.5505 N.am    1  UNL1       -0.2825
     34 H           2.3534   72.9890   19.0295 H       1  UNL1        0.1549
     35 C           0.5135   74.0344   19.3214 C.ar    1  UNL1        0.0535
     36 C          -0.0211   75.3314   19.4076 C.ar    1  UNL1        0.0353
     37 C          -1.3795   75.5347   19.1515 C.ar    1  UNL1        0.1002
     38 N          -2.1739   74.4869   18.8075 N.ar    1  UNL1       -0.2422
     39 C          -1.6802   73.2253   18.6985 C.ar    1  UNL1        0.1002
     40 C          -0.3275   72.9783   18.9448 C.ar    1  UNL1        0.0353
     41 C           4.7914   74.9497   19.2556 C.3     1  UNL1        0.0569
     42 C           4.9229   76.4389   19.3931 C.ar    1  UNL1       -0.0017
     43 C           3.9528   77.3887   19.0869 C.ar    1  UNL1        0.0681
     44 N           4.3861   78.6280   19.4125 N.ar    1  UNL1       -0.3523
     45 C           5.6169   78.4674   19.9290 C.ar    1  UNL1        0.0563
     46 C           6.4608   79.4595   20.4264 C.ar    1  UNL1        0.0170
     47 C           7.7086   79.0636   20.9422 C.ar    1  UNL1        0.0015
     48 C           8.0793   77.7003   20.9520 C.ar    1  UNL1        0.0001
     49 C           7.2061   76.7204   20.4453 C.ar    1  UNL1        0.0012
     50 C           5.9781   77.1443   19.9371 C.ar    1  UNL1        0.0131
     51 H           3.8611   79.5234   19.2988 H       1  UNL1        0.1660
@<TRIPOS>BOND
     1     1     2    2
     2     2     3   am
     3     3    30    1
     4    30    41    1
     5    41    42    1
     6    42    43   ar
     7    43    44   ar
     8    44    45   ar
     9    45    46   ar
    10    46    47   ar
    11    47    48   ar
    12    48    49   ar
    13    49    50   ar
    14    30    31    1
    15    31    32    2
    16    31    33   am
    17    33    35    1
    18    35    36   ar
    19    36    37   ar
    20    37    38   ar
    21    38    39   ar
    22    39    40   ar
    23     2     5    1
    24     5     6   ar
    25     6     7   ar
    26     7     8   ar
    27     8    14    1
    28    14    15    1
    29    15    16    1
    30    16    17    1
    31    17    20    1
    32    20    21   ar
    33    21    22   ar
    34    22    23   ar
    35    23    26    1
    36    26    27    1
    37    26    28    1
    38    26    29    1
    39    23    24   ar
    40    24    25   ar
    41    17    18    1
    42    18    19    1
    43     8     9   ar
    44     9    10    1
    45     9    11   ar
    46    11    12    1
    47    50    42   ar
    48    40    35   ar
    49    11     5   ar
    50    50    45   ar
    51    19    14    1
    52    25    20   ar
    53     3     4    1
    54    44    51    1
    55    33    34    1
    56    10    13    1
@<TRIPOS>MOLECULE
*****
 51 56 0 0 0
SMALL
GASTEIGER

@<TRIPOS>ATOM
      1 O           7.5197   75.0937   24.9286 O.2     1  UNL1       -0.2701
      2 C           7.8328   75.8466   23.9658 C.2     1  UNL1        0.2484
      3 N           7.3091   75.5832   22.6550 N.am    1  UNL1       -0.2945
      4 H           7.3269   76.3500   21.9445 H       1  UNL1        0.1501
      5 C           8.7116   77.0120   24.2126 C.ar    1  UNL1        0.0813
      6 C           9.4658   77.5463   23.1551 C.ar    1  UNL1        0.0081
      7 C          10.3045   78.6421   23.3653 C.ar    1  UNL1        0.0153
      8 C          10.3960   79.2298   24.6315 C.ar    1  UNL1        0.0556
      9 C           9.6343   78.7154   25.6951 C.ar    1  UNL1        0.0625
     10 S           9.7317   79.4544   27.3293 S.3     1  UNL1       -0.1381
     11 C           8.7920   77.6134   25.4848 C.ar    1  UNL1        0.1510
     12 F           8.0226   77.1644   26.5093 F       1  UNL1       -0.2035
     13 H          10.8012   78.6185   27.7011 H       1  UNL1        0.1072
     14 N          11.2610   80.3554   24.8277 N.pl3   1  UNL1       -0.3036
     15 C          12.6914   80.1406   25.0535 C.3     1  UNL1        0.1123
     16 C          13.4995   81.2361   24.3525 C.3     1  UNL1        0.1136
     17 N          12.9675   82.5814   24.6378 N.pl3   1  UNL1       -0.2897
     18 C          11.7131   82.7275   25.3946 C.3     1  UNL1        0.1136
     19 C          10.6759   81.6955   24.9365 C.3     1  UNL1        0.1123
     20 C          13.7579   83.7540   24.3331 C.ar    1  UNL1        0.1318
     21 C          13.8602   84.8251   25.2388 C.ar    1  UNL1        0.0343
     22 C          14.6309   85.9403   24.9067 C.ar    1  UNL1        0.0083
     23 C          15.2870   86.0041   23.6689 C.ar    1  UNL1        0.0906
     24 C          15.1850   84.9042   22.8044 C.ar    1  UNL1        0.1041
     25 N          14.4302   83.8282   23.1497 N.ar    1  UNL1       -0.2292
     26 C          16.1629   87.1804   23.3205 C.3     1  UNL1        0.4200
     27 F          17.2746   87.2222   24.1443 F       1  UNL1       -0.1658
     28 F          16.5984   87.0931   22.0096 F       1  UNL1       -0.1658
     29 F          15.4407   88.3484   23.4787 F       1  UNL1       -0.1658
     30 C           6.5645   74.3589   22.3472 C.3     1  UNL1        0.1535
     31 C           5.1583   74.7122   21.9450 C.2     1  UNL1        0.2443
     32 O           4.3610   73.7942   21.6087 O.2     1  UNL1       -0.2730
     33 N           4.7449   76.0875   21.9016 N.am    1  UNL1       -0.2825
     34 H           5.4884   76.8220   21.8846 H       1  UNL1        0.1549
     35 C           3.3782   76.5123   21.7640 C.ar    1  UNL1        0.0535
     36 C           2.7588   77.3227   22.7310 C.ar    1  UNL1        0.0353
     37 C           1.4363   77.7319   22.5418 C.ar    1  UNL1        0.1002
     38 N           0.7598   77.3600   21.4231 N.ar    1  UNL1       -0.2422
     39 C           1.3396   76.5924   20.4630 C.ar    1  UNL1        0.1002
     40 C           2.6605   76.1627   20.6121 C.ar    1  UNL1        0.0353
     41 C           7.2563   73.5674   21.2240 C.3     1  UNL1        0.0569
     42 C           8.4057   72.7613   21.7559 C.ar    1  UNL1       -0.0017
     43 C           8.4197   71.3888   21.9859 C.ar    1  UNL1        0.0681
     44 N           9.6480   70.9900   22.3881 N.ar    1  UNL1       -0.3523
     45 C          10.4108   72.0969   22.4055 C.ar    1  UNL1        0.0563
     46 C          11.7620   72.1870   22.7372 C.ar    1  UNL1        0.0170
     47 C          12.3728   73.4527   22.6688 C.ar    1  UNL1        0.0015
     48 C          11.6287   74.5862   22.2720 C.ar    1  UNL1        0.0001
     49 C          10.2667   74.4649   21.9409 C.ar    1  UNL1        0.0012
     50 C           9.6884   73.1980   22.0223 C.ar    1  UNL1        0.0131
     51 H           9.9435   70.0159   22.6212 H       1  UNL1        0.1660
@<TRIPOS>BOND
     1     1     2    2
     2     2     3   am
     3     3    30    1
     4    30    41    1
     5    41    42    1
     6    42    43   ar
     7    43    44   ar
     8    44    45   ar
     9    45    46   ar
    10    46    47   ar
    11    47    48   ar
    12    48    49   ar
    13    49    50   ar
    14    30    31    1
    15    31    32    2
    16    31    33   am
    17    33    35    1
    18    35    36   ar
    19    36    37   ar
    20    37    38   ar
    21    38    39   ar
    22    39    40   ar
    23     2     5    1
    24     5     6   ar
    25     6     7   ar
    26     7     8   ar
    27     8    14    1
    28    14    15    1
    29    15    16    1
    30    16    17    1
    31    17    20    1
    32    20    21   ar
    33    21    22   ar
    34    22    23   ar
    35    23    26    1
    36    26    27    1
    37    26    28    1
    38    26    29    1
    39    23    24   ar
    40    24    25   ar
    41    17    18    1
    42    18    19    1
    43     8     9   ar
    44     9    10    1
    45     9    11   ar
    46    11    12    1
    47    50    42   ar
    48    40    35   ar
    49    11     5   ar
    50    50    45   ar
    51    19    14    1
    52    25    20   ar
    53     3     4    1
    54    44    51    1
    55    33    34    1
    56    10    13    1
