@<TRIPOS>MOLECULE
*****
 48 53 0 0 0
SMALL
GASTEIGER

@<TRIPOS>ATOM
      1 O           9.1675   77.9682   27.0808 O.2     1  UNL1       -0.2701
      2 C           7.9549   77.6391   27.1941 C.2     1  UNL1        0.2483
      3 N           7.3112   77.7152   28.4767 N.am    1  UNL1       -0.2945
      4 H           6.2674   77.6824   28.5056 H       1  UNL1        0.1501
      5 C           7.2051   77.2106   25.9917 C.ar    1  UNL1        0.0808
      6 C           7.9003   76.9276   24.8049 C.ar    1  UNL1        0.0080
      7 C           7.2134   76.5245   23.6573 C.ar    1  UNL1        0.0148
      8 C           5.8149   76.3861   23.6728 C.ar    1  UNL1        0.0502
      9 C           5.1217   76.6476   24.8668 C.ar    1  UNL1        0.0443
     10 C           5.8062   77.0535   26.0168 C.ar    1  UNL1        0.1457
     11 F           5.1014   77.2447   27.1609 F       1  UNL1       -0.2040
     12 N           5.1040   75.9627   22.4888 N.pl3   1  UNL1       -0.3040
     13 C           4.8152   74.5311   22.2947 C.3     1  UNL1        0.1122
     14 C           4.3709   74.2413   20.8606 C.3     1  UNL1        0.1122
     15 N           3.3123   75.1828   20.4794 N.pl3   1  UNL1       -0.3040
     16 C           3.4908   76.6212   20.7273 C.3     1  UNL1        0.1122
     17 C           4.8353   76.9227   21.4051 C.3     1  UNL1        0.1122
     18 C           2.0631   74.7044   19.9473 C.ar    1  UNL1        0.0488
     19 C           1.2797   75.5273   19.1227 C.ar    1  UNL1        0.0154
     20 C           0.0626   75.0648   18.6157 C.ar    1  UNL1        0.0135
     21 C          -0.3901   73.7788   18.9287 C.ar    1  UNL1        0.0683
     22 CL         -1.9273   73.2331   18.2718 Cl      1  UNL1       -0.0814
     23 C           0.3839   72.9501   19.7581 C.ar    1  UNL1        0.0694
     24 CL         -0.1522   71.3304   20.1839 Cl      1  UNL1       -0.0813
     25 C           1.6034   73.4153   20.2640 C.ar    1  UNL1        0.0268
     26 C           8.0729   77.8933   29.7202 C.3     1  UNL1        0.1535
     27 C           8.2855   79.3590   30.0223 C.2     1  UNL1        0.2443
     28 O           7.5250   80.2214   29.5040 O.2     1  UNL1       -0.2730
     29 N           9.2756   79.7487   30.9897 N.am    1  UNL1       -0.2825
     30 H           9.8076   78.9885   31.4711 H       1  UNL1        0.1549
     31 C           9.3827   81.0746   31.5323 C.ar    1  UNL1        0.0535
     32 C           8.9913   81.3647   32.8495 C.ar    1  UNL1        0.0353
     33 C           9.1133   82.6706   33.3314 C.ar    1  UNL1        0.1002
     34 N           9.5950   83.6536   32.5254 N.ar    1  UNL1       -0.2422
     35 C           9.9624   83.4047   31.2407 C.ar    1  UNL1        0.1002
     36 C           9.8522   82.1144   30.7185 C.ar    1  UNL1        0.0353
     37 C           7.3468   77.1940   30.8877 C.3     1  UNL1        0.0569
     38 C           6.1651   76.3921   30.4076 C.ar    1  UNL1       -0.0012
     39 C           4.8445   76.7973   30.5739 C.ar    1  UNL1        0.0681
     40 N           4.0061   75.9768   29.9111 N.ar    1  UNL1       -0.3522
     41 C           4.7794   75.0566   29.3137 C.ar    1  UNL1        0.0568
     42 C           4.3406   74.0270   28.4844 C.ar    1  UNL1        0.0170
     43 C           5.3023   73.1776   27.9210 C.ar    1  UNL1        0.0020
     44 C           6.6691   73.3658   28.2001 C.ar    1  UNL1        0.0068
     45 C           7.0989   74.4097   29.0420 C.ar    1  UNL1        0.0357
     46 BR          8.9724   74.5346   29.4084 Br      1  UNL1       -0.0490
     47 C           6.1164   75.2619   29.5877 C.ar    1  UNL1        0.0193
     48 H           2.9670   76.0616   29.8527 H       1  UNL1        0.1660
@<TRIPOS>BOND
     1     1     2    2
     2     2     3   am
     3     3    26    1
     4    26    37    1
     5    37    38    1
     6    38    39   ar
     7    39    40   ar
     8    40    41   ar
     9    41    42   ar
    10    42    43   ar
    11    43    44   ar
    12    44    45   ar
    13    45    46    1
    14    45    47   ar
    15    26    27    1
    16    27    28    2
    17    27    29   am
    18    29    31    1
    19    31    32   ar
    20    32    33   ar
    21    33    34   ar
    22    34    35   ar
    23    35    36   ar
    24     2     5    1
    25     5     6   ar
    26     6     7   ar
    27     7     8   ar
    28     8    12    1
    29    12    13    1
    30    13    14    1
    31    14    15    1
    32    15    18    1
    33    18    19   ar
    34    19    20   ar
    35    20    21   ar
    36    21    22    1
    37    21    23   ar
    38    23    24    1
    39    23    25   ar
    40    15    16    1
    41    16    17    1
    42     8     9   ar
    43     9    10   ar
    44    10    11    1
    45    47    38   ar
    46    36    31   ar
    47    10     5   ar
    48    47    41   ar
    49    17    12    1
    50    25    18   ar
    51     3     4    1
    52    40    48    1
    53    29    30    1
@<TRIPOS>MOLECULE
*****
 48 53 0 0 0
SMALL
GASTEIGER

@<TRIPOS>ATOM
      1 O           9.6781   77.5148   26.4853 O.2     1  UNL1       -0.2701
      2 C           8.4260   77.4536   26.6275 C.2     1  UNL1        0.2483
      3 N           7.8334   77.7948   27.8913 N.am    1  UNL1       -0.2945
      4 H           6.8053   77.9787   27.9185 H       1  UNL1        0.1501
      5 C           7.5844   77.0618   25.4743 C.ar    1  UNL1        0.0808
      6 C           8.1312   77.0724   24.1810 C.ar    1  UNL1        0.0080
      7 C           7.3549   76.7093   23.0778 C.ar    1  UNL1        0.0148
      8 C           6.0153   76.3180   23.2439 C.ar    1  UNL1        0.0502
      9 C           5.4750   76.2859   24.5408 C.ar    1  UNL1        0.0443
     10 C           6.2489   76.6509   25.6470 C.ar    1  UNL1        0.1457
     11 F           5.7012   76.5549   26.8852 F       1  UNL1       -0.2040
     12 N           5.2135   75.9357   22.1050 N.pl3   1  UNL1       -0.3040
     13 C           4.9181   74.5104   21.8771 C.3     1  UNL1        0.1122
     14 C           4.3610   74.2739   20.4729 C.3     1  UNL1        0.1122
     15 N           3.2698   75.2204   20.2165 N.pl3   1  UNL1       -0.3040
     16 C           3.4596   76.6493   20.5071 C.3     1  UNL1        0.1122
     17 C           4.8526   76.9356   21.0860 C.3     1  UNL1        0.1122
     18 C           1.9844   74.7524   19.7678 C.ar    1  UNL1        0.0488
     19 C           1.1497   75.5865   19.0073 C.ar    1  UNL1        0.0154
     20 C          -0.1018   75.1340   18.5816 C.ar    1  UNL1        0.0135
     21 C          -0.5379   73.8469   18.9130 C.ar    1  UNL1        0.0683
     22 CL         -2.1195   73.3140   18.3593 Cl      1  UNL1       -0.0814
     23 C           0.2877   73.0070   19.6789 C.ar    1  UNL1        0.0694
     24 CL         -0.2254   71.3854   20.1256 Cl      1  UNL1       -0.0813
     25 C           1.5415   73.4621   20.1035 C.ar    1  UNL1        0.0268
     26 C           8.6366   77.9449   29.1122 C.3     1  UNL1        0.1535
     27 C           8.5947   79.3684   29.6188 C.2     1  UNL1        0.2443
     28 O           7.6005   80.0979   29.3540 O.2     1  UNL1       -0.2730
     29 N           9.6311   79.8407   30.4969 N.am    1  UNL1       -0.2825
     30 H          10.3779   79.1634   30.7727 H       1  UNL1        0.1549
     31 C           9.5554   81.0741   31.2299 C.ar    1  UNL1        0.0535
     32 C           9.0341   81.1251   32.5329 C.ar    1  UNL1        0.0353
     33 C           8.9800   82.3492   33.2045 C.ar    1  UNL1        0.1002
     34 N           9.4170   83.4827   32.5944 N.ar    1  UNL1       -0.2422
     35 C           9.9076   83.4651   31.3269 C.ar    1  UNL1        0.1002
     36 C           9.9748   82.2634   30.6189 C.ar    1  UNL1        0.0353
     37 C           8.1391   76.9645   30.1941 C.3     1  UNL1        0.0569
     38 C           7.5352   75.7251   29.5866 C.ar    1  UNL1       -0.0012
     39 C           8.2906   74.6927   29.0395 C.ar    1  UNL1        0.0681
     40 N           7.5062   73.6453   28.7185 N.ar    1  UNL1       -0.3522
     41 C           6.2574   73.9943   29.0651 C.ar    1  UNL1        0.0568
     42 C           5.1198   73.1985   28.9515 C.ar    1  UNL1        0.0170
     43 C           3.8995   73.7234   29.3979 C.ar    1  UNL1        0.0020
     44 C           3.8380   75.0226   29.9362 C.ar    1  UNL1        0.0068
     45 C           4.9956   75.8173   30.0433 C.ar    1  UNL1        0.0357
     46 BR          4.7886   77.5920   30.7271 Br      1  UNL1       -0.0490
     47 C           6.2160   75.2654   29.6014 C.ar    1  UNL1        0.0193
     48 H           7.8166   72.7358   28.3099 H       1  UNL1        0.1660
@<TRIPOS>BOND
     1     1     2    2
     2     2     3   am
     3     3    26    1
     4    26    37    1
     5    37    38    1
     6    38    39   ar
     7    39    40   ar
     8    40    41   ar
     9    41    42   ar
    10    42    43   ar
    11    43    44   ar
    12    44    45   ar
    13    45    46    1
    14    45    47   ar
    15    26    27    1
    16    27    28    2
    17    27    29   am
    18    29    31    1
    19    31    32   ar
    20    32    33   ar
    21    33    34   ar
    22    34    35   ar
    23    35    36   ar
    24     2     5    1
    25     5     6   ar
    26     6     7   ar
    27     7     8   ar
    28     8    12    1
    29    12    13    1
    30    13    14    1
    31    14    15    1
    32    15    18    1
    33    18    19   ar
    34    19    20   ar
    35    20    21   ar
    36    21    22    1
    37    21    23   ar
    38    23    24    1
    39    23    25   ar
    40    15    16    1
    41    16    17    1
    42     8     9   ar
    43     9    10   ar
    44    10    11    1
    45    47    38   ar
    46    36    31   ar
    47    10     5   ar
    48    47    41   ar
    49    17    12    1
    50    25    18   ar
    51     3     4    1
    52    40    48    1
    53    29    30    1
@<TRIPOS>MOLECULE
*****
 48 53 0 0 0
SMALL
GASTEIGER

@<TRIPOS>ATOM
      1 O          10.2909   74.3467   24.5598 O.2     1  UNL1       -0.2701
      2 C           9.5528   75.3688   24.6073 C.2     1  UNL1        0.2483
      3 N           9.8890   76.4519   25.4899 N.am    1  UNL1       -0.2945
      4 H           9.4216   77.3737   25.3370 H       1  UNL1        0.1501
      5 C           8.3672   75.4478   23.7243 C.ar    1  UNL1        0.0808
      6 C           8.4677   76.0997   22.4846 C.ar    1  UNL1        0.0080
      7 C           7.3613   76.1890   21.6364 C.ar    1  UNL1        0.0148
      8 C           6.1303   75.6197   22.0047 C.ar    1  UNL1        0.0502
      9 C           6.0361   74.9478   23.2354 C.ar    1  UNL1        0.0443
     10 C           7.1413   74.8587   24.0878 C.ar    1  UNL1        0.1457
     11 F           7.0182   74.1558   25.2424 F       1  UNL1       -0.2040
     12 N           4.9874   75.7052   21.1257 N.pl3   1  UNL1       -0.3040
     13 C           4.8346   74.7169   20.0437 C.3     1  UNL1        0.1122
     14 C           3.7772   75.1578   19.0310 C.3     1  UNL1        0.1122
     15 N           2.5548   75.5478   19.7423 N.pl3   1  UNL1       -0.3040
     16 C           2.6391   76.4601   20.8925 C.3     1  UNL1        0.1122
     17 C           4.0882   76.8692   21.1935 C.3     1  UNL1        0.1122
     18 C           1.2836   74.9760   19.3821 C.ar    1  UNL1        0.0488
     19 C           0.2166   75.8019   18.9943 C.ar    1  UNL1        0.0154
     20 C          -1.0194   75.2457   18.6552 C.ar    1  UNL1        0.0135
     21 C          -1.2078   73.8604   18.7032 C.ar    1  UNL1        0.0683
     22 CL         -2.7780   73.1983   18.2695 Cl      1  UNL1       -0.0814
     23 C          -0.1479   73.0261   19.0959 C.ar    1  UNL1        0.0694
     24 CL         -0.3444   71.2806   19.1789 Cl      1  UNL1       -0.0813
     25 C           1.0899   73.5856   19.4344 C.ar    1  UNL1        0.0268
     26 C          10.9000   76.3098   26.5462 C.3     1  UNL1        0.1535
     27 C          12.1052   77.1777   26.2654 C.2     1  UNL1        0.2443
     28 O          12.9060   77.4574   27.1989 O.2     1  UNL1       -0.2730
     29 N          12.3932   77.5780   24.9145 N.am    1  UNL1       -0.2825
     30 H          11.7575   77.2311   24.1608 H       1  UNL1        0.1549
     31 C          13.6331   78.1788   24.5073 C.ar    1  UNL1        0.0535
     32 C          14.5573   77.4886   23.7062 C.ar    1  UNL1        0.0353
     33 C          15.7505   78.1152   23.3374 C.ar    1  UNL1        0.1002
     34 N          16.0184   79.3782   23.7628 N.ar    1  UNL1       -0.2422
     35 C          15.1508   80.0616   24.5552 C.ar    1  UNL1        0.1002
     36 C          13.9492   79.4702   24.9503 C.ar    1  UNL1        0.0353
     37 C          10.2828   76.6574   27.9165 C.3     1  UNL1        0.0569
     38 C           9.3327   75.5868   28.3865 C.ar    1  UNL1       -0.0012
     39 C           9.7226   74.5054   29.1703 C.ar    1  UNL1        0.0681
     40 N           8.6498   73.7987   29.5766 N.ar    1  UNL1       -0.3522
     41 C           7.5766   74.4245   29.0686 C.ar    1  UNL1        0.0568
     42 C           6.2453   74.0654   29.2665 C.ar    1  UNL1        0.0170
     43 C           5.2524   74.8616   28.6799 C.ar    1  UNL1        0.0020
     44 C           5.6047   75.9850   27.9083 C.ar    1  UNL1        0.0068
     45 C           6.9548   76.3355   27.7145 C.ar    1  UNL1        0.0357
     46 BR          7.3245   77.8410   26.5935 Br      1  UNL1       -0.0490
     47 C           7.9381   75.5294   28.3248 C.ar    1  UNL1        0.0193
     48 H           8.6557   72.9524   30.1883 H       1  UNL1        0.1660
@<TRIPOS>BOND
     1     1     2    2
     2     2     3   am
     3     3    26    1
     4    26    37    1
     5    37    38    1
     6    38    39   ar
     7    39    40   ar
     8    40    41   ar
     9    41    42   ar
    10    42    43   ar
    11    43    44   ar
    12    44    45   ar
    13    45    46    1
    14    45    47   ar
    15    26    27    1
    16    27    28    2
    17    27    29   am
    18    29    31    1
    19    31    32   ar
    20    32    33   ar
    21    33    34   ar
    22    34    35   ar
    23    35    36   ar
    24     2     5    1
    25     5     6   ar
    26     6     7   ar
    27     7     8   ar
    28     8    12    1
    29    12    13    1
    30    13    14    1
    31    14    15    1
    32    15    18    1
    33    18    19   ar
    34    19    20   ar
    35    20    21   ar
    36    21    22    1
    37    21    23   ar
    38    23    24    1
    39    23    25   ar
    40    15    16    1
    41    16    17    1
    42     8     9   ar
    43     9    10   ar
    44    10    11    1
    45    47    38   ar
    46    36    31   ar
    47    10     5   ar
    48    47    41   ar
    49    17    12    1
    50    25    18   ar
    51     3     4    1
    52    40    48    1
    53    29    30    1
@<TRIPOS>MOLECULE
*****
 48 53 0 0 0
SMALL
GASTEIGER

@<TRIPOS>ATOM
      1 O          10.4042   74.6049   25.0135 O.2     1  UNL1       -0.2701
      2 C           9.6811   75.6356   24.9338 C.2     1  UNL1        0.2483
      3 N           9.9936   76.7904   25.7299 N.am    1  UNL1       -0.2945
      4 H           9.5485   77.6999   25.4727 H       1  UNL1        0.1501
      5 C           8.5386   75.6480   23.9923 C.ar    1  UNL1        0.0808
      6 C           8.6666   76.2988   22.7547 C.ar    1  UNL1        0.0080
      7 C           7.6009   76.3257   21.8519 C.ar    1  UNL1        0.0148
      8 C           6.3847   75.6937   22.1625 C.ar    1  UNL1        0.0502
      9 C           6.2645   75.0232   23.3916 C.ar    1  UNL1        0.0443
     10 C           7.3287   74.9964   24.2986 C.ar    1  UNL1        0.1457
     11 F           7.1852   74.2931   25.4505 F       1  UNL1       -0.2040
     12 N           5.2843   75.7148   21.2271 N.pl3   1  UNL1       -0.3040
     13 C           5.1060   74.5851   20.2982 C.3     1  UNL1        0.1122
     14 C           4.1200   74.9313   19.1820 C.3     1  UNL1        0.1122
     15 N           2.9007   75.4987   19.7683 N.pl3   1  UNL1       -0.3040
     16 C           3.0030   76.5680   20.7726 C.3     1  UNL1        0.1122
     17 C           4.4640   76.9285   21.0780 C.3     1  UNL1        0.1122
     18 C           1.6082   74.9578   19.4371 C.ar    1  UNL1        0.0488
     19 C           0.6115   75.7815   18.8905 C.ar    1  UNL1        0.0154
     20 C          -0.6456   75.2570   18.5794 C.ar    1  UNL1        0.0135
     21 C          -0.9254   73.9066   18.8141 C.ar    1  UNL1        0.0683
     22 CL         -2.5194   73.2839   18.4100 Cl      1  UNL1       -0.0814
     23 C           0.0636   73.0758   19.3666 C.ar    1  UNL1        0.0694
     24 CL         -0.2491   71.3752   19.6864 Cl      1  UNL1       -0.0813
     25 C           1.3226   73.6033   19.6766 C.ar    1  UNL1        0.0268
     26 C          10.9527   76.7331   26.8412 C.3     1  UNL1        0.1535
     27 C          12.2646   77.3805   26.4610 C.2     1  UNL1        0.2443
     28 O          13.2465   77.3149   27.2499 O.2     1  UNL1       -0.2730
     29 N          12.4178   77.9614   25.1544 N.am    1  UNL1       -0.2825
     30 H          11.6074   77.8957   24.4973 H       1  UNL1        0.1549
     31 C          13.6813   78.3686   24.6052 C.ar    1  UNL1        0.0535
     32 C          14.4247   77.5246   23.7642 C.ar    1  UNL1        0.0353
     33 C          15.6493   77.9654   23.2559 C.ar    1  UNL1        0.1002
     34 N          16.1217   79.1968   23.5850 N.ar    1  UNL1       -0.2422
     35 C          15.4325   80.0260   24.4126 C.ar    1  UNL1        0.1002
     36 C          14.2067   79.6223   24.9458 C.ar    1  UNL1        0.0353
     37 C          10.3517   77.4080   28.0913 C.3     1  UNL1        0.0569
     38 C           8.8510   77.5068   28.0030 C.ar    1  UNL1       -0.0012
     39 C           8.1840   78.6151   27.4905 C.ar    1  UNL1        0.0681
     40 N           6.8637   78.3697   27.3814 N.ar    1  UNL1       -0.3522
     41 C           6.6816   77.1107   27.8096 C.ar    1  UNL1        0.0568
     42 C           5.4735   76.4178   27.8358 C.ar    1  UNL1        0.0170
     43 C           5.4827   75.0915   28.2882 C.ar    1  UNL1        0.0020
     44 C           6.6844   74.4914   28.7090 C.ar    1  UNL1        0.0068
     45 C           7.8986   75.2041   28.6792 C.ar    1  UNL1        0.0357
     46 BR          9.4606   74.3161   29.3361 Br      1  UNL1       -0.0490
     47 C           7.8703   76.5329   28.2074 C.ar    1  UNL1        0.0193
     48 H           6.1369   79.0209   27.0099 H       1  UNL1        0.1660
@<TRIPOS>BOND
     1     1     2    2
     2     2     3   am
     3     3    26    1
     4    26    37    1
     5    37    38    1
     6    38    39   ar
     7    39    40   ar
     8    40    41   ar
     9    41    42   ar
    10    42    43   ar
    11    43    44   ar
    12    44    45   ar
    13    45    46    1
    14    45    47   ar
    15    26    27    1
    16    27    28    2
    17    27    29   am
    18    29    31    1
    19    31    32   ar
    20    32    33   ar
    21    33    34   ar
    22    34    35   ar
    23    35    36   ar
    24     2     5    1
    25     5     6   ar
    26     6     7   ar
    27     7     8   ar
    28     8    12    1
    29    12    13    1
    30    13    14    1
    31    14    15    1
    32    15    18    1
    33    18    19   ar
    34    19    20   ar
    35    20    21   ar
    36    21    22    1
    37    21    23   ar
    38    23    24    1
    39    23    25   ar
    40    15    16    1
    41    16    17    1
    42     8     9   ar
    43     9    10   ar
    44    10    11    1
    45    47    38   ar
    46    36    31   ar
    47    10     5   ar
    48    47    41   ar
    49    17    12    1
    50    25    18   ar
    51     3     4    1
    52    40    48    1
    53    29    30    1
@<TRIPOS>MOLECULE
*****
 48 53 0 0 0
SMALL
GASTEIGER

@<TRIPOS>ATOM
      1 O           8.1647   78.2285   26.5792 O.2     1  UNL1       -0.2701
      2 C           8.0140   77.0475   26.1619 C.2     1  UNL1        0.2483
      3 N           8.7034   75.9671   26.8119 N.am    1  UNL1       -0.2945
      4 H           8.3802   74.9921   26.6211 H       1  UNL1        0.1501
      5 C           7.0994   76.7916   25.0263 C.ar    1  UNL1        0.0808
      6 C           7.6200   76.6851   23.7266 C.ar    1  UNL1        0.0080
      7 C           6.7755   76.4468   22.6396 C.ar    1  UNL1        0.0148
      8 C           5.3906   76.3002   22.8289 C.ar    1  UNL1        0.0502
      9 C           4.8727   76.3844   24.1325 C.ar    1  UNL1        0.0443
     10 C           5.7152   76.6250   25.2225 C.ar    1  UNL1        0.1457
     11 F           5.1778   76.6467   26.4687 F       1  UNL1       -0.2040
     12 N           4.5171   76.0469   21.7068 N.pl3   1  UNL1       -0.3040
     13 C           4.3469   74.6656   21.2231 C.3     1  UNL1        0.1122
     14 C           3.6727   74.6344   19.8511 C.3     1  UNL1        0.1122
     15 N           2.4694   75.4732   19.8809 N.pl3   1  UNL1       -0.3040
     16 C           2.5414   76.8333   20.4353 C.3     1  UNL1        0.1122
     17 C           3.9508   77.1708   20.9424 C.3     1  UNL1        0.1122
     18 C           1.1987   74.9469   19.4555 C.ar    1  UNL1        0.0488
     19 C           0.1356   75.8126   19.1532 C.ar    1  UNL1        0.0154
     20 C          -1.0999   75.2994   18.7505 C.ar    1  UNL1        0.0135
     21 C          -1.2918   73.9174   18.6492 C.ar    1  UNL1        0.0683
     22 CL         -2.8614   73.3101   18.1397 Cl      1  UNL1       -0.0814
     23 C          -0.2358   73.0429   18.9555 C.ar    1  UNL1        0.0694
     24 CL         -0.4369   71.2992   18.8505 Cl      1  UNL1       -0.0813
     25 C           1.0015   73.5594   19.3579 C.ar    1  UNL1        0.0268
     26 C           9.7950   76.2029   27.7664 C.3     1  UNL1        0.1535
     27 C          10.6286   77.3949   27.3554 C.2     1  UNL1        0.2443
     28 O          11.0443   78.2001   28.2326 O.2     1  UNL1       -0.2730
     29 N          11.0402   77.5352   25.9846 N.am    1  UNL1       -0.2825
     30 H          10.7586   76.7833   25.3152 H       1  UNL1        0.1549
     31 C          12.0308   78.4765   25.5411 C.ar    1  UNL1        0.0535
     32 C          13.3889   78.1297   25.4542 C.ar    1  UNL1        0.0353
     33 C          14.3150   79.0810   25.0186 C.ar    1  UNL1        0.1002
     34 N          13.9041   80.3356   24.6946 N.ar    1  UNL1       -0.2422
     35 C          12.5991   80.7039   24.7885 C.ar    1  UNL1        0.1002
     36 C          11.6421   79.7849   25.2239 C.ar    1  UNL1        0.0353
     37 C           9.2215   76.3994   29.1848 C.3     1  UNL1        0.0569
     38 C           7.8625   75.7652   29.3283 C.ar    1  UNL1       -0.0012
     39 C           7.6620   74.3906   29.4076 C.ar    1  UNL1        0.0681
     40 N           6.3752   74.1114   29.6933 N.ar    1  UNL1       -0.3522
     41 C           5.7531   75.2952   29.8079 C.ar    1  UNL1        0.0568
     42 C           4.4141   75.4918   30.1379 C.ar    1  UNL1        0.0170
     43 C           3.9467   76.8086   30.2439 C.ar    1  UNL1        0.0020
     44 C           4.8144   77.8926   30.0129 C.ar    1  UNL1        0.0068
     45 C           6.1656   77.6796   29.6779 C.ar    1  UNL1        0.0357
     46 BR          7.2404   79.2209   29.3191 Br      1  UNL1       -0.0490
     47 C           6.6196   76.3471   29.5900 C.ar    1  UNL1        0.0193
     48 H           5.9575   73.1637   29.8270 H       1  UNL1        0.1660
@<TRIPOS>BOND
     1     1     2    2
     2     2     3   am
     3     3    26    1
     4    26    37    1
     5    37    38    1
     6    38    39   ar
     7    39    40   ar
     8    40    41   ar
     9    41    42   ar
    10    42    43   ar
    11    43    44   ar
    12    44    45   ar
    13    45    46    1
    14    45    47   ar
    15    26    27    1
    16    27    28    2
    17    27    29   am
    18    29    31    1
    19    31    32   ar
    20    32    33   ar
    21    33    34   ar
    22    34    35   ar
    23    35    36   ar
    24     2     5    1
    25     5     6   ar
    26     6     7   ar
    27     7     8   ar
    28     8    12    1
    29    12    13    1
    30    13    14    1
    31    14    15    1
    32    15    18    1
    33    18    19   ar
    34    19    20   ar
    35    20    21   ar
    36    21    22    1
    37    21    23   ar
    38    23    24    1
    39    23    25   ar
    40    15    16    1
    41    16    17    1
    42     8     9   ar
    43     9    10   ar
    44    10    11    1
    45    47    38   ar
    46    36    31   ar
    47    10     5   ar
    48    47    41   ar
    49    17    12    1
    50    25    18   ar
    51     3     4    1
    52    40    48    1
    53    29    30    1
@<TRIPOS>MOLECULE
*****
 48 53 0 0 0
SMALL
GASTEIGER

@<TRIPOS>ATOM
      1 O          10.5078   74.7517   24.6783 O.2     1  UNL1       -0.2701
      2 C           9.6764   75.6952   24.7797 C.2     1  UNL1        0.2483
      3 N           9.8762   76.7199   25.7672 N.am    1  UNL1       -0.2945
      4 H           9.3311   77.6062   25.6731 H       1  UNL1        0.1501
      5 C           8.5231   75.7471   23.8530 C.ar    1  UNL1        0.0808
      6 C           7.3885   74.9616   24.1127 C.ar    1  UNL1        0.0080
      7 C           6.2897   74.9925   23.2506 C.ar    1  UNL1        0.0148
      8 C           6.2967   75.8173   22.1128 C.ar    1  UNL1        0.0502
      9 C           7.4232   76.6202   21.8653 C.ar    1  UNL1        0.0443
     10 C           8.5256   76.5900   22.7253 C.ar    1  UNL1        0.1457
     11 F           9.5696   77.4206   22.4753 F       1  UNL1       -0.2040
     12 N           5.1586   75.8554   21.2242 N.pl3   1  UNL1       -0.3040
     13 C           5.0480   74.8518   20.1512 C.3     1  UNL1        0.1122
     14 C           3.9844   75.2466   19.1260 C.3     1  UNL1        0.1122
     15 N           2.7438   75.6020   19.8239 N.pl3   1  UNL1       -0.3040
     16 C           2.7881   76.5280   20.9653 C.3     1  UNL1        0.1122
     17 C           4.2201   76.9889   21.2732 C.3     1  UNL1        0.1122
     18 C           1.4956   74.9840   19.4599 C.ar    1  UNL1        0.0488
     19 C           0.4882   75.7325   18.8308 C.ar    1  UNL1        0.0154
     20 C          -0.7265   75.1334   18.4877 C.ar    1  UNL1        0.0135
     21 C          -0.9531   73.7826   18.7721 C.ar    1  UNL1        0.0683
     22 CL         -2.4949   73.0647   18.3253 Cl      1  UNL1       -0.0814
     23 C           0.0465   73.0268   19.4070 C.ar    1  UNL1        0.0694
     24 CL         -0.2004   71.3286   19.7910 Cl      1  UNL1       -0.0813
     25 C           1.2631   73.6290   19.7489 C.ar    1  UNL1        0.0268
     26 C          10.8551   76.5741   26.8528 C.3     1  UNL1        0.1535
     27 C          12.1513   77.2738   26.5137 C.2     1  UNL1        0.2443
     28 O          13.1211   77.2188   27.3181 O.2     1  UNL1       -0.2730
     29 N          12.3076   77.8946   25.2259 N.am    1  UNL1       -0.2825
     30 H          11.5113   77.8205   24.5528 H       1  UNL1        0.1549
     31 C          13.5663   78.3574   24.7106 C.ar    1  UNL1        0.0535
     32 C          14.0477   79.6464   24.9920 C.ar    1  UNL1        0.0353
     33 C          15.2773   80.0512   24.4662 C.ar    1  UNL1        0.1002
     34 N          15.9942   79.2070   23.6779 N.ar    1  UNL1       -0.2422
     35 C          15.5426   77.9617   23.3734 C.ar    1  UNL1        0.1002
     36 C          14.3166   77.5196   23.8747 C.ar    1  UNL1        0.0353
     37 C          10.2667   77.1207   28.1698 C.3     1  UNL1        0.0569
     38 C           9.1999   76.2116   28.7222 C.ar    1  UNL1       -0.0012
     39 C           9.2103   74.8298   28.5601 C.ar    1  UNL1        0.0681
     40 N           8.2326   74.2562   29.2886 N.ar    1  UNL1       -0.3522
     41 C           7.6038   75.2578   29.9234 C.ar    1  UNL1        0.0568
     42 C           6.5476   75.1268   30.8221 C.ar    1  UNL1        0.0170
     43 C           6.0369   76.2894   31.4148 C.ar    1  UNL1        0.0020
     44 C           6.5800   77.5483   31.0959 C.ar    1  UNL1        0.0068
     45 C           7.6465   77.6666   30.1839 C.ar    1  UNL1        0.0357
     46 BR          8.2643   79.4294   29.7708 Br      1  UNL1       -0.0490
     47 C           8.1552   76.4834   29.6092 C.ar    1  UNL1        0.0193
     48 H           8.0284   73.2349   29.3639 H       1  UNL1        0.1660
@<TRIPOS>BOND
     1     1     2    2
     2     2     3   am
     3     3    26    1
     4    26    37    1
     5    37    38    1
     6    38    39   ar
     7    39    40   ar
     8    40    41   ar
     9    41    42   ar
    10    42    43   ar
    11    43    44   ar
    12    44    45   ar
    13    45    46    1
    14    45    47   ar
    15    26    27    1
    16    27    28    2
    17    27    29   am
    18    29    31    1
    19    31    32   ar
    20    32    33   ar
    21    33    34   ar
    22    34    35   ar
    23    35    36   ar
    24     2     5    1
    25     5     6   ar
    26     6     7   ar
    27     7     8   ar
    28     8    12    1
    29    12    13    1
    30    13    14    1
    31    14    15    1
    32    15    18    1
    33    18    19   ar
    34    19    20   ar
    35    20    21   ar
    36    21    22    1
    37    21    23   ar
    38    23    24    1
    39    23    25   ar
    40    15    16    1
    41    16    17    1
    42     8     9   ar
    43     9    10   ar
    44    10    11    1
    45    47    38   ar
    46    36    31   ar
    47    10     5   ar
    48    47    41   ar
    49    17    12    1
    50    25    18   ar
    51     3     4    1
    52    40    48    1
    53    29    30    1
@<TRIPOS>MOLECULE
*****
 48 53 0 0 0
SMALL
GASTEIGER

@<TRIPOS>ATOM
      1 O          14.2913   82.6851   25.9997 O.2     1  UNL1       -0.2701
      2 C          13.5121   82.4469   25.0365 C.2     1  UNL1        0.2483
      3 N          13.5791   83.2519   23.8480 N.am    1  UNL1       -0.2945
      4 H          13.1144   82.8926   22.9840 H       1  UNL1        0.1501
      5 C          12.5617   81.3162   25.1360 C.ar    1  UNL1        0.0808
      6 C          11.2082   81.5697   25.4110 C.ar    1  UNL1        0.0080
      7 C          10.2942   80.5181   25.5123 C.ar    1  UNL1        0.0148
      8 C          10.7114   79.1883   25.3316 C.ar    1  UNL1        0.0502
      9 C          12.0615   78.9366   25.0342 C.ar    1  UNL1        0.0443
     10 C          12.9795   79.9869   24.9343 C.ar    1  UNL1        0.1457
     11 F          14.2620   79.7009   24.5942 F       1  UNL1       -0.2040
     12 N           9.7660   78.1006   25.4292 N.pl3   1  UNL1       -0.3040
     13 C          10.1448   76.8799   26.1622 C.3     1  UNL1        0.1122
     14 C           9.1741   75.7338   25.8759 C.3     1  UNL1        0.1122
     15 N           7.7967   76.2065   26.0541 N.pl3   1  UNL1       -0.3040
     16 C           7.3708   77.4668   25.4274 C.3     1  UNL1        0.1122
     17 C           8.5153   78.1363   24.6530 C.3     1  UNL1        0.1122
     18 C           6.8830   75.4956   26.9098 C.ar    1  UNL1        0.0488
     19 C           6.7039   74.1108   26.7645 C.ar    1  UNL1        0.0154
     20 C           5.8089   73.4244   27.5892 C.ar    1  UNL1        0.0135
     21 C           5.0786   74.1110   28.5649 C.ar    1  UNL1        0.0683
     22 CL          3.9615   73.2122   29.5830 Cl      1  UNL1       -0.0814
     23 C           5.2464   75.4978   28.7139 C.ar    1  UNL1        0.0694
     24 CL          4.3416   76.4010   29.9212 Cl      1  UNL1       -0.0813
     25 C           6.1443   76.1832   27.8871 C.ar    1  UNL1        0.0268
     26 C          14.3227   84.5182   23.8067 C.3     1  UNL1        0.1535
     27 C          14.7261   84.8659   22.3921 C.2     1  UNL1        0.2443
     28 O          15.8291   84.4567   21.9374 O.2     1  UNL1       -0.2730
     29 N          13.7983   85.5578   21.5385 N.am    1  UNL1       -0.2825
     30 H          12.8549   85.7813   21.9294 H       1  UNL1        0.1549
     31 C          13.9781   85.7091   20.1212 C.ar    1  UNL1        0.0535
     32 C          13.7668   86.9405   19.4797 C.ar    1  UNL1        0.0353
     33 C          13.9531   87.0372   18.0984 C.ar    1  UNL1        0.1002
     34 N          14.3233   85.9434   17.3810 N.ar    1  UNL1       -0.2422
     35 C          14.5151   84.7351   17.9733 C.ar    1  UNL1        0.1002
     36 C          14.3350   84.5943   19.3508 C.ar    1  UNL1        0.0353
     37 C          13.4749   85.6477   24.4270 C.3     1  UNL1        0.0569
     38 C          14.3000   86.8792   24.6959 C.ar    1  UNL1       -0.0012
     39 C          14.6037   87.8265   23.7230 C.ar    1  UNL1        0.0681
     40 N          15.2118   88.8964   24.2717 N.ar    1  UNL1       -0.3522
     41 C          15.2902   88.6466   25.5881 C.ar    1  UNL1        0.0568
     42 C          15.8113   89.5007   26.5574 C.ar    1  UNL1        0.0170
     43 C          15.7790   89.0805   27.8939 C.ar    1  UNL1        0.0020
     44 C          15.2399   87.8250   28.2324 C.ar    1  UNL1        0.0068
     45 C          14.7183   86.9705   27.2421 C.ar    1  UNL1        0.0357
     46 BR         14.0716   85.2596   27.8029 Br      1  UNL1       -0.0490
     47 C          14.7474   87.4179   25.9049 C.ar    1  UNL1        0.0193
     48 H          15.5294   89.7571   23.7729 H       1  UNL1        0.1660
@<TRIPOS>BOND
     1     1     2    2
     2     2     3   am
     3     3    26    1
     4    26    37    1
     5    37    38    1
     6    38    39   ar
     7    39    40   ar
     8    40    41   ar
     9    41    42   ar
    10    42    43   ar
    11    43    44   ar
    12    44    45   ar
    13    45    46    1
    14    45    47   ar
    15    26    27    1
    16    27    28    2
    17    27    29   am
    18    29    31    1
    19    31    32   ar
    20    32    33   ar
    21    33    34   ar
    22    34    35   ar
    23    35    36   ar
    24     2     5    1
    25     5     6   ar
    26     6     7   ar
    27     7     8   ar
    28     8    12    1
    29    12    13    1
    30    13    14    1
    31    14    15    1
    32    15    18    1
    33    18    19   ar
    34    19    20   ar
    35    20    21   ar
    36    21    22    1
    37    21    23   ar
    38    23    24    1
    39    23    25   ar
    40    15    16    1
    41    16    17    1
    42     8     9   ar
    43     9    10   ar
    44    10    11    1
    45    47    38   ar
    46    36    31   ar
    47    10     5   ar
    48    47    41   ar
    49    17    12    1
    50    25    18   ar
    51     3     4    1
    52    40    48    1
    53    29    30    1
@<TRIPOS>MOLECULE
*****
 48 53 0 0 0
SMALL
GASTEIGER

@<TRIPOS>ATOM
      1 O          12.0845   77.6007   26.0770 O.2     1  UNL1       -0.2701
      2 C          11.3819   78.4558   25.4714 C.2     1  UNL1        0.2483
      3 N          10.0625   78.1066   25.0216 N.am    1  UNL1       -0.2945
      4 H           9.4137   78.8803   24.7536 H       1  UNL1        0.1501
      5 C          11.9195   79.8195   25.2641 C.ar    1  UNL1        0.0808
      6 C          11.0452   80.9182   25.2701 C.ar    1  UNL1        0.0080
      7 C          11.5297   82.2136   25.0737 C.ar    1  UNL1        0.0148
      8 C          12.9024   82.4411   24.8758 C.ar    1  UNL1        0.0502
      9 C          13.7800   81.3437   24.8923 C.ar    1  UNL1        0.0443
     10 C          13.2978   80.0454   25.0865 C.ar    1  UNL1        0.1457
     11 F          14.1877   79.0223   25.1466 F       1  UNL1       -0.2040
     12 N          13.4057   83.7807   24.6794 N.pl3   1  UNL1       -0.3040
     13 C          14.1500   84.4379   25.7679 C.3     1  UNL1        0.1122
     14 C          14.3036   85.9376   25.5122 C.3     1  UNL1        0.1122
     15 N          14.8065   86.1501   24.1505 N.pl3   1  UNL1       -0.3040
     16 C          14.1715   85.4547   23.0211 C.3     1  UNL1        0.1122
     17 C          13.0224   84.5462   23.4814 C.3     1  UNL1        0.1122
     18 C          15.9720   86.9627   23.9184 C.ar    1  UNL1        0.0488
     19 C          16.3816   87.2614   22.6093 C.ar    1  UNL1        0.0154
     20 C          17.5190   88.0414   22.3861 C.ar    1  UNL1        0.0135
     21 C          18.2642   88.5288   23.4650 C.ar    1  UNL1        0.0683
     22 CL         19.6899   89.5066   23.1435 Cl      1  UNL1       -0.0814
     23 C          17.8659   88.2301   24.7787 C.ar    1  UNL1        0.0694
     24 CL         18.7789   88.8146   26.1632 Cl      1  UNL1       -0.0813
     25 C          16.7254   87.4491   24.9998 C.ar    1  UNL1        0.0268
     26 C           9.5954   76.7142   24.9867 C.3     1  UNL1        0.1535
     27 C           8.5191   76.4758   26.0208 C.2     1  UNL1        0.2443
     28 O           7.4856   77.1987   26.0264 O.2     1  UNL1       -0.2730
     29 N           8.6269   75.3527   26.9125 N.am    1  UNL1       -0.2825
     30 H           9.4511   74.7202   26.7971 H       1  UNL1        0.1549
     31 C           7.5535   74.8918   27.7489 C.ar    1  UNL1        0.0535
     32 C           6.4254   74.2503   27.2121 C.ar    1  UNL1        0.0353
     33 C           5.4066   73.8214   28.0667 C.ar    1  UNL1        0.1002
     34 N           5.5027   74.0363   29.4056 N.ar    1  UNL1       -0.2422
     35 C           6.5738   74.6722   29.9494 C.ar    1  UNL1        0.1002
     36 C           7.6117   75.1208   29.1302 C.ar    1  UNL1        0.0353
     37 C           9.0836   76.3654   23.5740 C.3     1  UNL1        0.0569
     38 C          10.1035   75.5804   22.7908 C.ar    1  UNL1       -0.0012
     39 C          11.3079   76.1166   22.3461 C.ar    1  UNL1        0.0681
     40 N          12.0923   75.1564   21.8187 N.ar    1  UNL1       -0.3522
     41 C          11.4049   74.0092   21.9316 C.ar    1  UNL1        0.0568
     42 C          11.8480   72.7444   21.5517 C.ar    1  UNL1        0.0170
     43 C          10.9996   71.6521   21.7777 C.ar    1  UNL1        0.0020
     44 C           9.7349   71.8429   22.3654 C.ar    1  UNL1        0.0068
     45 C           9.2985   73.1275   22.7429 C.ar    1  UNL1        0.0357
     46 BR          7.5363   73.2834   23.4710 Br      1  UNL1       -0.0490
     47 C          10.1728   74.2115   22.5197 C.ar    1  UNL1        0.0193
     48 H          13.0531   75.2804   21.4289 H       1  UNL1        0.1660
@<TRIPOS>BOND
     1     1     2    2
     2     2     3   am
     3     3    26    1
     4    26    37    1
     5    37    38    1
     6    38    39   ar
     7    39    40   ar
     8    40    41   ar
     9    41    42   ar
    10    42    43   ar
    11    43    44   ar
    12    44    45   ar
    13    45    46    1
    14    45    47   ar
    15    26    27    1
    16    27    28    2
    17    27    29   am
    18    29    31    1
    19    31    32   ar
    20    32    33   ar
    21    33    34   ar
    22    34    35   ar
    23    35    36   ar
    24     2     5    1
    25     5     6   ar
    26     6     7   ar
    27     7     8   ar
    28     8    12    1
    29    12    13    1
    30    13    14    1
    31    14    15    1
    32    15    18    1
    33    18    19   ar
    34    19    20   ar
    35    20    21   ar
    36    21    22    1
    37    21    23   ar
    38    23    24    1
    39    23    25   ar
    40    15    16    1
    41    16    17    1
    42     8     9   ar
    43     9    10   ar
    44    10    11    1
    45    47    38   ar
    46    36    31   ar
    47    10     5   ar
    48    47    41   ar
    49    17    12    1
    50    25    18   ar
    51     3     4    1
    52    40    48    1
    53    29    30    1
@<TRIPOS>MOLECULE
*****
 48 53 0 0 0
SMALL
GASTEIGER

@<TRIPOS>ATOM
      1 O           8.9790   76.6926   24.7440 O.2     1  UNL1       -0.2701
      2 C           9.0107   77.7079   23.9958 C.2     1  UNL1        0.2483
      3 N           8.0888   77.8155   22.8987 N.am    1  UNL1       -0.2945
      4 H           7.9614   78.7521   22.4538 H       1  UNL1        0.1501
      5 C           9.9793   78.7899   24.2836 C.ar    1  UNL1        0.0808
      6 C           9.5757   80.1302   24.1716 C.ar    1  UNL1        0.0080
      7 C          10.4734   81.1675   24.4355 C.ar    1  UNL1        0.0148
      8 C          11.7940   80.8879   24.8267 C.ar    1  UNL1        0.0502
      9 C          12.1911   79.5466   24.9605 C.ar    1  UNL1        0.0443
     10 C          11.2955   78.5058   24.6950 C.ar    1  UNL1        0.1457
     11 F          11.7075   77.2270   24.8875 F       1  UNL1       -0.2040
     12 N          12.7212   81.9595   25.1065 N.pl3   1  UNL1       -0.3040
     13 C          12.5814   83.2393   24.3900 C.3     1  UNL1        0.1122
     14 C          13.8251   84.1124   24.5603 C.3     1  UNL1        0.1122
     15 N          14.1738   84.1906   25.9832 N.pl3   1  UNL1       -0.3040
     16 C          14.2424   82.9608   26.7865 C.3     1  UNL1        0.1122
     17 C          13.8983   81.7153   25.9569 C.3     1  UNL1        0.1122
     18 C          14.3618   85.4667   26.6224 C.ar    1  UNL1        0.0488
     19 C          14.3998   85.5621   28.0225 C.ar    1  UNL1        0.0154
     20 C          14.5718   86.8031   28.6411 C.ar    1  UNL1        0.0135
     21 C          14.7031   87.9638   27.8715 C.ar    1  UNL1        0.0683
     22 CL         14.9175   89.5071   28.6868 Cl      1  UNL1       -0.0814
     23 C          14.6602   87.8794   26.4699 C.ar    1  UNL1        0.0694
     24 CL         14.8119   89.3146   25.4652 Cl      1  UNL1       -0.0813
     25 C          14.4887   86.6349   25.8523 C.ar    1  UNL1        0.0268
     26 C           7.2931   76.6706   22.4359 C.3     1  UNL1        0.1535
     27 C           5.9432   77.1182   21.9240 C.2     1  UNL1        0.2443
     28 O           5.7796   77.3282   20.6912 O.2     1  UNL1       -0.2730
     29 N           4.8271   77.1858   22.8285 N.am    1  UNL1       -0.2825
     30 H           4.9897   76.8987   23.8203 H       1  UNL1        0.1549
     31 C           3.4644   77.3492   22.4038 C.ar    1  UNL1        0.0535
     32 C           2.6256   78.3182   22.9781 C.ar    1  UNL1        0.0353
     33 C           1.3069   78.4376   22.5322 C.ar    1  UNL1        0.1002
     34 N           0.8377   77.6124   21.5591 N.ar    1  UNL1       -0.2422
     35 C           1.6217   76.6530   21.0001 C.ar    1  UNL1        0.1002
     36 C           2.9442   76.4973   21.4203 C.ar    1  UNL1        0.0353
     37 C           8.0639   75.9000   21.3444 C.3     1  UNL1        0.0569
     38 C           8.3779   74.4908   21.7748 C.ar    1  UNL1       -0.0012
     39 C           7.4163   73.4920   21.8915 C.ar    1  UNL1        0.0681
     40 N           7.9938   72.2990   22.1339 N.ar    1  UNL1       -0.3522
     41 C           9.3167   72.5239   22.1628 C.ar    1  UNL1        0.0568
     42 C          10.3100   71.5643   22.3442 C.ar    1  UNL1        0.0170
     43 C          11.6468   71.9835   22.3119 C.ar    1  UNL1        0.0020
     44 C          11.9626   73.3402   22.1091 C.ar    1  UNL1        0.0068
     45 C          10.9483   74.3003   21.9291 C.ar    1  UNL1        0.0357
     46 BR         11.4851   76.1256   21.7284 Br      1  UNL1       -0.0490
     47 C           9.6099   73.8559   21.9510 C.ar    1  UNL1        0.0193
     48 H           7.5072   71.3819   22.2462 H       1  UNL1        0.1660
@<TRIPOS>BOND
     1     1     2    2
     2     2     3   am
     3     3    26    1
     4    26    37    1
     5    37    38    1
     6    38    39   ar
     7    39    40   ar
     8    40    41   ar
     9    41    42   ar
    10    42    43   ar
    11    43    44   ar
    12    44    45   ar
    13    45    46    1
    14    45    47   ar
    15    26    27    1
    16    27    28    2
    17    27    29   am
    18    29    31    1
    19    31    32   ar
    20    32    33   ar
    21    33    34   ar
    22    34    35   ar
    23    35    36   ar
    24     2     5    1
    25     5     6   ar
    26     6     7   ar
    27     7     8   ar
    28     8    12    1
    29    12    13    1
    30    13    14    1
    31    14    15    1
    32    15    18    1
    33    18    19   ar
    34    19    20   ar
    35    20    21   ar
    36    21    22    1
    37    21    23   ar
    38    23    24    1
    39    23    25   ar
    40    15    16    1
    41    16    17    1
    42     8     9   ar
    43     9    10   ar
    44    10    11    1
    45    47    38   ar
    46    36    31   ar
    47    10     5   ar
    48    47    41   ar
    49    17    12    1
    50    25    18   ar
    51     3     4    1
    52    40    48    1
    53    29    30    1
