@<TRIPOS>MOLECULE
*****
 47 52 0 0 0
SMALL
GASTEIGER

@<TRIPOS>ATOM
      1 C          59.9843   89.6808    5.7903 C.ar    1  UNL1        0.0702
      2 C          58.6928   90.1358    5.5035 C.ar    1  UNL1        0.0191
      3 C          58.4341   90.8210    4.3154 C.ar    1  UNL1        0.0356
      4 C          59.4833   91.0695    3.4112 C.ar    1  UNL1        0.1318
      5 N          60.7368   90.6382    3.7286 N.ar    1  UNL1       -0.2279
      6 C          61.0112   89.9660    4.8773 C.ar    1  UNL1        0.1149
      7 N          59.2562   91.7682    2.1638 N.pl3   1  UNL1       -0.2932
      8 C          59.5166   93.2129    2.0554 C.3     1  UNL1        0.0923
      9 C          60.4590   93.5192    0.8784 C.3     1  UNL1        0.0252
     10 C          60.2700   92.5613   -0.3270 C.3     1  UNL1        0.0472
     11 C          58.8897   91.8789   -0.3012 C.3     1  UNL1        0.0252
     12 C          58.7384   91.0513    0.9840 C.3     1  UNL1        0.0923
     13 C          60.5349   93.2468   -1.6822 C.3     1  UNL1        0.2054
     14 O          61.9304   93.2748   -1.9990 O.3     1  UNL1       -0.4755
     15 C          62.9795   92.6953   -1.2644 C.ar    1  UNL1        0.1388
     16 C          63.9556   91.8562   -1.8364 C.ar    1  UNL1        0.0369
     17 C          64.9734   91.3218   -1.0442 C.ar    1  UNL1        0.0033
     18 C          65.0336   91.6130    0.3198 C.ar    1  UNL1        0.0066
     19 C          64.0678   92.4447    0.9116 C.ar    1  UNL1        0.0785
     20 C          63.0525   92.9885    0.1035 C.ar    1  UNL1        0.0433
     21 C          64.1184   92.7712    2.3579 C.2     1  UNL1        0.3381
     22 O          64.7323   93.8011    2.7449 O.2     1  UNL1       -0.2451
     23 O          63.4887   91.9746    3.3136 O.3     1  UNL1       -0.4771
     24 H          62.8941   91.1941    3.0675 H       1  UNL1        0.2954
     25 C          59.9717   87.6016    7.2471 C.2     1  UNL1        0.2839
     26 O          59.2564   86.9578    6.4330 O.2     1  UNL1       -0.2665
     27 N          60.2396   88.9963    7.0290 N.am    1  UNL1       -0.2766
     28 H          60.5602   89.5672    7.8437 H       1  UNL1        0.1553
     29 C          60.2317   84.4450    7.7390 C.3     1  UNL1        0.0345
     30 C          60.6190   85.5556    8.6685 C.ar    1  UNL1        0.0202
     31 C          60.5030   86.9330    8.4500 C.ar    1  UNL1        0.1946
     32 O          60.9517   87.5966    9.5008 O.2     1  UNL1       -0.4492
     33 C          61.3520   86.7207   10.3897 C.ar    1  UNL1        0.1452
     34 C          61.8964   86.9786   11.6428 C.ar    1  UNL1        0.0375
     35 C          62.2628   85.8817   12.4418 C.ar    1  UNL1        0.0031
     36 C          62.0806   84.5505   11.9795 C.ar    1  UNL1        0.0002
     37 C          61.5224   84.3315   10.6970 C.ar    1  UNL1        0.0028
     38 C          61.1698   85.4437    9.9308 C.ar    1  UNL1        0.0337
     39 C          62.4718   83.3998   12.8327 C.ar    1  UNL1       -0.0000
     40 C          61.5395   82.3955   13.1495 C.ar    1  UNL1       -0.0002
     41 C          61.9076   81.3133   13.9540 C.ar    1  UNL1       -0.0019
     42 C          63.2170   81.2085   14.4454 C.ar    1  UNL1        0.0070
     43 C          64.1460   82.2156   14.1459 C.ar    1  UNL1       -0.0019
     44 C          63.7790   83.2989   13.3424 C.ar    1  UNL1       -0.0002
     45 C          63.6012   80.0652   15.3393 C.3     1  UNL1        0.1636
     46 O          64.1550   80.5684   16.5221 O.3     1  UNL1       -0.3772
     47 H          64.3903   79.7778   17.0740 H       1  UNL1        0.2109
@<TRIPOS>BOND
     1    29    30    1
     2    30    31   ar
     3    31    25    1
     4    25    26    2
     5    25    27   am
     6    27     1    1
     7     1     2   ar
     8     2     3   ar
     9     3     4   ar
    10     4     7    1
    11     7     8    1
    12     8     9    1
    13     9    10    1
    14    10    13    1
    15    13    14    1
    16    14    15    1
    17    15    16   ar
    18    16    17   ar
    19    17    18   ar
    20    18    19   ar
    21    19    21    1
    22    21    22    2
    23    21    23    1
    24    19    20   ar
    25    10    11    1
    26    11    12    1
    27     4     5   ar
    28     5     6   ar
    29    31    32   ar
    30    32    33   ar
    31    33    34   ar
    32    34    35   ar
    33    35    36   ar
    34    36    39    1
    35    39    40   ar
    36    40    41   ar
    37    41    42   ar
    38    42    45    1
    39    45    46    1
    40    42    43   ar
    41    43    44   ar
    42    36    37   ar
    43    37    38   ar
    44    38    30   ar
    45     6     1   ar
    46    38    33   ar
    47    12     7    1
    48    44    39   ar
    49    20    15   ar
    50    27    28    1
    51    23    24    1
    52    46    47    1
@<TRIPOS>MOLECULE
*****
 47 52 0 0 0
SMALL
GASTEIGER

@<TRIPOS>ATOM
      1 C          61.1960   86.0635    8.8449 C.ar    1  UNL1        0.0702
      2 C          62.0467   84.9546    8.7804 C.ar    1  UNL1        0.0191
      3 C          62.3838   84.2560    9.9407 C.ar    1  UNL1        0.0356
      4 C          61.8781   84.6821   11.1828 C.ar    1  UNL1        0.1318
      5 N          61.0730   85.7814   11.2195 N.ar    1  UNL1       -0.2279
      6 C          60.7285   86.4745   10.1026 C.ar    1  UNL1        0.1149
      7 N          62.1955   83.9804   12.4087 N.pl3   1  UNL1       -0.2932
      8 C          61.1498   83.7055   13.4076 C.3     1  UNL1        0.0923
      9 C          61.1011   82.2089   13.7612 C.3     1  UNL1        0.0252
     10 C          62.4914   81.5219   13.7237 C.3     1  UNL1        0.0472
     11 C          63.6356   82.5445   13.8532 C.3     1  UNL1        0.0252
     12 C          63.5762   83.5471   12.6912 C.3     1  UNL1        0.0923
     13 C          62.6266   80.3898   14.7613 C.3     1  UNL1        0.2054
     14 O          61.6731   79.3466   14.5358 O.3     1  UNL1       -0.4755
     15 C          60.8158   79.2042   13.4309 C.ar    1  UNL1        0.1388
     16 C          59.4295   78.9837   13.5484 C.ar    1  UNL1        0.0369
     17 C          58.6393   78.8590   12.4043 C.ar    1  UNL1        0.0033
     18 C          59.2138   78.9513   11.1353 C.ar    1  UNL1        0.0066
     19 C          60.5954   79.1671   10.9953 C.ar    1  UNL1        0.0785
     20 C          61.3823   79.3034   12.1536 C.ar    1  UNL1        0.0433
     21 C          61.2236   79.2747    9.6557 C.2     1  UNL1        0.3381
     22 O          62.4281   78.9390    9.5015 O.2     1  UNL1       -0.2451
     23 O          60.5123   79.7262    8.5445 O.3     1  UNL1       -0.4771
     24 H          59.5187   79.9138    8.5720 H       1  UNL1        0.2954
     25 C          60.3466   88.1221    7.6258 C.2     1  UNL1        0.2839
     26 O          59.8944   88.6397    8.6824 O.2     1  UNL1       -0.2665
     27 N          60.8761   86.7865    7.6437 N.am    1  UNL1       -0.2766
     28 H          60.9548   86.2781    6.7338 H       1  UNL1        0.1553
     29 C          57.7193   89.0402    6.0360 C.3     1  UNL1        0.0345
     30 C          59.1512   89.2765    5.6602 C.ar    1  UNL1        0.0202
     31 C          60.2957   88.8730    6.3570 C.ar    1  UNL1        0.1946
     32 O          61.3797   89.2675    5.7127 O.2     1  UNL1       -0.4492
     33 C          60.9972   89.9053    4.6335 C.ar    1  UNL1        0.1452
     34 C          61.8078   90.4903    3.6671 C.ar    1  UNL1        0.0375
     35 C          61.1844   91.1312    2.5824 C.ar    1  UNL1        0.0031
     36 C          59.7679   91.1777    2.4799 C.ar    1  UNL1        0.0002
     37 C          58.9790   90.5692    3.4856 C.ar    1  UNL1        0.0028
     38 C          59.6312   89.9415    4.5481 C.ar    1  UNL1        0.0337
     39 C          59.1209   91.8580    1.3293 C.ar    1  UNL1       -0.0000
     40 C          59.4360   93.1932    1.0193 C.ar    1  UNL1       -0.0002
     41 C          58.8257   93.8338   -0.0629 C.ar    1  UNL1       -0.0019
     42 C          57.8996   93.1478   -0.8622 C.ar    1  UNL1        0.0070
     43 C          57.5699   91.8215   -0.5475 C.ar    1  UNL1       -0.0019
     44 C          58.1786   91.1800    0.5350 C.ar    1  UNL1       -0.0002
     45 C          57.2175   93.8479   -2.0016 C.3     1  UNL1        0.1636
     46 O          55.8308   93.7722   -1.8277 O.3     1  UNL1       -0.3772
     47 H          55.4300   94.2466   -2.6019 H       1  UNL1        0.2109
@<TRIPOS>BOND
     1    29    30    1
     2    30    31   ar
     3    31    25    1
     4    25    26    2
     5    25    27   am
     6    27     1    1
     7     1     2   ar
     8     2     3   ar
     9     3     4   ar
    10     4     7    1
    11     7     8    1
    12     8     9    1
    13     9    10    1
    14    10    13    1
    15    13    14    1
    16    14    15    1
    17    15    16   ar
    18    16    17   ar
    19    17    18   ar
    20    18    19   ar
    21    19    21    1
    22    21    22    2
    23    21    23    1
    24    19    20   ar
    25    10    11    1
    26    11    12    1
    27     4     5   ar
    28     5     6   ar
    29    31    32   ar
    30    32    33   ar
    31    33    34   ar
    32    34    35   ar
    33    35    36   ar
    34    36    39    1
    35    39    40   ar
    36    40    41   ar
    37    41    42   ar
    38    42    45    1
    39    45    46    1
    40    42    43   ar
    41    43    44   ar
    42    36    37   ar
    43    37    38   ar
    44    38    30   ar
    45     6     1   ar
    46    38    33   ar
    47    12     7    1
    48    44    39   ar
    49    20    15   ar
    50    27    28    1
    51    23    24    1
    52    46    47    1
