@<TRIPOS>MOLECULE
*****
 50 55 0 0 0
SMALL
GASTEIGER

@<TRIPOS>ATOM
      1 C         -64.5611  -54.8916  -22.1799 C.2     1  UNL1        0.2483
      2 O         -63.7043  -55.7423  -21.8146 O.2     1  UNL1       -0.2701
      3 N         -65.9573  -55.1553  -21.9724 N.am    1  UNL1       -0.2945
      4 H         -66.6319  -54.3579  -22.0144 H       1  UNL1        0.1501
      5 C         -63.2754  -51.2087  -24.0025 C.ar    1  UNL1        0.0502
      6 C         -62.5846  -51.7394  -22.9024 C.ar    1  UNL1        0.0148
      7 C         -63.0028  -52.9352  -22.3137 C.ar    1  UNL1        0.0080
      8 C         -64.1176  -53.6291  -22.8174 C.ar    1  UNL1        0.0808
      9 C         -64.8131  -53.0922  -23.9187 C.ar    1  UNL1        0.1457
     10 F         -65.8846  -53.7363  -24.4477 F       1  UNL1       -0.2040
     11 C         -64.3903  -51.8951  -24.5050 C.ar    1  UNL1        0.0443
     12 N         -62.1067  -47.4089  -25.3320 N.pl3   1  UNL1       -0.3034
     13 C         -63.5393  -47.7006  -25.2360 C.3     1  UNL1        0.1123
     14 C         -63.7778  -49.1983  -25.4433 C.3     1  UNL1        0.1122
     15 N         -62.8465  -49.9781  -24.6152 N.pl3   1  UNL1       -0.3040
     16 C         -61.4131  -49.6633  -24.6985 C.3     1  UNL1        0.1122
     17 C         -61.1926  -48.1675  -24.4748 C.3     1  UNL1        0.1123
     18 C         -60.5593  -44.9437  -28.4480 C.ar    1  UNL1       -0.0110
     19 C         -60.7862  -46.3191  -28.6457 C.ar    1  UNL1       -0.0021
     20 C         -61.2975  -47.1154  -27.6245 C.ar    1  UNL1        0.0151
     21 C         -61.5960  -46.5635  -26.3762 C.ar    1  UNL1        0.0594
     22 C         -61.3884  -45.1901  -26.1552 C.ar    1  UNL1        0.0811
     23 CL        -61.8238  -44.4840  -24.5964 Cl      1  UNL1       -0.0801
     24 C         -60.8702  -44.3768  -27.1847 C.ar    1  UNL1        0.0654
     25 CL        -60.6279  -42.6547  -26.8646 Cl      1  UNL1       -0.0817
     26 C         -59.1590  -44.9750  -30.5479 C.3     1  UNL1        0.0047
     27 C         -59.9952  -44.1110  -29.5951 C.3     1  UNL1        0.0232
     28 C         -61.1141  -43.3828  -30.3508 C.3     1  UNL1        0.0047
     29 C         -66.4482  -56.4711  -21.5522 C.3     1  UNL1        0.1535
     30 C         -67.2445  -56.3389  -20.2829 C.2     1  UNL1        0.2443
     31 O         -66.6492  -56.0335  -19.2141 O.2     1  UNL1       -0.2730
     32 N         -68.6518  -56.6306  -20.2736 N.am    1  UNL1       -0.2825
     33 H         -69.0428  -57.1848  -21.0687 H       1  UNL1        0.1549
     34 C         -69.5377  -56.2844  -19.1955 C.ar    1  UNL1        0.0535
     35 C         -69.9377  -57.2329  -18.2386 C.ar    1  UNL1        0.0353
     36 C         -70.7787  -56.8436  -17.1929 C.ar    1  UNL1        0.1002
     37 N         -71.1946  -55.5532  -17.0953 N.ar    1  UNL1       -0.2422
     38 C         -70.8086  -54.6111  -17.9957 C.ar    1  UNL1        0.1002
     39 C         -69.9673  -54.9576  -19.0557 C.ar    1  UNL1        0.0353
     40 C         -67.3060  -57.1106  -22.6570 C.3     1  UNL1        0.0569
     41 C         -68.0161  -56.0611  -23.4625 C.ar    1  UNL1       -0.0017
     42 C         -68.4776  -54.8321  -22.9998 C.ar    1  UNL1        0.0681
     43 N         -68.9796  -54.1013  -24.0212 N.ar    1  UNL1       -0.3523
     44 C         -68.8278  -54.8529  -25.1255 C.ar    1  UNL1        0.0563
     45 C         -69.1745  -54.5140  -26.4327 C.ar    1  UNL1        0.0170
     46 C         -68.9009  -55.4482  -27.4487 C.ar    1  UNL1        0.0015
     47 C         -68.2898  -56.6838  -27.1395 C.ar    1  UNL1        0.0001
     48 C         -67.9483  -56.9977  -25.8114 C.ar    1  UNL1        0.0012
     49 C         -68.2381  -56.0542  -24.8254 C.ar    1  UNL1        0.0131
     50 H         -69.3841  -53.1404  -23.9624 H       1  UNL1        0.1660
@<TRIPOS>BOND
     1    26    27    1
     2    27    28    1
     3    27    18    1
     4    18    19   ar
     5    19    20   ar
     6    20    21   ar
     7    21    12    1
     8    12    13    1
     9    13    14    1
    10    14    15    1
    11    15     5    1
    12     5     6   ar
    13     6     7   ar
    14     7     8   ar
    15     8     1    1
    16     1     2    2
    17     1     3   am
    18     3    29    1
    19    29    40    1
    20    40    41    1
    21    41    42   ar
    22    42    43   ar
    23    43    44   ar
    24    44    45   ar
    25    45    46   ar
    26    46    47   ar
    27    47    48   ar
    28    48    49   ar
    29    29    30    1
    30    30    31    2
    31    30    32   am
    32    32    34    1
    33    34    35   ar
    34    35    36   ar
    35    36    37   ar
    36    37    38   ar
    37    38    39   ar
    38     8     9   ar
    39     9    10    1
    40     9    11   ar
    41    15    16    1
    42    16    17    1
    43    21    22   ar
    44    22    23    1
    45    22    24   ar
    46    24    25    1
    47    24    18   ar
    48    17    12    1
    49    11     5   ar
    50    49    41   ar
    51    39    34   ar
    52    49    44   ar
    53     3     4    1
    54    43    50    1
    55    32    33    1
@<TRIPOS>MOLECULE
*****
 50 55 0 0 0
SMALL
GASTEIGER

@<TRIPOS>ATOM
      1 C         -62.1090  -41.5317  -20.5233 C.2     1  UNL1        0.2483
      2 O         -61.3023  -42.0598  -19.7098 O.2     1  UNL1       -0.2701
      3 N         -63.0933  -40.6019  -20.0453 N.am    1  UNL1       -0.2945
      4 H         -63.5632  -39.9690  -20.7317 H       1  UNL1        0.1501
      5 C         -61.9068  -42.5514  -24.7015 C.ar    1  UNL1        0.0502
      6 C         -63.1091  -42.1025  -24.1342 C.ar    1  UNL1        0.0148
      7 C         -63.1718  -41.7709  -22.7787 C.ar    1  UNL1        0.0080
      8 C         -62.0309  -41.8752  -21.9631 C.ar    1  UNL1        0.0808
      9 C         -60.8258  -42.3309  -22.5332 C.ar    1  UNL1        0.1457
     10 F         -59.6961  -42.4316  -21.7872 F       1  UNL1       -0.2040
     11 C         -60.7678  -42.6612  -23.8907 C.ar    1  UNL1        0.0443
     12 N         -61.7466  -44.0268  -28.6220 N.pl3   1  UNL1       -0.3034
     13 C         -60.5309  -44.0891  -27.8065 C.3     1  UNL1        0.1123
     14 C         -60.5355  -42.9515  -26.7823 C.3     1  UNL1        0.1122
     15 N         -61.8357  -42.8914  -26.0991 N.pl3   1  UNL1       -0.3040
     16 C         -63.0521  -42.8537  -26.9236 C.3     1  UNL1        0.1122
     17 C         -63.0374  -44.0043  -27.9297 C.3     1  UNL1        0.1123
     18 C         -61.5819  -43.3122  -32.8223 C.ar    1  UNL1       -0.0110
     19 C         -62.6901  -42.9090  -32.0531 C.ar    1  UNL1       -0.0021
     20 C         -62.7327  -43.1409  -30.6809 C.ar    1  UNL1        0.0151
     21 C         -61.6723  -43.7829  -30.0364 C.ar    1  UNL1        0.0594
     22 C         -60.5486  -44.1868  -30.7797 C.ar    1  UNL1        0.0811
     23 CL        -59.1840  -44.9429  -29.9525 Cl      1  UNL1       -0.0801
     24 C         -60.4982  -43.9559  -32.1704 C.ar    1  UNL1        0.0654
     25 CL        -59.0650  -44.4773  -33.0654 Cl      1  UNL1       -0.0817
     26 C         -60.4144  -43.7571  -35.0156 C.3     1  UNL1        0.0047
     27 C         -61.5802  -43.0393  -34.3233 C.3     1  UNL1        0.0232
     28 C         -62.9215  -43.4300  -34.9570 C.3     1  UNL1        0.0047
     29 C         -63.3483  -40.4029  -18.6154 C.3     1  UNL1        0.1535
     30 C         -64.1033  -39.1192  -18.4040 C.2     1  UNL1        0.2443
     31 O         -64.9573  -39.0550  -17.4786 O.2     1  UNL1       -0.2730
     32 N         -63.9085  -38.0061  -19.2923 N.am    1  UNL1       -0.2825
     33 H         -63.4596  -38.1905  -20.2179 H       1  UNL1        0.1549
     34 C         -64.3728  -36.6723  -19.0238 C.ar    1  UNL1        0.0535
     35 C         -65.5806  -36.1921  -19.5585 C.ar    1  UNL1        0.0353
     36 C         -66.0047  -34.8975  -19.2481 C.ar    1  UNL1        0.1002
     37 N         -65.2603  -34.1145  -18.4233 N.ar    1  UNL1       -0.2422
     38 C         -64.0979  -34.5593  -17.8773 C.ar    1  UNL1        0.1002
     39 C         -63.6383  -35.8477  -18.1606 C.ar    1  UNL1        0.0353
     40 C         -64.1359  -41.5883  -18.0326 C.3     1  UNL1        0.0569
     41 C         -64.8506  -42.3443  -19.1153 C.ar    1  UNL1       -0.0017
     42 C         -64.9526  -43.7276  -19.2319 C.ar    1  UNL1        0.0681
     43 N         -65.7511  -44.0560  -20.2730 N.ar    1  UNL1       -0.3523
     44 C         -66.1634  -42.8929  -20.8064 C.ar    1  UNL1        0.0563
     45 C         -67.0252  -42.7177  -21.8882 C.ar    1  UNL1        0.0170
     46 C         -67.3467  -41.4011  -22.2663 C.ar    1  UNL1        0.0015
     47 C         -66.8094  -40.3020  -21.5598 C.ar    1  UNL1        0.0001
     48 C         -65.9442  -40.5091  -20.4700 C.ar    1  UNL1        0.0012
     49 C         -65.6391  -41.8255  -20.1233 C.ar    1  UNL1        0.0131
     50 H         -66.0082  -45.0193  -20.5837 H       1  UNL1        0.1660
@<TRIPOS>BOND
     1    26    27    1
     2    27    28    1
     3    27    18    1
     4    18    19   ar
     5    19    20   ar
     6    20    21   ar
     7    21    12    1
     8    12    13    1
     9    13    14    1
    10    14    15    1
    11    15     5    1
    12     5     6   ar
    13     6     7   ar
    14     7     8   ar
    15     8     1    1
    16     1     2    2
    17     1     3   am
    18     3    29    1
    19    29    40    1
    20    40    41    1
    21    41    42   ar
    22    42    43   ar
    23    43    44   ar
    24    44    45   ar
    25    45    46   ar
    26    46    47   ar
    27    47    48   ar
    28    48    49   ar
    29    29    30    1
    30    30    31    2
    31    30    32   am
    32    32    34    1
    33    34    35   ar
    34    35    36   ar
    35    36    37   ar
    36    37    38   ar
    37    38    39   ar
    38     8     9   ar
    39     9    10    1
    40     9    11   ar
    41    15    16    1
    42    16    17    1
    43    21    22   ar
    44    22    23    1
    45    22    24   ar
    46    24    25    1
    47    24    18   ar
    48    17    12    1
    49    11     5   ar
    50    49    41   ar
    51    39    34   ar
    52    49    44   ar
    53     3     4    1
    54    43    50    1
    55    32    33    1
@<TRIPOS>MOLECULE
*****
 50 55 0 0 0
SMALL
GASTEIGER

@<TRIPOS>ATOM
      1 C         -64.1451  -53.7515  -22.6527 C.2     1  UNL1        0.2483
      2 O         -63.2068  -54.5241  -22.3148 O.2     1  UNL1       -0.2701
      3 N         -65.4968  -54.0760  -22.2931 N.am    1  UNL1       -0.2945
      4 H         -66.2207  -53.3225  -22.3240 H       1  UNL1        0.1501
      5 C         -63.2627  -50.1836  -24.8954 C.ar    1  UNL1        0.0502
      6 C         -64.3578  -50.9903  -25.2402 C.ar    1  UNL1        0.0148
      7 C         -64.6429  -52.1466  -24.5101 C.ar    1  UNL1        0.0080
      8 C         -63.8419  -52.5171  -23.4152 C.ar    1  UNL1        0.0808
      9 C         -62.7398  -51.7087  -23.0735 C.ar    1  UNL1        0.1457
     10 F         -61.9493  -52.0194  -22.0145 F       1  UNL1       -0.2040
     11 C         -62.4586  -50.5519  -23.8070 C.ar    1  UNL1        0.0443
     12 N         -61.9493  -46.9199  -27.1749 N.pl3   1  UNL1       -0.3034
     13 C         -61.4759  -47.0372  -25.7933 C.3     1  UNL1        0.1123
     14 C         -62.5199  -47.7720  -24.9488 C.3     1  UNL1        0.1122
     15 N         -62.9663  -48.9888  -25.6426 N.pl3   1  UNL1       -0.3040
     16 C         -63.4168  -48.8673  -27.0365 C.3     1  UNL1        0.1122
     17 C         -62.3567  -48.1448  -27.8674 C.3     1  UNL1        0.1123
     18 C         -62.7659  -43.1065  -28.8986 C.ar    1  UNL1       -0.0110
     19 C         -63.5517  -43.6200  -27.8492 C.ar    1  UNL1       -0.0021
     20 C         -63.2741  -44.8635  -27.2881 C.ar    1  UNL1        0.0151
     21 C         -62.2058  -45.6316  -27.7581 C.ar    1  UNL1        0.0594
     22 C         -61.3986  -45.1376  -28.7986 C.ar    1  UNL1        0.0811
     23 CL        -60.0127  -46.0835  -29.3488 Cl      1  UNL1       -0.0801
     24 C         -61.6737  -43.8788  -29.3726 C.ar    1  UNL1        0.0654
     25 CL        -60.6314  -43.2949  -30.6763 Cl      1  UNL1       -0.0817
     26 C         -64.5659  -41.3608  -29.1886 C.3     1  UNL1        0.0047
     27 C         -63.1090  -41.7402  -29.4843 C.3     1  UNL1        0.0232
     28 C         -62.1448  -40.6623  -28.9728 C.3     1  UNL1        0.0047
     29 C         -65.8638  -55.3823  -21.7381 C.3     1  UNL1        0.1535
     30 C         -66.9366  -55.2130  -20.6973 C.2     1  UNL1        0.2443
     31 O         -67.4021  -54.0620  -20.4777 O.2     1  UNL1       -0.2730
     32 N         -67.3708  -56.3353  -19.9113 N.am    1  UNL1       -0.2825
     33 H         -66.7560  -57.1798  -19.8812 H       1  UNL1        0.1549
     34 C         -68.5533  -56.3349  -19.0936 C.ar    1  UNL1        0.0535
     35 C         -69.6402  -57.1815  -19.3714 C.ar    1  UNL1        0.0353
     36 C         -70.7576  -57.1654  -18.5328 C.ar    1  UNL1        0.1002
     37 N         -70.7856  -56.3465  -17.4482 N.ar    1  UNL1       -0.2422
     38 C         -69.7414  -55.5310  -17.1451 C.ar    1  UNL1        0.1002
     39 C         -68.6044  -55.5170  -17.9565 C.ar    1  UNL1        0.0353
     40 C         -66.3427  -56.3312  -22.8497 C.3     1  UNL1        0.0569
     41 C         -67.3180  -55.6437  -23.7612 C.ar    1  UNL1       -0.0017
     42 C         -67.0123  -54.9355  -24.9198 C.ar    1  UNL1        0.0681
     43 N         -68.1450  -54.5356  -25.5415 N.ar    1  UNL1       -0.3523
     44 C         -69.1621  -54.9955  -24.7923 C.ar    1  UNL1        0.0563
     45 C         -70.5265  -54.8552  -25.0421 C.ar    1  UNL1        0.0170
     46 C         -71.4253  -55.4427  -24.1327 C.ar    1  UNL1        0.0015
     47 C         -70.9456  -56.1528  -23.0097 C.ar    1  UNL1        0.0001
     48 C         -69.5628  -56.2807  -22.7844 C.ar    1  UNL1        0.0012
     49 C         -68.6970  -55.6818  -23.6998 C.ar    1  UNL1        0.0131
     50 H         -68.2113  -53.9961  -26.4331 H       1  UNL1        0.1660
@<TRIPOS>BOND
     1    26    27    1
     2    27    28    1
     3    27    18    1
     4    18    19   ar
     5    19    20   ar
     6    20    21   ar
     7    21    12    1
     8    12    13    1
     9    13    14    1
    10    14    15    1
    11    15     5    1
    12     5     6   ar
    13     6     7   ar
    14     7     8   ar
    15     8     1    1
    16     1     2    2
    17     1     3   am
    18     3    29    1
    19    29    40    1
    20    40    41    1
    21    41    42   ar
    22    42    43   ar
    23    43    44   ar
    24    44    45   ar
    25    45    46   ar
    26    46    47   ar
    27    47    48   ar
    28    48    49   ar
    29    29    30    1
    30    30    31    2
    31    30    32   am
    32    32    34    1
    33    34    35   ar
    34    35    36   ar
    35    36    37   ar
    36    37    38   ar
    37    38    39   ar
    38     8     9   ar
    39     9    10    1
    40     9    11   ar
    41    15    16    1
    42    16    17    1
    43    21    22   ar
    44    22    23    1
    45    22    24   ar
    46    24    25    1
    47    24    18   ar
    48    17    12    1
    49    11     5   ar
    50    49    41   ar
    51    39    34   ar
    52    49    44   ar
    53     3     4    1
    54    43    50    1
    55    32    33    1
@<TRIPOS>MOLECULE
*****
 50 55 0 0 0
SMALL
GASTEIGER

@<TRIPOS>ATOM
      1 C         -61.2842  -45.5544  -25.9612 C.2     1  UNL1        0.2483
      2 O         -60.0685  -45.3438  -25.6984 O.2     1  UNL1       -0.2701
      3 N         -62.0551  -44.5378  -26.6200 N.am    1  UNL1       -0.2945
      4 H         -62.9558  -44.8062  -27.0776 H       1  UNL1        0.1501
      5 C         -63.0526  -49.3298  -24.8851 C.ar    1  UNL1        0.0502
      6 C         -61.9059  -48.8648  -24.2234 C.ar    1  UNL1        0.0148
      7 C         -61.3349  -47.6389  -24.5733 C.ar    1  UNL1        0.0080
      8 C         -61.9029  -46.8489  -25.5887 C.ar    1  UNL1        0.0808
      9 C         -63.0512  -47.3197  -26.2556 C.ar    1  UNL1        0.1457
     10 F         -63.6422  -46.5829  -27.2306 F       1  UNL1       -0.2040
     11 C         -63.6196  -48.5473  -25.9014 C.ar    1  UNL1        0.0443
     12 N         -64.3767  -53.2199  -24.0567 N.pl3   1  UNL1       -0.3034
     13 C         -64.5804  -52.6901  -25.4074 C.3     1  UNL1        0.1123
     14 C         -64.7196  -51.1668  -25.3506 C.3     1  UNL1        0.1122
     15 N         -63.6472  -50.5913  -24.5261 N.pl3   1  UNL1       -0.3040
     16 C         -63.4328  -51.1445  -23.1812 C.3     1  UNL1        0.1122
     17 C         -63.2814  -52.6634  -23.2588 C.3     1  UNL1        0.1123
     18 C         -67.2035  -55.8462  -22.2421 C.ar    1  UNL1       -0.0110
     19 C         -66.2411  -55.1621  -21.4752 C.ar    1  UNL1       -0.0021
     20 C         -65.3258  -54.3017  -22.0753 C.ar    1  UNL1        0.0151
     21 C         -65.3427  -54.0995  -23.4577 C.ar    1  UNL1        0.0594
     22 C         -66.3004  -54.7627  -24.2459 C.ar    1  UNL1        0.0811
     23 CL        -66.3584  -54.4582  -25.9843 Cl      1  UNL1       -0.0801
     24 C         -67.2308  -55.6365  -23.6454 C.ar    1  UNL1        0.0654
     25 CL        -68.4195  -56.4469  -24.6736 Cl      1  UNL1       -0.0817
     26 C         -67.6424  -57.2337  -20.1796 C.3     1  UNL1        0.0047
     27 C         -68.1847  -56.7810  -21.5415 C.3     1  UNL1        0.0232
     28 C         -69.5634  -56.1246  -21.3944 C.3     1  UNL1        0.0047
     29 C         -61.5499  -43.1743  -26.8063 C.3     1  UNL1        0.1535
     30 C         -60.9014  -43.0491  -28.1578 C.2     1  UNL1        0.2443
     31 O         -59.9761  -42.2077  -28.3187 O.2     1  UNL1       -0.2730
     32 N         -61.3811  -43.8240  -29.2693 N.am    1  UNL1       -0.2825
     33 H         -62.3314  -44.2523  -29.1943 H       1  UNL1        0.1549
     34 C         -60.6727  -43.9722  -30.5115 C.ar    1  UNL1        0.0535
     35 C         -59.4448  -44.6523  -30.5816 C.ar    1  UNL1        0.0353
     36 C         -58.8059  -44.7946  -31.8160 C.ar    1  UNL1        0.1002
     37 N         -59.3763  -44.2907  -32.9422 N.ar    1  UNL1       -0.2422
     38 C         -60.5717  -43.6449  -32.9068 C.ar    1  UNL1        0.1002
     39 C         -61.2446  -43.4819  -31.6935 C.ar    1  UNL1        0.0353
     40 C         -62.6863  -42.1481  -26.6618 C.3     1  UNL1        0.0569
     41 C         -63.0783  -41.9782  -25.2223 C.ar    1  UNL1       -0.0017
     42 C         -62.3651  -42.4191  -24.1112 C.ar    1  UNL1        0.0681
     43 N         -62.9649  -42.0069  -22.9712 N.ar    1  UNL1       -0.3523
     44 C         -64.0427  -41.3000  -23.3531 C.ar    1  UNL1        0.0563
     45 C         -64.9627  -40.6513  -22.5305 C.ar    1  UNL1        0.0170
     46 C         -66.0096  -39.9414  -23.1469 C.ar    1  UNL1        0.0015
     47 C         -66.1095  -39.8925  -24.5553 C.ar    1  UNL1        0.0001
     48 C         -65.1647  -40.5546  -25.3604 C.ar    1  UNL1        0.0012
     49 C         -64.1424  -41.2554  -24.7202 C.ar    1  UNL1        0.0131
     50 H         -62.6417  -42.1871  -21.9947 H       1  UNL1        0.1660
@<TRIPOS>BOND
     1    26    27    1
     2    27    28    1
     3    27    18    1
     4    18    19   ar
     5    19    20   ar
     6    20    21   ar
     7    21    12    1
     8    12    13    1
     9    13    14    1
    10    14    15    1
    11    15     5    1
    12     5     6   ar
    13     6     7   ar
    14     7     8   ar
    15     8     1    1
    16     1     2    2
    17     1     3   am
    18     3    29    1
    19    29    40    1
    20    40    41    1
    21    41    42   ar
    22    42    43   ar
    23    43    44   ar
    24    44    45   ar
    25    45    46   ar
    26    46    47   ar
    27    47    48   ar
    28    48    49   ar
    29    29    30    1
    30    30    31    2
    31    30    32   am
    32    32    34    1
    33    34    35   ar
    34    35    36   ar
    35    36    37   ar
    36    37    38   ar
    37    38    39   ar
    38     8     9   ar
    39     9    10    1
    40     9    11   ar
    41    15    16    1
    42    16    17    1
    43    21    22   ar
    44    22    23    1
    45    22    24   ar
    46    24    25    1
    47    24    18   ar
    48    17    12    1
    49    11     5   ar
    50    49    41   ar
    51    39    34   ar
    52    49    44   ar
    53     3     4    1
    54    43    50    1
    55    32    33    1
@<TRIPOS>MOLECULE
*****
 50 55 0 0 0
SMALL
GASTEIGER

@<TRIPOS>ATOM
      1 C         -60.7784  -46.1024  -25.4365 C.2     1  UNL1        0.2483
      2 O         -59.5938  -45.9462  -25.0319 O.2     1  UNL1       -0.2701
      3 N         -61.4076  -45.0682  -26.2087 N.am    1  UNL1       -0.2945
      4 H         -62.2595  -45.3041  -26.7667 H       1  UNL1        0.1501
      5 C         -62.8676  -49.7495  -24.5025 C.ar    1  UNL1        0.0502
      6 C         -61.6496  -49.4447  -23.8760 C.ar    1  UNL1        0.0148
      7 C         -60.9744  -48.2601  -24.1796 C.ar    1  UNL1        0.0080
      8 C         -61.5068  -47.3519  -25.1121 C.ar    1  UNL1        0.0808
      9 C         -62.7273  -47.6620  -25.7440 C.ar    1  UNL1        0.1457
     10 F         -63.2860  -46.8071  -26.6383 F       1  UNL1       -0.2040
     11 C         -63.3998  -48.8488  -25.4364 C.ar    1  UNL1        0.0443
     12 N         -64.5389  -53.5375  -23.8464 N.pl3   1  UNL1       -0.3034
     13 C         -64.7519  -52.9008  -25.1487 C.3     1  UNL1        0.1123
     14 C         -64.7329  -51.3784  -24.9901 C.3     1  UNL1        0.1122
     15 N         -63.5694  -50.9678  -24.1908 N.pl3   1  UNL1       -0.3040
     16 C         -63.3485  -51.6283  -22.8963 C.3     1  UNL1        0.1122
     17 C         -63.3560  -53.1461  -23.0761 C.3     1  UNL1        0.1123
     18 C         -67.5294  -55.9846  -22.0438 C.ar    1  UNL1       -0.0110
     19 C         -66.5422  -55.3442  -21.2706 C.ar    1  UNL1       -0.0021
     20 C         -65.5732  -54.5419  -21.8670 C.ar    1  UNL1        0.0151
     21 C         -65.5596  -54.3562  -23.2517 C.ar    1  UNL1        0.0594
     22 C         -66.5406  -54.9762  -24.0464 C.ar    1  UNL1        0.0811
     23 CL        -66.5573  -54.6904  -25.7888 Cl      1  UNL1       -0.0801
     24 C         -67.5254  -55.7910  -23.4496 C.ar    1  UNL1        0.0654
     25 CL        -68.7416  -56.5486  -24.4859 Cl      1  UNL1       -0.0817
     26 C         -68.1172  -57.2337  -19.9305 C.3     1  UNL1        0.0047
     27 C         -68.5697  -56.8563  -21.3471 C.3     1  UNL1        0.0232
     28 C         -69.9400  -56.1672  -21.3220 C.3     1  UNL1        0.0047
     29 C         -60.8104  -43.7384  -26.3640 C.3     1  UNL1        0.1535
     30 C         -60.6623  -43.4113  -27.8247 C.2     1  UNL1        0.2443
     31 O         -60.3493  -42.2373  -28.1619 O.2     1  UNL1       -0.2730
     32 N         -60.9475  -44.4035  -28.8247 N.am    1  UNL1       -0.2825
     33 H         -61.5077  -45.2389  -28.5406 H       1  UNL1        0.1549
     34 C         -60.5870  -44.2754  -30.2105 C.ar    1  UNL1        0.0535
     35 C         -61.4231  -43.6201  -31.1307 C.ar    1  UNL1        0.0353
     36 C         -61.0184  -43.4964  -32.4623 C.ar    1  UNL1        0.1002
     37 N         -59.8177  -43.9943  -32.8600 N.ar    1  UNL1       -0.2422
     38 C         -58.9810  -44.6162  -31.9880 C.ar    1  UNL1        0.1002
     39 C         -59.3465  -44.7600  -30.6474 C.ar    1  UNL1        0.0353
     40 C         -61.6669  -42.6714  -25.6617 C.3     1  UNL1        0.0569
     41 C         -61.2484  -42.5021  -24.2296 C.ar    1  UNL1       -0.0017
     42 C         -60.0340  -42.8884  -23.6696 C.ar    1  UNL1        0.0681
     43 N         -59.9624  -42.4925  -22.3782 N.ar    1  UNL1       -0.3523
     44 C         -61.1150  -41.8496  -22.1224 C.ar    1  UNL1        0.0563
     45 C         -61.4950  -41.2392  -20.9279 C.ar    1  UNL1        0.0170
     46 C         -62.7453  -40.5951  -20.8874 C.ar    1  UNL1        0.0015
     47 C         -63.5760  -40.5718  -22.0298 C.ar    1  UNL1        0.0001
     48 C         -63.1651  -41.1940  -23.2228 C.ar    1  UNL1        0.0012
     49 C         -61.9235  -41.8300  -23.2300 C.ar    1  UNL1        0.0131
     50 H         -59.1635  -42.6413  -21.7225 H       1  UNL1        0.1660
@<TRIPOS>BOND
     1    26    27    1
     2    27    28    1
     3    27    18    1
     4    18    19   ar
     5    19    20   ar
     6    20    21   ar
     7    21    12    1
     8    12    13    1
     9    13    14    1
    10    14    15    1
    11    15     5    1
    12     5     6   ar
    13     6     7   ar
    14     7     8   ar
    15     8     1    1
    16     1     2    2
    17     1     3   am
    18     3    29    1
    19    29    40    1
    20    40    41    1
    21    41    42   ar
    22    42    43   ar
    23    43    44   ar
    24    44    45   ar
    25    45    46   ar
    26    46    47   ar
    27    47    48   ar
    28    48    49   ar
    29    29    30    1
    30    30    31    2
    31    30    32   am
    32    32    34    1
    33    34    35   ar
    34    35    36   ar
    35    36    37   ar
    36    37    38   ar
    37    38    39   ar
    38     8     9   ar
    39     9    10    1
    40     9    11   ar
    41    15    16    1
    42    16    17    1
    43    21    22   ar
    44    22    23    1
    45    22    24   ar
    46    24    25    1
    47    24    18   ar
    48    17    12    1
    49    11     5   ar
    50    49    41   ar
    51    39    34   ar
    52    49    44   ar
    53     3     4    1
    54    43    50    1
    55    32    33    1
@<TRIPOS>MOLECULE
*****
 50 55 0 0 0
SMALL
GASTEIGER

@<TRIPOS>ATOM
      1 C         -62.9685  -43.9431  -28.2444 C.2     1  UNL1        0.2483
      2 O         -62.1321  -44.8872  -28.2644 O.2     1  UNL1       -0.2701
      3 N         -63.7425  -43.6546  -29.4189 N.am    1  UNL1       -0.2945
      4 H         -64.6079  -43.0763  -29.3222 H       1  UNL1        0.1501
      5 C         -63.4943  -41.6454  -24.6412 C.ar    1  UNL1        0.0502
      6 C         -62.8260  -42.8788  -24.6096 C.ar    1  UNL1        0.0148
      7 C         -62.6554  -43.6218  -25.7802 C.ar    1  UNL1        0.0080
      8 C         -63.1443  -43.1432  -27.0089 C.ar    1  UNL1        0.0808
      9 C         -63.8194  -41.9070  -27.0380 C.ar    1  UNL1        0.1457
     10 F         -64.2936  -41.3991  -28.2042 F       1  UNL1       -0.2040
     11 C         -63.9874  -41.1666  -25.8637 C.ar    1  UNL1        0.0443
     12 N         -64.0521  -39.8459  -20.8965 N.pl3   1  UNL1       -0.3034
     13 C         -65.2329  -40.3266  -21.6186 C.3     1  UNL1        0.1123
     14 C         -64.9751  -40.2732  -23.1265 C.3     1  UNL1        0.1122
     15 N         -63.6700  -40.8740  -23.4380 N.pl3   1  UNL1       -0.3040
     16 C         -62.4937  -40.4039  -22.6923 C.3     1  UNL1        0.1122
     17 C         -62.7635  -40.4780  -21.1897 C.3     1  UNL1        0.1123
     18 C         -64.2987  -36.3280  -18.4998 C.ar    1  UNL1       -0.0110
     19 C         -65.2097  -37.3895  -18.3396 C.ar    1  UNL1       -0.0021
     20 C         -65.1180  -38.5372  -19.1223 C.ar    1  UNL1        0.0151
     21 C         -64.1162  -38.6590  -20.0885 C.ar    1  UNL1        0.0594
     22 C         -63.1869  -37.6176  -20.2621 C.ar    1  UNL1        0.0811
     23 CL        -61.8854  -37.8003  -21.4415 Cl      1  UNL1       -0.0801
     24 C         -63.2735  -36.4514  -19.4733 C.ar    1  UNL1        0.0654
     25 CL        -62.0825  -35.1682  -19.7226 Cl      1  UNL1       -0.0817
     26 C         -65.4624  -34.1071  -18.2078 C.3     1  UNL1        0.0047
     27 C         -64.4394  -35.0887  -17.6213 C.3     1  UNL1        0.0232
     28 C         -64.8062  -35.4712  -16.1817 C.3     1  UNL1        0.0047
     29 C         -63.4482  -44.2692  -30.7169 C.3     1  UNL1        0.1535
     30 C         -64.5884  -45.1578  -31.1328 C.2     1  UNL1        0.2443
     31 O         -65.5867  -44.6460  -31.7085 O.2     1  UNL1       -0.2730
     32 N         -64.5738  -46.5585  -30.8106 N.am    1  UNL1       -0.2825
     33 H         -63.9153  -46.8835  -30.0669 H       1  UNL1        0.1549
     34 C         -65.4703  -47.5249  -31.3842 C.ar    1  UNL1        0.0535
     35 C         -65.9743  -48.5990  -30.6307 C.ar    1  UNL1        0.0353
     36 C         -66.8643  -49.4983  -31.2234 C.ar    1  UNL1        0.1002
     37 N         -67.2500  -49.3260  -32.5154 N.ar    1  UNL1       -0.2422
     38 C         -66.7931  -48.2861  -33.2618 C.ar    1  UNL1        0.1002
     39 C         -65.9029  -47.3633  -32.7076 C.ar    1  UNL1        0.0353
     40 C         -63.1937  -43.1917  -31.7844 C.3     1  UNL1        0.0569
     41 C         -61.9516  -43.4962  -32.5713 C.ar    1  UNL1       -0.0017
     42 C         -61.7575  -43.2764  -33.9320 C.ar    1  UNL1        0.0681
     43 N         -60.4862  -43.5773  -34.2822 N.ar    1  UNL1       -0.3523
     44 C         -59.8736  -43.9731  -33.1529 C.ar    1  UNL1        0.0563
     45 C         -58.5428  -44.3616  -33.0050 C.ar    1  UNL1        0.0170
     46 C         -58.1003  -44.7152  -31.7170 C.ar    1  UNL1        0.0015
     47 C         -58.9865  -44.6687  -30.6177 C.ar    1  UNL1        0.0001
     48 C         -60.3237  -44.2699  -30.7964 C.ar    1  UNL1        0.0012
     49 C         -60.7344  -43.9317  -32.0860 C.ar    1  UNL1        0.0131
     50 H         -60.0649  -43.4979  -35.2344 H       1  UNL1        0.1660
@<TRIPOS>BOND
     1    26    27    1
     2    27    28    1
     3    27    18    1
     4    18    19   ar
     5    19    20   ar
     6    20    21   ar
     7    21    12    1
     8    12    13    1
     9    13    14    1
    10    14    15    1
    11    15     5    1
    12     5     6   ar
    13     6     7   ar
    14     7     8   ar
    15     8     1    1
    16     1     2    2
    17     1     3   am
    18     3    29    1
    19    29    40    1
    20    40    41    1
    21    41    42   ar
    22    42    43   ar
    23    43    44   ar
    24    44    45   ar
    25    45    46   ar
    26    46    47   ar
    27    47    48   ar
    28    48    49   ar
    29    29    30    1
    30    30    31    2
    31    30    32   am
    32    32    34    1
    33    34    35   ar
    34    35    36   ar
    35    36    37   ar
    36    37    38   ar
    37    38    39   ar
    38     8     9   ar
    39     9    10    1
    40     9    11   ar
    41    15    16    1
    42    16    17    1
    43    21    22   ar
    44    22    23    1
    45    22    24   ar
    46    24    25    1
    47    24    18   ar
    48    17    12    1
    49    11     5   ar
    50    49    41   ar
    51    39    34   ar
    52    49    44   ar
    53     3     4    1
    54    43    50    1
    55    32    33    1
@<TRIPOS>MOLECULE
*****
 50 55 0 0 0
SMALL
GASTEIGER

@<TRIPOS>ATOM
      1 C         -66.3959  -55.8486  -22.8426 C.2     1  UNL1        0.2483
      2 O         -65.9090  -56.9507  -22.4688 O.2     1  UNL1       -0.2701
      3 N         -67.8044  -55.7455  -23.1016 N.am    1  UNL1       -0.2945
      4 H         -68.2418  -54.7966  -23.1368 H       1  UNL1        0.1501
      5 C         -63.8227  -52.4351  -23.3575 C.ar    1  UNL1        0.0502
      6 C         -65.0940  -52.4659  -23.9506 C.ar    1  UNL1        0.0148
      7 C         -65.9276  -53.5739  -23.7809 C.ar    1  UNL1        0.0080
      8 C         -65.5094  -54.6722  -23.0085 C.ar    1  UNL1        0.0808
      9 C         -64.2306  -54.6418  -22.4180 C.ar    1  UNL1        0.1457
     10 F         -63.7923  -55.6727  -21.6512 F       1  UNL1       -0.2040
     11 C         -63.3999  -53.5302  -22.5903 C.ar    1  UNL1        0.0443
     12 N         -61.1382  -49.3467  -24.2676 N.pl3   1  UNL1       -0.3034
     13 C         -60.6183  -50.5460  -23.6058 C.3     1  UNL1        0.1123
     14 C         -61.7166  -51.1832  -22.7511 C.3     1  UNL1        0.1122
     15 N         -62.9606  -51.2940  -23.5266 N.pl3   1  UNL1       -0.3040
     16 C         -63.4632  -50.0923  -24.2079 C.3     1  UNL1        0.1122
     17 C         -62.3585  -49.4783  -25.0674 C.3     1  UNL1        0.1123
     18 C         -59.5308  -45.5086  -23.3372 C.ar    1  UNL1       -0.0110
     19 C         -59.2391  -46.6367  -22.5468 C.ar    1  UNL1       -0.0021
     20 C         -59.7633  -47.8875  -22.8616 C.ar    1  UNL1        0.0151
     21 C         -60.5949  -48.0493  -23.9727 C.ar    1  UNL1        0.0594
     22 C         -60.8940  -46.9407  -24.7849 C.ar    1  UNL1        0.0811
     23 CL        -61.8953  -47.1603  -26.2227 Cl      1  UNL1       -0.0801
     24 C         -60.3670  -45.6700  -24.4723 C.ar    1  UNL1        0.0654
     25 CL        -60.7662  -44.3044  -25.5224 Cl      1  UNL1       -0.0817
     26 C         -59.8487  -43.4090  -21.9726 C.3     1  UNL1        0.0047
     27 C         -58.9358  -44.1575  -22.9524 C.3     1  UNL1        0.0232
     28 C         -57.5241  -44.3203  -22.3747 C.3     1  UNL1        0.0047
     29 C         -68.6741  -56.9240  -23.1636 C.3     1  UNL1        0.1535
     30 C         -69.8927  -56.7064  -22.3090 C.2     1  UNL1        0.2443
     31 O         -70.9856  -57.2325  -22.6535 O.2     1  UNL1       -0.2730
     32 N         -69.8296  -55.8489  -21.1572 N.am    1  UNL1       -0.2825
     33 H         -69.0274  -55.1828  -21.0855 H       1  UNL1        0.1549
     34 C         -70.8470  -55.7879  -20.1434 C.ar    1  UNL1        0.0535
     35 C         -71.7317  -54.6996  -20.0535 C.ar    1  UNL1        0.0353
     36 C         -72.7221  -54.6968  -19.0679 C.ar    1  UNL1        0.1002
     37 N         -72.8367  -55.7466  -18.2120 N.ar    1  UNL1       -0.2422
     38 C         -72.0070  -56.8203  -18.2878 C.ar    1  UNL1        0.1002
     39 C         -71.0040  -56.8640  -19.2592 C.ar    1  UNL1        0.0353
     40 C         -69.0857  -57.2212  -24.6154 C.3     1  UNL1        0.0569
     41 C         -69.2334  -55.9518  -25.4037 C.ar    1  UNL1       -0.0017
     42 C         -68.2272  -55.2836  -26.0953 C.ar    1  UNL1        0.0681
     43 N         -68.7388  -54.2302  -26.7721 N.ar    1  UNL1       -0.3523
     44 C         -70.0599  -54.2352  -26.5235 C.ar    1  UNL1        0.0563
     45 C         -71.0171  -53.3530  -27.0229 C.ar    1  UNL1        0.0170
     46 C         -72.3585  -53.5590  -26.6512 C.ar    1  UNL1        0.0015
     47 C         -72.7095  -54.6323  -25.8024 C.ar    1  UNL1        0.0001
     48 C         -71.7223  -55.5086  -25.3158 C.ar    1  UNL1        0.0012
     49 C         -70.4008  -55.2747  -25.6964 C.ar    1  UNL1        0.0131
     50 H         -68.2132  -53.5627  -27.3792 H       1  UNL1        0.1660
@<TRIPOS>BOND
     1    26    27    1
     2    27    28    1
     3    27    18    1
     4    18    19   ar
     5    19    20   ar
     6    20    21   ar
     7    21    12    1
     8    12    13    1
     9    13    14    1
    10    14    15    1
    11    15     5    1
    12     5     6   ar
    13     6     7   ar
    14     7     8   ar
    15     8     1    1
    16     1     2    2
    17     1     3   am
    18     3    29    1
    19    29    40    1
    20    40    41    1
    21    41    42   ar
    22    42    43   ar
    23    43    44   ar
    24    44    45   ar
    25    45    46   ar
    26    46    47   ar
    27    47    48   ar
    28    48    49   ar
    29    29    30    1
    30    30    31    2
    31    30    32   am
    32    32    34    1
    33    34    35   ar
    34    35    36   ar
    35    36    37   ar
    36    37    38   ar
    37    38    39   ar
    38     8     9   ar
    39     9    10    1
    40     9    11   ar
    41    15    16    1
    42    16    17    1
    43    21    22   ar
    44    22    23    1
    45    22    24   ar
    46    24    25    1
    47    24    18   ar
    48    17    12    1
    49    11     5   ar
    50    49    41   ar
    51    39    34   ar
    52    49    44   ar
    53     3     4    1
    54    43    50    1
    55    32    33    1
@<TRIPOS>MOLECULE
*****
 50 55 0 0 0
SMALL
GASTEIGER

@<TRIPOS>ATOM
      1 C         -61.5371  -45.8860  -25.7014 C.2     1  UNL1        0.2483
      2 O         -60.3617  -46.3436  -25.6818 O.2     1  UNL1       -0.2701
      3 N         -62.4843  -46.4012  -26.6496 N.am    1  UNL1       -0.2945
      4 H         -63.5028  -46.2313  -26.4870 H       1  UNL1        0.1501
      5 C         -62.6474  -42.7806  -22.9334 C.ar    1  UNL1        0.0502
      6 C         -62.5694  -42.5154  -24.3091 C.ar    1  UNL1        0.0148
      7 C         -62.2103  -43.5250  -25.2053 C.ar    1  UNL1        0.0080
      8 C         -61.9279  -44.8234  -24.7447 C.ar    1  UNL1        0.0808
      9 C         -62.0018  -45.0866  -23.3626 C.ar    1  UNL1        0.1457
     10 F         -61.7533  -46.3290  -22.8754 F       1  UNL1       -0.2040
     11 C         -62.3622  -44.0729  -22.4693 C.ar    1  UNL1        0.0443
     12 N         -63.8163  -40.1381  -19.8963 N.pl3   1  UNL1       -0.3034
     13 C         -64.8614  -40.8345  -20.6509 C.3     1  UNL1        0.1123
     14 C         -64.3609  -41.1440  -22.0639 C.3     1  UNL1        0.1122
     15 N         -63.0203  -41.7443  -22.0055 N.pl3   1  UNL1       -0.3040
     16 C         -61.9833  -41.0526  -21.2264 C.3     1  UNL1        0.1122
     17 C         -62.4947  -40.7650  -19.8150 C.3     1  UNL1        0.1123
     18 C         -64.4632  -36.1577  -18.5114 C.ar    1  UNL1       -0.0110
     19 C         -65.1333  -37.2528  -17.9336 C.ar    1  UNL1       -0.0021
     20 C         -64.9114  -38.5500  -18.3880 C.ar    1  UNL1        0.0151
     21 C         -64.0159  -38.7925  -19.4327 C.ar    1  UNL1        0.0594
     22 C         -63.3256  -37.7174  -20.0207 C.ar    1  UNL1        0.0811
     23 CL        -62.1494  -38.0336  -21.2994 Cl      1  UNL1       -0.0801
     24 C         -63.5453  -36.4002  -19.5663 C.ar    1  UNL1        0.0654
     25 CL        -62.6538  -35.0788  -20.3318 Cl      1  UNL1       -0.0817
     26 C         -65.9823  -34.1463  -18.6469 C.3     1  UNL1        0.0047
     27 C         -64.7399  -34.7537  -17.9825 C.3     1  UNL1        0.0232
     28 C         -64.8784  -34.7566  -16.4547 C.3     1  UNL1        0.0047
     29 C         -62.0850  -47.2852  -27.7488 C.3     1  UNL1        0.1535
     30 C         -61.1008  -46.5798  -28.6412 C.2     1  UNL1        0.2443
     31 O         -59.8961  -46.9518  -28.6409 O.2     1  UNL1       -0.2730
     32 N         -61.5124  -45.4485  -29.4266 N.am    1  UNL1       -0.2825
     33 H         -62.4033  -44.9685  -29.1654 H       1  UNL1        0.1549
     34 C         -60.7308  -44.8822  -30.4921 C.ar    1  UNL1        0.0535
     35 C         -59.3510  -45.1254  -30.6019 C.ar    1  UNL1        0.0353
     36 C         -58.6376  -44.5754  -31.6700 C.ar    1  UNL1        0.1002
     37 N         -59.2779  -43.8223  -32.6030 N.ar    1  UNL1       -0.2422
     38 C         -60.6144  -43.5862  -32.5321 C.ar    1  UNL1        0.1002
     39 C         -61.3654  -44.1185  -31.4813 C.ar    1  UNL1        0.0353
     40 C         -61.4748  -48.5883  -27.2054 C.3     1  UNL1        0.0569
     41 C         -62.2489  -49.0926  -26.0218 C.ar    1  UNL1       -0.0017
     42 C         -63.6309  -49.2336  -25.9340 C.ar    1  UNL1        0.0681
     43 N         -63.9732  -49.8081  -24.7583 N.ar    1  UNL1       -0.3523
     44 C         -62.8193  -50.0418  -24.1092 C.ar    1  UNL1        0.0563
     45 C         -62.6580  -50.6453  -22.8628 C.ar    1  UNL1        0.0170
     46 C         -61.3476  -50.8158  -22.3795 C.ar    1  UNL1        0.0015
     47 C         -60.2405  -50.3884  -23.1459 C.ar    1  UNL1        0.0001
     48 C         -60.4335  -49.7849  -24.4020 C.ar    1  UNL1        0.0012
     49 C         -61.7443  -49.6236  -24.8512 C.ar    1  UNL1        0.0131
     50 H         -64.9382  -50.0394  -24.4334 H       1  UNL1        0.1660
@<TRIPOS>BOND
     1    26    27    1
     2    27    28    1
     3    27    18    1
     4    18    19   ar
     5    19    20   ar
     6    20    21   ar
     7    21    12    1
     8    12    13    1
     9    13    14    1
    10    14    15    1
    11    15     5    1
    12     5     6   ar
    13     6     7   ar
    14     7     8   ar
    15     8     1    1
    16     1     2    2
    17     1     3   am
    18     3    29    1
    19    29    40    1
    20    40    41    1
    21    41    42   ar
    22    42    43   ar
    23    43    44   ar
    24    44    45   ar
    25    45    46   ar
    26    46    47   ar
    27    47    48   ar
    28    48    49   ar
    29    29    30    1
    30    30    31    2
    31    30    32   am
    32    32    34    1
    33    34    35   ar
    34    35    36   ar
    35    36    37   ar
    36    37    38   ar
    37    38    39   ar
    38     8     9   ar
    39     9    10    1
    40     9    11   ar
    41    15    16    1
    42    16    17    1
    43    21    22   ar
    44    22    23    1
    45    22    24   ar
    46    24    25    1
    47    24    18   ar
    48    17    12    1
    49    11     5   ar
    50    49    41   ar
    51    39    34   ar
    52    49    44   ar
    53     3     4    1
    54    43    50    1
    55    32    33    1
@<TRIPOS>MOLECULE
*****
 50 55 0 0 0
SMALL
GASTEIGER

@<TRIPOS>ATOM
      1 C         -62.0241  -46.8253  -24.7918 C.2     1  UNL1        0.2483
      2 O         -60.9952  -47.5300  -24.6015 O.2     1  UNL1       -0.2701
      3 N         -63.0109  -47.2515  -25.7438 N.am    1  UNL1       -0.2945
      4 H         -63.9669  -46.8308  -25.7005 H       1  UNL1        0.1501
      5 C         -62.5743  -43.1812  -22.5655 C.ar    1  UNL1        0.0502
      6 C         -62.5300  -44.4196  -21.9071 C.ar    1  UNL1        0.0148
      7 C         -62.3500  -45.6004  -22.6314 C.ar    1  UNL1        0.0080
      8 C         -62.2038  -45.5667  -24.0297 C.ar    1  UNL1        0.0808
      9 C         -62.2536  -44.3230  -24.6897 C.ar    1  UNL1        0.1457
     10 F         -62.1010  -44.2418  -26.0362 F       1  UNL1       -0.2040
     11 C         -62.4336  -43.1436  -23.9603 C.ar    1  UNL1        0.0443
     12 N         -62.6971  -39.7694  -20.1330 N.pl3   1  UNL1       -0.3034
     13 C         -63.2511  -41.0188  -19.6050 C.3     1  UNL1        0.1123
     14 C         -63.7660  -41.8847  -20.7574 C.3     1  UNL1        0.1122
     15 N         -62.7564  -41.9607  -21.8232 N.pl3   1  UNL1       -0.3040
     16 C         -62.1872  -40.7041  -22.3310 C.3     1  UNL1        0.1122
     17 C         -61.6653  -39.8596  -21.1690 C.3     1  UNL1        0.1123
     18 C         -64.5111  -36.0366  -19.1552 C.ar    1  UNL1       -0.0110
     19 C         -65.0430  -37.2543  -18.6898 C.ar    1  UNL1       -0.0021
     20 C         -64.4406  -38.4683  -19.0088 C.ar    1  UNL1        0.0151
     21 C         -63.2912  -38.5032  -19.8025 C.ar    1  UNL1        0.0594
     22 C         -62.7334  -37.3005  -20.2720 C.ar    1  UNL1        0.0811
     23 CL        -61.2466  -37.3440  -21.2236 Cl      1  UNL1       -0.0801
     24 C         -63.3382  -36.0665  -19.9535 C.ar    1  UNL1        0.0654
     25 CL        -62.6016  -34.5786  -20.5621 Cl      1  UNL1       -0.0817
     26 C         -66.6910  -34.7639  -19.1685 C.3     1  UNL1        0.0047
     27 C         -65.2065  -34.7310  -18.7823 C.3     1  UNL1        0.0232
     28 C         -65.0327  -34.4194  -17.2903 C.3     1  UNL1        0.0047
     29 C         -62.7720  -48.3624  -26.6700 C.3     1  UNL1        0.1535
     30 C         -63.1270  -49.6658  -26.0083 C.2     1  UNL1        0.2443
     31 O         -63.7422  -50.5435  -26.6724 O.2     1  UNL1       -0.2730
     32 N         -62.8359  -49.8779  -24.6168 N.am    1  UNL1       -0.2825
     33 H         -62.6351  -49.0404  -24.0248 H       1  UNL1        0.1549
     34 C         -62.8914  -51.1607  -23.9702 C.ar    1  UNL1        0.0535
     35 C         -64.0281  -51.9821  -24.0614 C.ar    1  UNL1        0.0353
     36 C         -64.0259  -53.2327  -23.4384 C.ar    1  UNL1        0.1002
     37 N         -62.9261  -53.6563  -22.7613 N.ar    1  UNL1       -0.2422
     38 C         -61.8065  -52.8909  -22.6724 C.ar    1  UNL1        0.1002
     39 C         -61.7661  -51.6346  -23.2819 C.ar    1  UNL1        0.0353
     40 C         -63.5870  -48.1795  -27.9614 C.3     1  UNL1        0.0569
     41 C         -63.2962  -46.8509  -28.5978 C.ar    1  UNL1       -0.0017
     42 C         -64.2314  -45.9459  -29.0918 C.ar    1  UNL1        0.0681
     43 N         -63.6194  -44.8123  -29.5040 N.ar    1  UNL1       -0.3523
     44 C         -62.3087  -44.9892  -29.2632 C.ar    1  UNL1        0.0563
     45 C         -61.2764  -44.0820  -29.4981 C.ar    1  UNL1        0.0170
     46 C         -59.9700  -44.4664  -29.1440 C.ar    1  UNL1        0.0015
     47 C         -59.7282  -45.7324  -28.5655 C.ar    1  UNL1        0.0001
     48 C         -60.7901  -46.6265  -28.3374 C.ar    1  UNL1        0.0012
     49 C         -62.0729  -46.2195  -28.7050 C.ar    1  UNL1        0.0131
     50 H         -64.0784  -43.9661  -29.9084 H       1  UNL1        0.1660
@<TRIPOS>BOND
     1    26    27    1
     2    27    28    1
     3    27    18    1
     4    18    19   ar
     5    19    20   ar
     6    20    21   ar
     7    21    12    1
     8    12    13    1
     9    13    14    1
    10    14    15    1
    11    15     5    1
    12     5     6   ar
    13     6     7   ar
    14     7     8   ar
    15     8     1    1
    16     1     2    2
    17     1     3   am
    18     3    29    1
    19    29    40    1
    20    40    41    1
    21    41    42   ar
    22    42    43   ar
    23    43    44   ar
    24    44    45   ar
    25    45    46   ar
    26    46    47   ar
    27    47    48   ar
    28    48    49   ar
    29    29    30    1
    30    30    31    2
    31    30    32   am
    32    32    34    1
    33    34    35   ar
    34    35    36   ar
    35    36    37   ar
    36    37    38   ar
    37    38    39   ar
    38     8     9   ar
    39     9    10    1
    40     9    11   ar
    41    15    16    1
    42    16    17    1
    43    21    22   ar
    44    22    23    1
    45    22    24   ar
    46    24    25    1
    47    24    18   ar
    48    17    12    1
    49    11     5   ar
    50    49    41   ar
    51    39    34   ar
    52    49    44   ar
    53     3     4    1
    54    43    50    1
    55    32    33    1
