@<TRIPOS>MOLECULE
*****
 52 58 0 0 0
SMALL
GASTEIGER

@<TRIPOS>ATOM
      1 C          58.5818   84.4447   10.0892 C.ar    1  UNL1        0.0489
      2 C          58.2638   83.1329    9.7029 C.ar    1  UNL1        0.0177
      3 C          58.0022   82.1564   10.6677 C.ar    1  UNL1        0.0382
      4 C          58.0539   82.4689   12.0308 C.ar    1  UNL1        0.1388
      5 C          58.3618   83.7870   12.4198 C.ar    1  UNL1        0.0382
      6 C          58.6246   84.7637   11.4548 C.ar    1  UNL1        0.0177
      7 N          59.0195   87.6227    7.3713 N.pl3   1  UNL1       -0.3031
      8 C          57.9684   86.6290    7.1295 C.3     1  UNL1        0.1123
      9 C          58.3792   85.2813    7.7211 C.3     1  UNL1        0.1132
     10 N          58.8552   85.4557    9.1008 N.pl3   1  UNL1       -0.2931
     11 C          59.8768   86.4790    9.3721 C.3     1  UNL1        0.1738
     12 CL         61.4508   85.9483    8.7115 Cl      1  UNL1       -0.0910
     13 C          59.4656   87.8199    8.7548 C.3     1  UNL1        0.1277
     14 C          60.1178   90.3635    4.2983 C.ar    1  UNL1        0.0699
     15 C          58.8244   90.3854    4.8483 C.ar    1  UNL1        0.0190
     16 C          58.4673   89.4857    5.8565 C.ar    1  UNL1        0.0160
     17 C          59.3960   88.5507    6.3370 C.ar    1  UNL1        0.0481
     18 C          60.6896   88.5294    5.7927 C.ar    1  UNL1        0.0160
     19 C          61.0483   89.4301    4.7861 C.ar    1  UNL1        0.0190
     20 N          61.6144   92.3917    1.6889 N.ar    1  UNL1       -0.2024
     21 N          60.4412   92.9955    1.8144 N.ar    1  UNL1       -0.1442
     22 C          59.7668   92.3202    2.7704 C.ar    1  UNL1        0.2073
     23 N          60.4949   91.2920    3.2630 N.ar    1  UNL1       -0.2398
     24 C          61.6478   91.3759    2.5700 C.ar    1  UNL1        0.3522
     25 O          62.6470   90.6285    2.7507 O.2     1  UNL1       -0.2444
     26 C          62.6894   92.8382    0.7971 C.3     1  UNL1        0.1099
     27 C          62.7875   91.8815   -0.3968 C.3     1  UNL1        0.0265
     28 C          65.1565   92.1675    0.9086 C.3     1  UNL1        0.0021
     29 C          64.0140   92.9277    1.5827 C.3     1  UNL1        0.0245
     30 O          57.7862   81.4456   12.9547 O.3     1  UNL1       -0.4727
     31 C          58.6839   80.3932   13.3116 C.3     1  UNL1        0.2374
     32 C          60.0539   80.5893   12.6485 C.3     1  UNL1        0.1909
     33 C          61.0954   79.6421   13.1693 C.3     1  UNL1        0.1783
     34 O          62.2897   80.3568   13.1810 O.3     1  UNL1       -0.3271
     35 C          61.9468   81.7221   13.0179 C.3     1  UNL1        0.2232
     36 O          60.5424   81.8599   12.9297 O.3     1  UNL1       -0.3258
     37 C          62.5884   82.2887   11.7436 C.ar    1  UNL1        0.0404
     38 C          61.7875   82.9511   10.7860 C.ar    1  UNL1        0.0021
     39 C          62.3379   83.4352    9.5985 C.ar    1  UNL1        0.0113
     40 C          63.6958   83.2671    9.3357 C.ar    1  UNL1        0.0585
     41 CL         64.3819   83.8714    7.8386 Cl      1  UNL1       -0.0822
     42 C          64.5077   82.6140   10.2631 C.ar    1  UNL1        0.0226
     43 C          63.9711   82.1218   11.4594 C.ar    1  UNL1        0.0591
     44 CL         65.0833   81.3059   12.5559 Cl      1  UNL1       -0.0824
     45 C          62.4353   82.4977   14.2653 C.3     1  UNL1        0.1338
     46 N          62.2097   83.9579   14.1419 N.3     1  UNL1       -0.2659
     47 C          61.1423   84.4064   15.0520 C.3     1  UNL1        0.0898
     48 C          60.7477   85.8625   14.7339 C.3     1  UNL1        0.0897
     49 N          61.8622   86.6660   14.1786 N.3     1  UNL1       -0.2691
     50 C          61.8276   86.7238   12.7063 C.3     1  UNL1        0.0897
     51 C          63.1739   86.2197   14.6847 C.3     1  UNL1        0.0897
     52 C          63.4523   84.7317   14.3748 C.3     1  UNL1        0.0898
@<TRIPOS>BOND
     1    28    29    1
     2    29    26    1
     3    26    27    1
     4    26    20    1
     5    20    21   ar
     6    21    22   ar
     7    22    23   ar
     8    23    14    1
     9    14    15   ar
    10    15    16   ar
    11    16    17   ar
    12    17     7    1
    13     7     8    1
    14     8     9    1
    15     9    10    1
    16    10     1    1
    17     1     2   ar
    18     2     3   ar
    19     3     4   ar
    20     4    30    1
    21    30    31    1
    22    31    32    1
    23    32    33    1
    24    33    34    1
    25    34    35    1
    26    35    45    1
    27    45    46    1
    28    46    47    1
    29    47    48    1
    30    48    49    1
    31    49    50    1
    32    49    51    1
    33    51    52    1
    34    35    37    1
    35    37    38   ar
    36    38    39   ar
    37    39    40   ar
    38    40    41    1
    39    40    42   ar
    40    42    43   ar
    41    43    44    1
    42    35    36    1
    43     4     5   ar
    44     5     6   ar
    45    10    11    1
    46    11    12    1
    47    11    13    1
    48    17    18   ar
    49    18    19   ar
    50    23    24   ar
    51    24    25    2
    52    24    20   ar
    53    19    14   ar
    54    13     7    1
    55     6     1   ar
    56    36    32    1
    57    52    46    1
    58    43    37   ar
@<TRIPOS>MOLECULE
*****
 52 58 0 0 0
SMALL
GASTEIGER

@<TRIPOS>ATOM
      1 C          60.8327   86.4041   11.1895 C.ar    1  UNL1        0.0489
      2 C          62.1041   86.2155   11.7545 C.ar    1  UNL1        0.0177
      3 C          62.2441   85.5349   12.9669 C.ar    1  UNL1        0.0382
      4 C          61.1225   85.0326   13.6364 C.ar    1  UNL1        0.1388
      5 C          59.8475   85.2112   13.0653 C.ar    1  UNL1        0.0382
      6 C          59.7072   85.8930   11.8531 C.ar    1  UNL1        0.0177
      7 N          59.9362   88.4271    7.6143 N.pl3   1  UNL1       -0.3031
      8 C          59.7831   86.9692    7.6558 C.3     1  UNL1        0.1123
      9 C          60.7564   86.3717    8.6711 C.3     1  UNL1        0.1132
     10 N          60.6803   87.1068    9.9417 N.pl3   1  UNL1       -0.2931
     11 C          60.7860   88.5740    9.9170 C.3     1  UNL1        0.1738
     12 CL         62.4675   89.0503    9.5416 Cl      1  UNL1       -0.0910
     13 C          59.8227   89.1605    8.8796 C.3     1  UNL1        0.1277
     14 C          59.9138   90.5043    3.8932 C.ar    1  UNL1        0.0699
     15 C          61.0845   89.8799    4.3575 C.ar    1  UNL1        0.0190
     16 C          61.0886   89.1989    5.5780 C.ar    1  UNL1        0.0160
     17 C          59.9232   89.1250    6.3551 C.ar    1  UNL1        0.0481
     18 C          58.7515   89.7437    5.8919 C.ar    1  UNL1        0.0160
     19 C          58.7459   90.4231    4.6706 C.ar    1  UNL1        0.0190
     20 N          60.4881   92.3731    0.8370 N.ar    1  UNL1       -0.2024
     21 N          59.1925   92.1195    0.7195 N.ar    1  UNL1       -0.1442
     22 C          58.8443   91.4067    1.8129 C.ar    1  UNL1        0.2073
     23 N          59.9005   91.2029    2.6331 N.ar    1  UNL1       -0.2398
     24 C          60.9074   91.8313    1.9946 C.ar    1  UNL1        0.3522
     25 O          62.0818   91.9373    2.4411 O.2     1  UNL1       -0.2444
     26 C          61.2677   93.1796   -0.1075 C.3     1  UNL1        0.1099
     27 C          60.3185   93.8382   -1.1153 C.3     1  UNL1        0.0265
     28 C          63.5096   93.0983   -1.3388 C.3     1  UNL1        0.0021
     29 C          62.3270   92.2950   -0.7966 C.3     1  UNL1        0.0245
     30 O          61.3241   84.3612   14.8534 O.3     1  UNL1       -0.4727
     31 C          62.3013   83.3463   15.0899 C.3     1  UNL1        0.2374
     32 C          62.0721   82.1368   14.1737 C.3     1  UNL1        0.1909
     33 C          63.3442   81.6039   13.5812 C.3     1  UNL1        0.1783
     34 O          63.0175   81.1758   12.2978 O.3     1  UNL1       -0.3271
     35 C          61.7430   81.7197   12.0009 C.3     1  UNL1        0.2232
     36 O          61.2883   82.5041   13.0860 O.3     1  UNL1       -0.3258
     37 C          60.7297   80.5985   11.7319 C.ar    1  UNL1        0.0404
     38 C          59.4954   80.5841   12.4201 C.ar    1  UNL1        0.0021
     39 C          58.5762   79.5518   12.2276 C.ar    1  UNL1        0.0113
     40 C          58.8665   78.5093   11.3499 C.ar    1  UNL1        0.0585
     41 CL         57.7108   77.2106   11.1163 Cl      1  UNL1       -0.0822
     42 C          60.0792   78.4983   10.6606 C.ar    1  UNL1        0.0226
     43 C          61.0128   79.5263   10.8427 C.ar    1  UNL1        0.0591
     44 CL         62.5153   79.4095    9.9297 Cl      1  UNL1       -0.0824
     45 C          61.8832   82.6367   10.7617 C.3     1  UNL1        0.1338
     46 N          60.8632   82.3410    9.7269 N.3     1  UNL1       -0.2659
     47 C          59.6039   83.0506   10.0085 C.3     1  UNL1        0.0898
     48 C          58.4854   82.5406    9.0778 C.3     1  UNL1        0.0897
     49 N          58.9834   82.0641    7.7660 N.3     1  UNL1       -0.2691
     50 C          59.1674   80.6021    7.7376 C.3     1  UNL1        0.0897
     51 C          60.1983   82.7837    7.3391 C.3     1  UNL1        0.0897
     52 C          61.3486   82.6619    8.3637 C.3     1  UNL1        0.0898
@<TRIPOS>BOND
     1    28    29    1
     2    29    26    1
     3    26    27    1
     4    26    20    1
     5    20    21   ar
     6    21    22   ar
     7    22    23   ar
     8    23    14    1
     9    14    15   ar
    10    15    16   ar
    11    16    17   ar
    12    17     7    1
    13     7     8    1
    14     8     9    1
    15     9    10    1
    16    10     1    1
    17     1     2   ar
    18     2     3   ar
    19     3     4   ar
    20     4    30    1
    21    30    31    1
    22    31    32    1
    23    32    33    1
    24    33    34    1
    25    34    35    1
    26    35    45    1
    27    45    46    1
    28    46    47    1
    29    47    48    1
    30    48    49    1
    31    49    50    1
    32    49    51    1
    33    51    52    1
    34    35    37    1
    35    37    38   ar
    36    38    39   ar
    37    39    40   ar
    38    40    41    1
    39    40    42   ar
    40    42    43   ar
    41    43    44    1
    42    35    36    1
    43     4     5   ar
    44     5     6   ar
    45    10    11    1
    46    11    12    1
    47    11    13    1
    48    17    18   ar
    49    18    19   ar
    50    23    24   ar
    51    24    25    2
    52    24    20   ar
    53    19    14   ar
    54    13     7    1
    55     6     1   ar
    56    36    32    1
    57    52    46    1
    58    43    37   ar
@<TRIPOS>MOLECULE
*****
 52 58 0 0 0
SMALL
GASTEIGER

@<TRIPOS>ATOM
      1 C          60.8367   86.5271   10.9383 C.ar    1  UNL1        0.0489
      2 C          59.7090   86.1724   11.6958 C.ar    1  UNL1        0.0177
      3 C          59.8561   85.4694   12.8945 C.ar    1  UNL1        0.0382
      4 C          61.1262   85.1075   13.3577 C.ar    1  UNL1        0.1388
      5 C          62.2591   85.4724   12.6047 C.ar    1  UNL1        0.0382
      6 C          62.1119   86.1746   11.4050 C.ar    1  UNL1        0.0177
      7 N          59.9649   88.5813    7.3748 N.pl3   1  UNL1       -0.3031
      8 C          59.8900   87.1167    7.3797 C.3     1  UNL1        0.1123
      9 C          60.8559   86.5489    8.4187 C.3     1  UNL1        0.1132
     10 N          60.6928   87.2493    9.7007 N.pl3   1  UNL1       -0.2931
     11 C          60.7193   88.7202    9.7110 C.3     1  UNL1        0.1738
     12 CL         62.3852   89.2944    9.4105 Cl      1  UNL1       -0.0910
     13 C          59.7647   89.2781    8.6500 C.3     1  UNL1        0.1277
     14 C          59.9688   90.7389    3.6996 C.ar    1  UNL1        0.0699
     15 C          61.1368   90.1064    4.1597 C.ar    1  UNL1        0.0190
     16 C          61.1324   89.3989    5.3650 C.ar    1  UNL1        0.0160
     17 C          59.9609   89.3063    6.1310 C.ar    1  UNL1        0.0481
     18 C          58.7919   89.9332    5.6719 C.ar    1  UNL1        0.0160
     19 C          58.7949   90.6390    4.4657 C.ar    1  UNL1        0.0190
     20 N          60.0290   92.0017    0.2991 N.ar    1  UNL1       -0.2024
     21 N          59.9233   93.1387    0.9719 N.ar    1  UNL1       -0.1442
     22 C          59.8823   92.8035    2.2799 C.ar    1  UNL1        0.2073
     23 N          59.9644   91.4647    2.4550 N.ar    1  UNL1       -0.2398
     24 C          60.0660   90.9986    1.1944 C.ar    1  UNL1        0.3522
     25 O          60.2193   89.7845    0.8910 O.2     1  UNL1       -0.2444
     26 C          60.1663   91.9060   -1.1577 C.3     1  UNL1        0.1099
     27 C          61.2622   92.8697   -1.6278 C.3     1  UNL1        0.0265
     28 C          57.6586   91.3990   -1.2115 C.3     1  UNL1        0.0021
     29 C          58.8080   92.1960   -1.8289 C.3     1  UNL1        0.0245
     30 O          61.2120   84.3978   14.5666 O.3     1  UNL1       -0.4727
     31 C          62.1875   83.4014   14.8772 C.3     1  UNL1        0.2374
     32 C          61.9583   82.1295   14.0496 C.3     1  UNL1        0.1909
     33 C          63.2278   81.5685   13.4779 C.3     1  UNL1        0.1783
     34 O          62.8888   81.0500   12.2316 O.3     1  UNL1       -0.3271
     35 C          61.6052   81.5606   11.9155 C.3     1  UNL1        0.2232
     36 O          61.1569   82.4138   12.9500 O.3     1  UNL1       -0.3258
     37 C          60.5996   80.4144   11.7382 C.ar    1  UNL1        0.0404
     38 C          61.0225   79.1855   11.1831 C.ar    1  UNL1        0.0021
     39 C          60.1190   78.1436   10.9694 C.ar    1  UNL1        0.0113
     40 C          58.7746   78.3030   11.2989 C.ar    1  UNL1        0.0585
     41 CL         57.6415   76.9928   11.0222 Cl      1  UNL1       -0.0822
     42 C          58.3309   79.5073   11.8454 C.ar    1  UNL1        0.0226
     43 C          59.2245   80.5629   12.0658 C.ar    1  UNL1        0.0591
     44 CL         58.5569   82.0422   12.7521 Cl      1  UNL1       -0.0824
     45 C          61.7201   82.3911   10.6142 C.3     1  UNL1        0.1338
     46 N          60.5405   82.2183    9.7325 N.3     1  UNL1       -0.2659
     47 C          59.6529   83.3914    9.8017 C.3     1  UNL1        0.0898
     48 C          58.3202   83.0939    9.0857 C.3     1  UNL1        0.0897
     49 N          58.4534   82.1224    7.9746 N.3     1  UNL1       -0.2691
     50 C          58.1115   80.7504    8.3903 C.3     1  UNL1        0.0897
     51 C          59.7795   82.1924    7.3325 C.3     1  UNL1        0.0897
     52 C          60.9335   81.9441    8.3298 C.3     1  UNL1        0.0898
@<TRIPOS>BOND
     1    28    29    1
     2    29    26    1
     3    26    27    1
     4    26    20    1
     5    20    21   ar
     6    21    22   ar
     7    22    23   ar
     8    23    14    1
     9    14    15   ar
    10    15    16   ar
    11    16    17   ar
    12    17     7    1
    13     7     8    1
    14     8     9    1
    15     9    10    1
    16    10     1    1
    17     1     2   ar
    18     2     3   ar
    19     3     4   ar
    20     4    30    1
    21    30    31    1
    22    31    32    1
    23    32    33    1
    24    33    34    1
    25    34    35    1
    26    35    45    1
    27    45    46    1
    28    46    47    1
    29    47    48    1
    30    48    49    1
    31    49    50    1
    32    49    51    1
    33    51    52    1
    34    35    37    1
    35    37    38   ar
    36    38    39   ar
    37    39    40   ar
    38    40    41    1
    39    40    42   ar
    40    42    43   ar
    41    43    44    1
    42    35    36    1
    43     4     5   ar
    44     5     6   ar
    45    10    11    1
    46    11    12    1
    47    11    13    1
    48    17    18   ar
    49    18    19   ar
    50    23    24   ar
    51    24    25    2
    52    24    20   ar
    53    19    14   ar
    54    13     7    1
    55     6     1   ar
    56    36    32    1
    57    52    46    1
    58    43    37   ar
@<TRIPOS>MOLECULE
*****
 52 58 0 0 0
SMALL
GASTEIGER

@<TRIPOS>ATOM
      1 C          59.0795   85.5513   10.2411 C.ar    1  UNL1        0.0489
      2 C          58.2242   84.4469   10.0998 C.ar    1  UNL1        0.0177
      3 C          58.0039   83.5822   11.1752 C.ar    1  UNL1        0.0382
      4 C          58.6313   83.8016   12.4067 C.ar    1  UNL1        0.1388
      5 C          59.4808   84.9154   12.5534 C.ar    1  UNL1        0.0382
      6 C          59.7021   85.7798   11.4774 C.ar    1  UNL1        0.0177
      7 N          59.3853   88.3837    7.1488 N.pl3   1  UNL1       -0.3031
      8 C          58.4021   87.3032    7.0193 C.3     1  UNL1        0.1123
      9 C          58.8804   86.0692    7.7831 C.3     1  UNL1        0.1132
     10 N          59.3135   86.4453    9.1365 N.pl3   1  UNL1       -0.2931
     11 C          60.2647   87.5569    9.2910 C.3     1  UNL1        0.1738
     12 CL         61.8825   87.0478    8.7266 Cl      1  UNL1       -0.0910
     13 C          59.7869   88.7809    8.5025 C.3     1  UNL1        0.1277
     14 C          60.3832   90.7822    3.7705 C.ar    1  UNL1        0.0699
     15 C          59.1276   90.9055    4.3901 C.ar    1  UNL1        0.0190
     16 C          58.8034   90.1180    5.4983 C.ar    1  UNL1        0.0160
     17 C          59.7281   89.1962    6.0108 C.ar    1  UNL1        0.0481
     18 C          60.9844   89.0740    5.3967 C.ar    1  UNL1        0.0160
     19 C          61.3103   89.8627    4.2899 C.ar    1  UNL1        0.0190
     20 N          61.8251   92.5901    0.9749 N.ar    1  UNL1       -0.2024
     21 N          60.5861   93.0600    0.9469 N.ar    1  UNL1       -0.1442
     22 C          59.9253   92.4490    1.9544 C.ar    1  UNL1        0.2073
     23 N          60.7267   91.5951    2.6315 N.ar    1  UNL1       -0.2398
     24 C          61.9092   91.7192    1.9966 C.ar    1  UNL1        0.3522
     25 O          62.9701   91.1301    2.3389 O.2     1  UNL1       -0.2444
     26 C          62.9039   93.0333    0.0862 C.3     1  UNL1        0.1099
     27 C          63.2136   91.9248   -0.9267 C.3     1  UNL1        0.0265
     28 C          65.2975   92.4336    0.7645 C.3     1  UNL1        0.0021
     29 C          64.1410   93.4211    0.9222 C.3     1  UNL1        0.0245
     30 O          58.3756   82.8968   13.4500 O.3     1  UNL1       -0.4727
     31 C          58.3836   81.4729   13.3350 C.3     1  UNL1        0.2374
     32 C          58.7116   81.0381   11.9003 C.3     1  UNL1        0.1909
     33 C          58.7617   79.5465   11.7394 C.3     1  UNL1        0.1783
     34 O          59.7698   79.2961   10.8131 O.3     1  UNL1       -0.3271
     35 C          60.5088   80.4983   10.6830 C.3     1  UNL1        0.2232
     36 O          59.9780   81.4867   11.5436 O.3     1  UNL1       -0.3258
     37 C          60.4535   81.0093    9.2365 C.ar    1  UNL1        0.0404
     38 C          59.8729   80.2077    8.2277 C.ar    1  UNL1        0.0021
     39 C          59.8507   80.6291    6.8975 C.ar    1  UNL1        0.0113
     40 C          60.4095   81.8547    6.5411 C.ar    1  UNL1        0.0585
     41 CL         60.3852   82.3772    4.8668 Cl      1  UNL1       -0.0822
     42 C          60.9915   82.6635    7.5174 C.ar    1  UNL1        0.0226
     43 C          61.0225   82.2552    8.8566 C.ar    1  UNL1        0.0591
     44 CL         61.7894   83.3488   10.0059 Cl      1  UNL1       -0.0824
     45 C          61.9710   80.2176   11.1064 C.3     1  UNL1        0.1338
     46 N          62.3760   81.0163   12.2882 N.3     1  UNL1       -0.2659
     47 C          62.2495   80.2290   13.5264 C.3     1  UNL1        0.0898
     48 C          62.4277   81.1400   14.7575 C.3     1  UNL1        0.0897
     49 N          63.3159   82.2995   14.5075 N.3     1  UNL1       -0.2691
     50 C          62.5590   83.5194   14.1743 C.3     1  UNL1        0.0897
     51 C          64.3517   81.9983   13.5014 C.3     1  UNL1        0.0897
     52 C          63.7511   81.5519   12.1495 C.3     1  UNL1        0.0898
@<TRIPOS>BOND
     1    28    29    1
     2    29    26    1
     3    26    27    1
     4    26    20    1
     5    20    21   ar
     6    21    22   ar
     7    22    23   ar
     8    23    14    1
     9    14    15   ar
    10    15    16   ar
    11    16    17   ar
    12    17     7    1
    13     7     8    1
    14     8     9    1
    15     9    10    1
    16    10     1    1
    17     1     2   ar
    18     2     3   ar
    19     3     4   ar
    20     4    30    1
    21    30    31    1
    22    31    32    1
    23    32    33    1
    24    33    34    1
    25    34    35    1
    26    35    45    1
    27    45    46    1
    28    46    47    1
    29    47    48    1
    30    48    49    1
    31    49    50    1
    32    49    51    1
    33    51    52    1
    34    35    37    1
    35    37    38   ar
    36    38    39   ar
    37    39    40   ar
    38    40    41    1
    39    40    42   ar
    40    42    43   ar
    41    43    44    1
    42    35    36    1
    43     4     5   ar
    44     5     6   ar
    45    10    11    1
    46    11    12    1
    47    11    13    1
    48    17    18   ar
    49    18    19   ar
    50    23    24   ar
    51    24    25    2
    52    24    20   ar
    53    19    14   ar
    54    13     7    1
    55     6     1   ar
    56    36    32    1
    57    52    46    1
    58    43    37   ar
@<TRIPOS>MOLECULE
*****
 52 58 0 0 0
SMALL
GASTEIGER

@<TRIPOS>ATOM
      1 C          60.8113   85.2170    9.6907 C.ar    1  UNL1        0.0489
      2 C          62.0858   84.9101   10.1934 C.ar    1  UNL1        0.0177
      3 C          62.2360   83.9530   11.2004 C.ar    1  UNL1        0.0382
      4 C          61.1216   83.2874   11.7236 C.ar    1  UNL1        0.1388
      5 C          59.8437   83.5860   11.2125 C.ar    1  UNL1        0.0382
      6 C          59.6931   84.5443   10.2060 C.ar    1  UNL1        0.0177
      7 N          59.8845   88.0420    6.7177 N.pl3   1  UNL1       -0.3031
      8 C          59.7757   86.6161    6.3926 C.3     1  UNL1        0.1123
      9 C          60.7579   85.8113    7.2426 C.3     1  UNL1        0.1132
     10 N          60.6483   86.2041    8.6548 N.pl3   1  UNL1       -0.2931
     11 C          60.7093   87.6334    8.9978 C.3     1  UNL1        0.1738
     12 CL         62.3786   88.2342    8.7799 Cl      1  UNL1       -0.0910
     13 C          59.7376   88.4334    8.1238 C.3     1  UNL1        0.1277
     14 C          59.7996   90.9600    3.6129 C.ar    1  UNL1        0.0699
     15 C          58.6469   90.6855    4.3691 C.ar    1  UNL1        0.0190
     16 C          58.6779   89.7285    5.3871 C.ar    1  UNL1        0.0160
     17 C          59.8612   89.0311    5.6718 C.ar    1  UNL1        0.0481
     18 C          61.0150   89.3063    4.9213 C.ar    1  UNL1        0.0160
     19 C          60.9855   90.2647    3.9046 C.ar    1  UNL1        0.0190
     20 N          59.4535   93.0078    0.6382 N.ar    1  UNL1       -0.2024
     21 N          60.1058   93.8477    1.4291 N.ar    1  UNL1       -0.1442
     22 C          60.2960   93.1984    2.5983 C.ar    1  UNL1        0.2073
     23 N          59.7767   91.9497    2.5660 N.ar    1  UNL1       -0.2398
     24 C          59.2685   91.8635    1.3206 C.ar    1  UNL1        0.3522
     25 O          58.7273   90.8318    0.8388 O.2     1  UNL1       -0.2444
     26 C          59.0938   93.2860   -0.7559 C.3     1  UNL1        0.1099
     27 C          57.6077   92.9745   -0.9677 C.3     1  UNL1        0.0265
     28 C          61.4565   92.4278   -1.2352 C.3     1  UNL1        0.0021
     29 C          60.0007   92.4704   -1.7003 C.3     1  UNL1        0.0245
     30 O          61.3334   82.3388   12.7374 O.3     1  UNL1       -0.4727
     31 C          61.5494   82.6335   14.1185 C.3     1  UNL1        0.2374
     32 C          62.2214   84.0023   14.2910 C.3     1  UNL1        0.1909
     33 C          62.6515   84.2675   15.7045 C.3     1  UNL1        0.1783
     34 O          62.4554   85.6293   15.9141 O.3     1  UNL1       -0.3271
     35 C          61.6479   86.0920   14.8453 C.3     1  UNL1        0.2232
     36 O          61.3217   85.0172   13.9865 O.3     1  UNL1       -0.3258
     37 C          62.3869   87.1711   14.0416 C.ar    1  UNL1        0.0404
     38 C          62.4052   87.1095   12.6298 C.ar    1  UNL1        0.0021
     39 C          63.1075   88.0520   11.8775 C.ar    1  UNL1        0.0113
     40 C          63.8104   89.0734   12.5131 C.ar    1  UNL1        0.0585
     41 CL         64.6971   90.2519   11.5634 Cl      1  UNL1       -0.0822
     42 C          63.8108   89.1548   13.9056 C.ar    1  UNL1        0.0226
     43 C          63.1116   88.2168   14.6754 C.ar    1  UNL1        0.0591
     44 CL         63.1859   88.4074   16.4255 Cl      1  UNL1       -0.0824
     45 C          60.3348   86.6576   15.4386 C.3     1  UNL1        0.1338
     46 N          59.1650   86.3909   14.5674 N.3     1  UNL1       -0.2659
     47 C          59.4719   86.7019   13.1610 C.3     1  UNL1        0.0898
     48 C          58.1843   86.6632   12.3137 C.3     1  UNL1        0.0897
     49 N          57.1674   85.7181   12.8318 N.3     1  UNL1       -0.2691
     50 C          56.1570   86.3903   13.6681 C.3     1  UNL1        0.0897
     51 C          57.7800   84.5669   13.5211 C.3     1  UNL1        0.0897
     52 C          58.6834   84.9953   14.6993 C.3     1  UNL1        0.0898
@<TRIPOS>BOND
     1    28    29    1
     2    29    26    1
     3    26    27    1
     4    26    20    1
     5    20    21   ar
     6    21    22   ar
     7    22    23   ar
     8    23    14    1
     9    14    15   ar
    10    15    16   ar
    11    16    17   ar
    12    17     7    1
    13     7     8    1
    14     8     9    1
    15     9    10    1
    16    10     1    1
    17     1     2   ar
    18     2     3   ar
    19     3     4   ar
    20     4    30    1
    21    30    31    1
    22    31    32    1
    23    32    33    1
    24    33    34    1
    25    34    35    1
    26    35    45    1
    27    45    46    1
    28    46    47    1
    29    47    48    1
    30    48    49    1
    31    49    50    1
    32    49    51    1
    33    51    52    1
    34    35    37    1
    35    37    38   ar
    36    38    39   ar
    37    39    40   ar
    38    40    41    1
    39    40    42   ar
    40    42    43   ar
    41    43    44    1
    42    35    36    1
    43     4     5   ar
    44     5     6   ar
    45    10    11    1
    46    11    12    1
    47    11    13    1
    48    17    18   ar
    49    18    19   ar
    50    23    24   ar
    51    24    25    2
    52    24    20   ar
    53    19    14   ar
    54    13     7    1
    55     6     1   ar
    56    36    32    1
    57    52    46    1
    58    43    37   ar
