@<TRIPOS>MOLECULE
*****
 45 51 0 0 0
SMALL
GASTEIGER

@<TRIPOS>ATOM
      1 C         -30.6990   48.2880   -8.2968 C.3     1  UNL1        0.0817
      2 C         -31.1754   49.2740   -7.2091 C.3     1  UNL1        0.0252
      3 C         -30.2210   50.4824   -7.2677 C.3     1  UNL1        0.0278
      4 C         -29.0916   50.0033   -8.1024 C.ar    1  UNL1       -0.0248
      5 C         -27.8840   50.6646   -8.3278 C.ar    1  UNL1       -0.0045
      6 C         -26.8893   50.0304   -9.1010 C.ar    1  UNL1       -0.0002
      7 C         -27.1544   48.7591   -9.6620 C.ar    1  UNL1       -0.0003
      8 C         -28.3870   48.1263   -9.4427 C.ar    1  UNL1       -0.0033
      9 C         -29.3369   48.7663   -8.6447 C.ar    1  UNL1       -0.0117
     10 C         -31.1067   45.7998   -8.5940 C.3     1  UNL1        0.1158
     11 N         -31.0492   44.6256   -7.9184 N.3     1  UNL1       -0.2851
     12 C         -30.6093   44.9909   -6.7057 C.3     1  UNL1        0.0910
     13 C         -30.3663   44.1582   -5.6260 C.3     1  UNL1        0.1018
     14 C         -29.8805   44.7503   -4.4531 C.3     1  UNL1        0.3136
     15 N         -29.6436   46.1067   -4.3854 N.am    1  UNL1       -0.1294
     16 C         -29.9605   46.9266   -5.4505 C.2     1  UNL1        0.4047
     17 O         -29.8462   48.1758   -5.3504 O.2     1  UNL1       -0.2174
     18 C         -30.4194   46.3381   -6.6411 C.3     1  UNL1        0.2038
     19 N         -30.7295   46.8805   -7.8463 N.3     1  UNL1       -0.2473
     20 H         -30.3984   43.9788   -8.3640 H       1  UNL1        0.1244
     21 C         -30.4293   45.6402  -10.9916 C.3     1  UNL1        0.0029
     22 C         -31.5840   45.8540  -10.0193 C.3     1  UNL1        0.0326
     23 C         -29.0770   46.6643   -3.1416 C.3     1  UNL1        0.3394
     24 C         -27.6270   46.2561   -2.9505 C.ar    1  UNL1        0.0505
     25 C         -27.3510   44.9820   -2.4202 C.ar    1  UNL1        0.0021
     26 C         -26.0351   44.5574   -2.2322 C.ar    1  UNL1       -0.0001
     27 C         -24.9749   45.3950   -2.5721 C.ar    1  UNL1       -0.0003
     28 C         -25.2258   46.6633   -3.0966 C.ar    1  UNL1       -0.0044
     29 C         -26.5442   47.1169   -3.2778 C.ar    1  UNL1       -0.0193
     30 C         -26.7567   48.4782   -3.8865 C.3     1  UNL1        0.0309
     31 C         -25.5930   50.7066   -9.3587 C.ar    1  UNL1        0.0030
     32 C         -24.6358   50.7159   -8.3314 C.ar    1  UNL1        0.0002
     33 C         -23.3652   51.2499   -8.5404 C.ar    1  UNL1        0.0028
     34 C         -23.0091   51.7863   -9.7872 C.ar    1  UNL1        0.0348
     35 C         -23.9668   51.7909  -10.8180 C.ar    1  UNL1        0.0059
     36 C         -25.2601   51.2762  -10.6164 C.ar    1  UNL1        0.0372
     37 C         -26.2319   51.3862  -11.7307 C.ar    1  UNL1        0.1806
     38 N         -25.9117   51.2582  -13.0328 N.ar    1  UNL1       -0.1084
     39 N         -27.0432   51.4748  -13.6888 N.ar    1  UNL1       -0.0229
     40 N         -28.0188   51.7377  -12.8326 N.ar    1  UNL1       -0.0464
     41 N         -27.5342   51.6919  -11.6055 N.ar    1  UNL1       -0.2388
     42 H         -28.0748   51.8929  -10.7383 H       1  UNL1        0.1923
     43 C         -21.6433   52.3410   -9.9947 C.2     1  UNL1        0.1735
     44 C         -20.8499   52.0558  -11.2349 C.3     1  UNL1        0.0773
     45 O         -21.1253   53.0757   -9.1099 O.2     1  UNL1       -0.2913
@<TRIPOS>BOND
     1    21    22    1
     2    22    10    1
     3    10    11    1
     4    11    12    1
     5    12    13    1
     6    13    14    1
     7    14    15    1
     8    15    23    1
     9    23    24    1
    10    24    25   ar
    11    25    26   ar
    12    26    27   ar
    13    27    28   ar
    14    28    29   ar
    15    29    30    1
    16    15    16    1
    17    16    17    2
    18    16    18    1
    19    18    19    1
    20    19     1    1
    21     1     2    1
    22     2     3    1
    23     3     4    1
    24     4     5   ar
    25     5     6   ar
    26     6    31    1
    27    31    32   ar
    28    32    33   ar
    29    33    34   ar
    30    34    43    1
    31    43    44    1
    32    43    45    2
    33    34    35   ar
    34    35    36   ar
    35    36    37    1
    36    37    38   ar
    37    38    39   ar
    38    39    40   ar
    39    40    41   ar
    40     6     7   ar
    41     7     8   ar
    42     8     9   ar
    43    19    10    1
    44     9     1    1
    45    18    12    1
    46     9     4   ar
    47    29    24   ar
    48    36    31   ar
    49    41    37   ar
    50    41    42    1
    51    11    20    1
@<TRIPOS>MOLECULE
*****
 45 51 0 0 0
SMALL
GASTEIGER

@<TRIPOS>ATOM
      1 C         -30.6688   47.8863   -9.3011 C.3     1  UNL1        0.0817
      2 C         -31.5840   49.1269   -9.2244 C.3     1  UNL1        0.0252
      3 C         -30.7192   50.3329   -9.6393 C.3     1  UNL1        0.0278
      4 C         -29.3322   49.8072   -9.5979 C.ar    1  UNL1       -0.0248
      5 C         -28.1572   50.5467   -9.7349 C.ar    1  UNL1       -0.0045
      6 C         -26.9155   49.8907   -9.6042 C.ar    1  UNL1       -0.0002
      7 C         -26.8906   48.4944   -9.3781 C.ar    1  UNL1       -0.0003
      8 C         -28.0862   47.7685   -9.2706 C.ar    1  UNL1       -0.0033
      9 C         -29.2982   48.4537   -9.3709 C.ar    1  UNL1       -0.0117
     10 C         -31.2377   45.6480   -8.2467 C.3     1  UNL1        0.1158
     11 N         -31.3525   45.0405   -7.0400 N.3     1  UNL1       -0.2851
     12 C         -31.0269   46.0122   -6.1754 C.3     1  UNL1        0.0910
     13 C         -30.9770   45.9117   -4.7950 C.3     1  UNL1        0.1018
     14 C         -30.5832   47.0505   -4.0807 C.3     1  UNL1        0.3136
     15 N         -30.2477   48.2187   -4.7313 N.am    1  UNL1       -0.1294
     16 C         -30.3735   48.3168   -6.1031 C.2     1  UNL1        0.4047
     17 O         -30.1717   49.4138   -6.6856 O.2     1  UNL1       -0.2174
     18 C         -30.7384   47.1711   -6.8303 C.3     1  UNL1        0.2038
     19 N         -30.8635   46.9605   -8.1654 N.3     1  UNL1       -0.2473
     20 H         -30.7088   44.2529   -6.9644 H       1  UNL1        0.1244
     21 C         -30.3608   44.9671  -10.4829 C.3     1  UNL1        0.0029
     22 C         -31.5423   44.9093   -9.5210 C.3     1  UNL1        0.0326
     23 C         -29.7848   49.3675   -3.9282 C.3     1  UNL1        0.3394
     24 C         -28.7998   50.2312   -4.6959 C.ar    1  UNL1        0.0505
     25 C         -27.4805   49.7679   -4.8551 C.ar    1  UNL1        0.0021
     26 C         -26.5399   50.5214   -5.5585 C.ar    1  UNL1       -0.0001
     27 C         -26.9006   51.7464   -6.1155 C.ar    1  UNL1       -0.0003
     28 C         -28.2023   52.2261   -5.9672 C.ar    1  UNL1       -0.0044
     29 C         -29.1605   51.4906   -5.2477 C.ar    1  UNL1       -0.0193
     30 C         -30.5613   52.0362   -5.1544 C.3     1  UNL1        0.0309
     31 C         -25.6467   50.6489   -9.7436 C.ar    1  UNL1        0.0030
     32 C         -24.7589   50.6587   -8.6559 C.ar    1  UNL1        0.0002
     33 C         -23.5106   51.2714   -8.7549 C.ar    1  UNL1        0.0028
     34 C         -23.1077   51.8886   -9.9490 C.ar    1  UNL1        0.0348
     35 C         -23.9966   51.8928  -11.0396 C.ar    1  UNL1        0.0059
     36 C         -25.2682   51.2986  -10.9484 C.ar    1  UNL1        0.0372
     37 C         -26.1720   51.4113  -12.1184 C.ar    1  UNL1        0.1806
     38 N         -25.7707   51.3108  -13.4002 N.ar    1  UNL1       -0.1084
     39 N         -26.8637   51.5196  -14.1209 N.ar    1  UNL1       -0.0229
     40 N         -27.8942   51.7517  -13.3220 N.ar    1  UNL1       -0.0464
     41 N         -27.4846   51.6930  -12.0683 N.ar    1  UNL1       -0.2388
     42 H         -28.0807   51.8702  -11.2329 H       1  UNL1        0.1923
     43 C         -21.7658   52.5270  -10.0394 C.2     1  UNL1        0.1735
     44 C         -21.2265   53.0631  -11.3319 C.3     1  UNL1        0.0773
     45 O         -21.0502   52.6281   -9.0056 O.2     1  UNL1       -0.2913
@<TRIPOS>BOND
     1    21    22    1
     2    22    10    1
     3    10    11    1
     4    11    12    1
     5    12    13    1
     6    13    14    1
     7    14    15    1
     8    15    23    1
     9    23    24    1
    10    24    25   ar
    11    25    26   ar
    12    26    27   ar
    13    27    28   ar
    14    28    29   ar
    15    29    30    1
    16    15    16    1
    17    16    17    2
    18    16    18    1
    19    18    19    1
    20    19     1    1
    21     1     2    1
    22     2     3    1
    23     3     4    1
    24     4     5   ar
    25     5     6   ar
    26     6    31    1
    27    31    32   ar
    28    32    33   ar
    29    33    34   ar
    30    34    43    1
    31    43    44    1
    32    43    45    2
    33    34    35   ar
    34    35    36   ar
    35    36    37    1
    36    37    38   ar
    37    38    39   ar
    38    39    40   ar
    39    40    41   ar
    40     6     7   ar
    41     7     8   ar
    42     8     9   ar
    43    19    10    1
    44     9     1    1
    45    18    12    1
    46     9     4   ar
    47    29    24   ar
    48    36    31   ar
    49    41    37   ar
    50    41    42    1
    51    11    20    1
@<TRIPOS>MOLECULE
*****
 45 51 0 0 0
SMALL
GASTEIGER

@<TRIPOS>ATOM
      1 C         -30.3998   48.9255   -7.9438 C.3     1  UNL1        0.0817
      2 C         -30.7071   49.9807   -6.8600 C.3     1  UNL1        0.0252
      3 C         -29.7066   51.1325   -7.0768 C.3     1  UNL1        0.0278
      4 C         -28.6989   50.5587   -8.0026 C.ar    1  UNL1       -0.0248
      5 C         -27.4919   51.1441   -8.3857 C.ar    1  UNL1       -0.0045
      6 C         -26.6188   50.4254   -9.2288 C.ar    1  UNL1       -0.0002
      7 C         -27.0049   49.1476   -9.6974 C.ar    1  UNL1       -0.0003
      8 C         -28.2360   48.5918   -9.3190 C.ar    1  UNL1       -0.0033
      9 C         -29.0616   49.3149   -8.4563 C.ar    1  UNL1       -0.0117
     10 C         -30.8532   46.4335   -8.1177 C.3     1  UNL1        0.1158
     11 N         -30.8094   45.2922   -7.3871 N.3     1  UNL1       -0.2851
     12 C         -30.3514   45.7072   -6.1973 C.3     1  UNL1        0.0910
     13 C         -30.1124   44.9229   -5.0811 C.3     1  UNL1        0.1018
     14 C         -29.6051   45.5617   -3.9424 C.3     1  UNL1        0.3136
     15 N         -29.3442   46.9154   -3.9419 N.am    1  UNL1       -0.1294
     16 C         -29.6573   47.6889   -5.0422 C.2     1  UNL1        0.4047
     17 O         -29.5205   48.9392   -5.0031 O.2     1  UNL1       -0.2174
     18 C         -30.1378   47.0523   -6.1991 C.3     1  UNL1        0.2038
     19 N         -30.4502   47.5419   -7.4261 N.3     1  UNL1       -0.2473
     20 H         -30.1742   44.6134   -7.8069 H       1  UNL1        0.1244
     21 C         -30.4009   45.6373  -10.4403 C.3     1  UNL1        0.0029
     22 C         -31.3433   46.4280   -9.5397 C.3     1  UNL1        0.0326
     23 C         -28.7560   47.5217   -2.7313 C.3     1  UNL1        0.3394
     24 C         -29.6320   47.3051   -1.5101 C.ar    1  UNL1        0.0505
     25 C         -29.4031   46.1695   -0.7109 C.ar    1  UNL1        0.0021
     26 C         -30.1763   45.9297    0.4257 C.ar    1  UNL1       -0.0001
     27 C         -31.1873   46.8189    0.7839 C.ar    1  UNL1       -0.0003
     28 C         -31.4332   47.9494    0.0041 C.ar    1  UNL1       -0.0044
     29 C         -30.6770   48.2004   -1.1543 C.ar    1  UNL1       -0.0193
     30 C         -30.9578   49.4574   -1.9353 C.3     1  UNL1        0.0309
     31 C         -25.3265   51.0195   -9.6542 C.ar    1  UNL1        0.0030
     32 C         -24.2906   51.0960   -8.7095 C.ar    1  UNL1        0.0002
     33 C         -23.0244   51.5549   -9.0695 C.ar    1  UNL1        0.0028
     34 C         -22.7523   51.9460  -10.3894 C.ar    1  UNL1        0.0348
     35 C         -23.7886   51.8831  -11.3390 C.ar    1  UNL1        0.0059
     36 C         -25.0773   51.4436  -10.9865 C.ar    1  UNL1        0.0372
     37 C         -26.1310   51.4774  -12.0290 C.ar    1  UNL1        0.1806
     38 N         -25.8964   51.3552  -13.3498 N.ar    1  UNL1       -0.1084
     39 N         -27.0835   51.4903  -13.9245 N.ar    1  UNL1       -0.0229
     40 N         -28.0108   51.6995  -13.0023 N.ar    1  UNL1       -0.0464
     41 N         -27.4382   51.6994  -11.8129 N.ar    1  UNL1       -0.2388
     42 H         -27.9278   51.8751  -10.9106 H       1  UNL1        0.1923
     43 C         -21.3905   52.4218  -10.7575 C.2     1  UNL1        0.1735
     44 C         -20.1503   51.7194  -10.2911 C.3     1  UNL1        0.0773
     45 O         -21.2603   53.4447  -11.4841 O.2     1  UNL1       -0.2913
@<TRIPOS>BOND
     1    21    22    1
     2    22    10    1
     3    10    11    1
     4    11    12    1
     5    12    13    1
     6    13    14    1
     7    14    15    1
     8    15    23    1
     9    23    24    1
    10    24    25   ar
    11    25    26   ar
    12    26    27   ar
    13    27    28   ar
    14    28    29   ar
    15    29    30    1
    16    15    16    1
    17    16    17    2
    18    16    18    1
    19    18    19    1
    20    19     1    1
    21     1     2    1
    22     2     3    1
    23     3     4    1
    24     4     5   ar
    25     5     6   ar
    26     6    31    1
    27    31    32   ar
    28    32    33   ar
    29    33    34   ar
    30    34    43    1
    31    43    44    1
    32    43    45    2
    33    34    35   ar
    34    35    36   ar
    35    36    37    1
    36    37    38   ar
    37    38    39   ar
    38    39    40   ar
    39    40    41   ar
    40     6     7   ar
    41     7     8   ar
    42     8     9   ar
    43    19    10    1
    44     9     1    1
    45    18    12    1
    46     9     4   ar
    47    29    24   ar
    48    36    31   ar
    49    41    37   ar
    50    41    42    1
    51    11    20    1
@<TRIPOS>MOLECULE
*****
 45 51 0 0 0
SMALL
GASTEIGER

@<TRIPOS>ATOM
      1 C         -26.2093   50.8705   -7.2901 C.3     1  UNL1        0.0817
      2 C         -26.6013   52.2466   -6.7112 C.3     1  UNL1        0.0252
      3 C         -27.1283   51.9863   -5.2867 C.3     1  UNL1        0.0278
      4 C         -27.3316   50.5170   -5.2456 C.ar    1  UNL1       -0.0248
      5 C         -27.9498   49.7903   -4.2278 C.ar    1  UNL1       -0.0045
      6 C         -28.1162   48.3984   -4.3833 C.ar    1  UNL1       -0.0002
      7 C         -27.6174   47.7674   -5.5471 C.ar    1  UNL1       -0.0003
      8 C         -26.9757   48.5165   -6.5445 C.ar    1  UNL1       -0.0033
      9 C         -26.8576   49.8970   -6.3750 C.ar    1  UNL1       -0.0117
     10 C         -25.7880   50.7544   -9.7910 C.3     1  UNL1        0.1158
     11 N         -26.4347   50.5848  -10.9706 N.3     1  UNL1       -0.2851
     12 C         -27.7117   50.4160  -10.5987 C.3     1  UNL1        0.0910
     13 C         -28.7957   50.1935  -11.4315 C.3     1  UNL1        0.1018
     14 C         -30.0465   50.0164  -10.8264 C.3     1  UNL1        0.3136
     15 N         -30.1856   50.0507   -9.4552 N.am    1  UNL1       -0.1294
     16 C         -29.1036   50.3448   -8.6491 C.2     1  UNL1        0.4047
     17 O         -29.2519   50.4830   -7.4071 O.2     1  UNL1       -0.2174
     18 C         -27.8397   50.4938   -9.2449 C.3     1  UNL1        0.2038
     19 N         -26.6139   50.7075   -8.7024 N.3     1  UNL1       -0.2473
     20 H         -26.0858   49.7631  -11.4641 H       1  UNL1        0.1244
     21 C         -23.8741   51.9395  -10.8705 C.3     1  UNL1        0.0029
     22 C         -24.3056   51.0046   -9.7461 C.3     1  UNL1        0.0326
     23 C         -31.5188   49.7998   -8.8732 C.3     1  UNL1        0.3394
     24 C         -31.5236   48.5673   -7.9864 C.ar    1  UNL1        0.0505
     25 C         -31.4851   47.2995   -8.5962 C.ar    1  UNL1        0.0021
     26 C         -31.4804   46.1368   -7.8247 C.ar    1  UNL1       -0.0001
     27 C         -31.5117   46.2201   -6.4343 C.ar    1  UNL1       -0.0003
     28 C         -31.5531   47.4667   -5.8091 C.ar    1  UNL1       -0.0044
     29 C         -31.5757   48.6499   -6.5683 C.ar    1  UNL1       -0.0193
     30 C         -31.5784   49.9687   -5.8407 C.3     1  UNL1        0.0309
     31 C         -28.7707   47.5963   -3.3192 C.ar    1  UNL1        0.0030
     32 C         -30.0554   47.9768   -2.8995 C.ar    1  UNL1        0.0002
     33 C         -30.7629   47.2118   -1.9734 C.ar    1  UNL1        0.0028
     34 C         -30.2096   46.0368   -1.4422 C.ar    1  UNL1        0.0348
     35 C         -28.9179   45.6553   -1.8494 C.ar    1  UNL1        0.0059
     36 C         -28.1824   46.4281   -2.7658 C.ar    1  UNL1        0.0372
     37 C         -26.8007   45.9959   -3.0858 C.ar    1  UNL1        0.1806
     38 N         -26.4966   44.9501   -3.8782 N.ar    1  UNL1       -0.1084
     39 N         -25.1730   44.8772   -3.8600 N.ar    1  UNL1       -0.0229
     40 N         -24.6789   45.8275   -3.0810 N.ar    1  UNL1       -0.0464
     41 N         -25.6768   46.5348   -2.5844 N.ar    1  UNL1       -0.2388
     42 H         -25.5773   47.3243   -1.9125 H       1  UNL1        0.1923
     43 C         -30.9855   45.2265   -0.4635 C.2     1  UNL1        0.1735
     44 C         -31.1809   45.6685    0.9561 C.3     1  UNL1        0.0773
     45 O         -31.5009   44.1335   -0.8253 O.2     1  UNL1       -0.2913
@<TRIPOS>BOND
     1    21    22    1
     2    22    10    1
     3    10    11    1
     4    11    12    1
     5    12    13    1
     6    13    14    1
     7    14    15    1
     8    15    23    1
     9    23    24    1
    10    24    25   ar
    11    25    26   ar
    12    26    27   ar
    13    27    28   ar
    14    28    29   ar
    15    29    30    1
    16    15    16    1
    17    16    17    2
    18    16    18    1
    19    18    19    1
    20    19     1    1
    21     1     2    1
    22     2     3    1
    23     3     4    1
    24     4     5   ar
    25     5     6   ar
    26     6    31    1
    27    31    32   ar
    28    32    33   ar
    29    33    34   ar
    30    34    43    1
    31    43    44    1
    32    43    45    2
    33    34    35   ar
    34    35    36   ar
    35    36    37    1
    36    37    38   ar
    37    38    39   ar
    38    39    40   ar
    39    40    41   ar
    40     6     7   ar
    41     7     8   ar
    42     8     9   ar
    43    19    10    1
    44     9     1    1
    45    18    12    1
    46     9     4   ar
    47    29    24   ar
    48    36    31   ar
    49    41    37   ar
    50    41    42    1
    51    11    20    1
@<TRIPOS>MOLECULE
*****
 45 51 0 0 0
SMALL
GASTEIGER

@<TRIPOS>ATOM
      1 C         -29.9233   50.5525  -11.7454 C.3     1  UNL1        0.0817
      2 C         -30.6131   50.9475  -10.4223 C.3     1  UNL1        0.0252
      3 C         -29.5487   51.6707   -9.5747 C.3     1  UNL1        0.0278
      4 C         -28.2731   51.3640  -10.2680 C.ar    1  UNL1       -0.0248
      5 C         -26.9870   51.6517   -9.8106 C.ar    1  UNL1       -0.0045
      6 C         -25.8780   51.2286  -10.5726 C.ar    1  UNL1       -0.0002
      7 C         -26.0961   50.5595  -11.7998 C.ar    1  UNL1       -0.0003
      8 C         -27.3998   50.3054  -12.2511 C.ar    1  UNL1       -0.0033
      9 C         -28.4749   50.7073  -11.4566 C.ar    1  UNL1       -0.0117
     10 C         -30.6137   48.1342  -11.3977 C.3     1  UNL1        0.1158
     11 N         -30.8952   47.0003  -12.0857 N.3     1  UNL1       -0.2851
     12 C         -30.7496   47.3738  -13.3651 C.3     1  UNL1        0.0910
     13 C         -30.9326   46.5818  -14.4864 C.3     1  UNL1        0.1018
     14 C         -30.7530   47.1859  -15.7374 C.3     1  UNL1        0.3136
     15 N         -30.4195   48.5194  -15.8431 N.am    1  UNL1       -0.1294
     16 C         -30.1726   49.2709  -14.7111 C.2     1  UNL1        0.4047
     17 O         -29.7634   50.4568  -14.8091 O.2     1  UNL1       -0.2174
     18 C         -30.3799   48.6818  -13.4523 C.3     1  UNL1        0.2038
     19 N         -30.2895   49.1940  -12.1984 N.3     1  UNL1       -0.2473
     20 H         -31.8489   46.6884  -11.9021 H       1  UNL1        0.1244
     21 C         -29.4375   47.4085   -9.3186 C.3     1  UNL1        0.0029
     22 C         -30.6349   48.1567   -9.8940 C.3     1  UNL1        0.0326
     23 C         -30.3005   49.1140  -17.1889 C.3     1  UNL1        0.3394
     24 C         -28.8662   49.0983  -17.6870 C.ar    1  UNL1        0.0505
     25 C         -28.0187   50.1639  -17.3310 C.ar    1  UNL1        0.0021
     26 C         -26.6904   50.1920  -17.7576 C.ar    1  UNL1       -0.0001
     27 C         -26.1864   49.1577  -18.5432 C.ar    1  UNL1       -0.0003
     28 C         -27.0100   48.0930  -18.9103 C.ar    1  UNL1       -0.0044
     29 C         -28.3558   48.0541  -18.5053 C.ar    1  UNL1       -0.0193
     30 C         -29.1877   46.8605  -18.8953 C.3     1  UNL1        0.0309
     31 C         -24.4962   51.5181  -10.1134 C.ar    1  UNL1        0.0030
     32 C         -23.6243   52.1635  -11.0048 C.ar    1  UNL1        0.0002
     33 C         -22.3456   52.5485  -10.6045 C.ar    1  UNL1        0.0028
     34 C         -21.9006   52.3057   -9.2961 C.ar    1  UNL1        0.0348
     35 C         -22.7646   51.6490   -8.4005 C.ar    1  UNL1        0.0059
     36 C         -24.0492   51.2344   -8.7955 C.ar    1  UNL1        0.0372
     37 C         -24.8682   50.4838   -7.8137 C.ar    1  UNL1        0.1806
     38 N         -25.0131   49.1446   -7.8118 N.ar    1  UNL1       -0.1084
     39 N         -25.8534   48.8904   -6.8184 N.ar    1  UNL1       -0.0229
     40 N         -26.2229   50.0221   -6.2382 N.ar    1  UNL1       -0.0464
     41 N         -25.6235   51.0293   -6.8457 N.ar    1  UNL1       -0.2388
     42 H         -25.7599   52.0360   -6.6164 H       1  UNL1        0.1923
     43 C         -20.5361   52.7352   -8.8836 C.2     1  UNL1        0.1735
     44 C         -19.8294   53.8801   -9.5460 C.3     1  UNL1        0.0773
     45 O         -19.9447   52.1280   -7.9495 O.2     1  UNL1       -0.2913
@<TRIPOS>BOND
     1    21    22    1
     2    22    10    1
     3    10    11    1
     4    11    12    1
     5    12    13    1
     6    13    14    1
     7    14    15    1
     8    15    23    1
     9    23    24    1
    10    24    25   ar
    11    25    26   ar
    12    26    27   ar
    13    27    28   ar
    14    28    29   ar
    15    29    30    1
    16    15    16    1
    17    16    17    2
    18    16    18    1
    19    18    19    1
    20    19     1    1
    21     1     2    1
    22     2     3    1
    23     3     4    1
    24     4     5   ar
    25     5     6   ar
    26     6    31    1
    27    31    32   ar
    28    32    33   ar
    29    33    34   ar
    30    34    43    1
    31    43    44    1
    32    43    45    2
    33    34    35   ar
    34    35    36   ar
    35    36    37    1
    36    37    38   ar
    37    38    39   ar
    38    39    40   ar
    39    40    41   ar
    40     6     7   ar
    41     7     8   ar
    42     8     9   ar
    43    19    10    1
    44     9     1    1
    45    18    12    1
    46     9     4   ar
    47    29    24   ar
    48    36    31   ar
    49    41    37   ar
    50    41    42    1
    51    11    20    1
@<TRIPOS>MOLECULE
*****
 45 51 0 0 0
SMALL
GASTEIGER

@<TRIPOS>ATOM
      1 C         -30.7557   48.3398  -10.0079 C.3     1  UNL1        0.0817
      2 C         -31.4514   49.4152   -9.1465 C.3     1  UNL1        0.0252
      3 C         -30.4625   50.5917   -9.0354 C.3     1  UNL1        0.0278
      4 C         -29.1790   50.0243   -9.5176 C.ar    1  UNL1       -0.0248
      5 C         -27.9266   50.6368   -9.4664 C.ar    1  UNL1       -0.0045
      6 C         -26.7956   49.9227   -9.9139 C.ar    1  UNL1       -0.0002
      7 C         -26.9631   48.6204  -10.4404 C.ar    1  UNL1       -0.0003
      8 C         -28.2369   48.0364  -10.5057 C.ar    1  UNL1       -0.0033
      9 C         -29.3306   48.7570  -10.0231 C.ar    1  UNL1       -0.0117
     10 C         -31.3155   45.8729  -10.2237 C.3     1  UNL1        0.1158
     11 N         -31.4465   44.7445   -9.4835 N.3     1  UNL1       -0.2851
     12 C         -31.1518   45.1563   -8.2420 C.3     1  UNL1        0.0910
     13 C         -31.1287   44.3811   -7.0946 C.3     1  UNL1        0.1018
     14 C         -30.7650   45.0127   -5.8983 C.3     1  UNL1        0.3136
     15 N         -30.4323   46.3503   -5.8718 N.am    1  UNL1       -0.1294
     16 C         -30.5315   47.1190   -7.0148 C.2     1  UNL1        0.4047
     17 O         -30.3328   48.3607   -6.9679 O.2     1  UNL1       -0.2174
     18 C         -30.8658   46.4878   -8.2249 C.3     1  UNL1        0.2038
     19 N         -30.9609   46.9707   -9.4900 N.3     1  UNL1       -0.2473
     20 H         -30.7938   44.0251   -9.7948 H       1  UNL1        0.1244
     21 C         -30.2864   45.9833  -12.4956 C.3     1  UNL1        0.0029
     22 C         -31.5840   45.8673  -11.7036 C.3     1  UNL1        0.0326
     23 C         -30.0015   46.9465   -4.5920 C.3     1  UNL1        0.3394
     24 C         -28.6948   46.3475   -4.1029 C.ar    1  UNL1        0.0505
     25 C         -27.5622   46.4344   -4.9338 C.ar    1  UNL1        0.0021
     26 C         -26.3366   45.9058   -4.5267 C.ar    1  UNL1       -0.0001
     27 C         -26.2209   45.2850   -3.2849 C.ar    1  UNL1       -0.0003
     28 C         -27.3317   45.1852   -2.4465 C.ar    1  UNL1       -0.0044
     29 C         -28.5795   45.6960   -2.8449 C.ar    1  UNL1       -0.0193
     30 C         -29.7345   45.5978   -1.8830 C.3     1  UNL1        0.0309
     31 C         -25.4486   50.5455   -9.8720 C.ar    1  UNL1        0.0030
     32 C         -24.8225   50.8506  -11.0911 C.ar    1  UNL1        0.0002
     33 C         -23.6008   51.5215  -11.1214 C.ar    1  UNL1        0.0028
     34 C         -22.9692   51.9147   -9.9316 C.ar    1  UNL1        0.0348
     35 C         -23.5850   51.6021   -8.7057 C.ar    1  UNL1        0.0059
     36 C         -24.8063   50.9062   -8.6577 C.ar    1  UNL1        0.0372
     37 C         -25.3507   50.5516   -7.3250 C.ar    1  UNL1        0.1806
     38 N         -25.6178   49.2937   -6.9242 N.ar    1  UNL1       -0.1084
     39 N         -26.1303   49.4211   -5.7081 N.ar    1  UNL1       -0.0229
     40 N         -26.1899   50.7014   -5.3747 N.ar    1  UNL1       -0.0464
     41 N         -25.7125   51.4249   -6.3703 N.ar    1  UNL1       -0.2388
     42 H         -25.6723   52.4654   -6.3913 H       1  UNL1        0.1923
     43 C         -21.6708   52.6410   -9.9847 C.2     1  UNL1        0.1735
     44 C         -20.5252   52.1602  -10.8246 C.3     1  UNL1        0.0773
     45 O         -21.5152   53.6947   -9.3089 O.2     1  UNL1       -0.2913
@<TRIPOS>BOND
     1    21    22    1
     2    22    10    1
     3    10    11    1
     4    11    12    1
     5    12    13    1
     6    13    14    1
     7    14    15    1
     8    15    23    1
     9    23    24    1
    10    24    25   ar
    11    25    26   ar
    12    26    27   ar
    13    27    28   ar
    14    28    29   ar
    15    29    30    1
    16    15    16    1
    17    16    17    2
    18    16    18    1
    19    18    19    1
    20    19     1    1
    21     1     2    1
    22     2     3    1
    23     3     4    1
    24     4     5   ar
    25     5     6   ar
    26     6    31    1
    27    31    32   ar
    28    32    33   ar
    29    33    34   ar
    30    34    43    1
    31    43    44    1
    32    43    45    2
    33    34    35   ar
    34    35    36   ar
    35    36    37    1
    36    37    38   ar
    37    38    39   ar
    38    39    40   ar
    39    40    41   ar
    40     6     7   ar
    41     7     8   ar
    42     8     9   ar
    43    19    10    1
    44     9     1    1
    45    18    12    1
    46     9     4   ar
    47    29    24   ar
    48    36    31   ar
    49    41    37   ar
    50    41    42    1
    51    11    20    1
@<TRIPOS>MOLECULE
*****
 45 51 0 0 0
SMALL
GASTEIGER

@<TRIPOS>ATOM
      1 C         -28.6694   50.7433   -6.8245 C.3     1  UNL1        0.0817
      2 C         -30.1174   51.1403   -7.1825 C.3     1  UNL1        0.0252
      3 C         -30.9628   50.8916   -5.9184 C.3     1  UNL1        0.0278
      4 C         -30.0755   50.0774   -5.0515 C.ar    1  UNL1       -0.0248
      5 C         -30.4265   49.4517   -3.8551 C.ar    1  UNL1       -0.0045
      6 C         -29.4684   48.6589   -3.1895 C.ar    1  UNL1       -0.0002
      7 C         -28.1651   48.5499   -3.7287 C.ar    1  UNL1       -0.0003
      8 C         -27.8289   49.2105   -4.9196 C.ar    1  UNL1       -0.0033
      9 C         -28.8103   49.9595   -5.5711 C.ar    1  UNL1       -0.0117
     10 C         -28.3046   48.7390   -8.3396 C.3     1  UNL1        0.1158
     11 N         -27.5097   48.2984   -9.3457 N.3     1  UNL1       -0.2851
     12 C         -26.6798   49.3304   -9.5550 C.3     1  UNL1        0.0910
     13 C         -25.6650   49.4014  -10.4949 C.3     1  UNL1        0.1018
     14 C         -24.9316   50.5929  -10.5616 C.3     1  UNL1        0.3136
     15 N         -25.2205   51.6544   -9.7307 N.am    1  UNL1       -0.1294
     16 C         -26.1892   51.5351   -8.7537 C.2     1  UNL1        0.4047
     17 O         -26.3785   52.4638   -7.9259 O.2     1  UNL1       -0.2174
     18 C         -26.9503   50.3551   -8.6994 C.3     1  UNL1        0.2038
     19 N         -27.9952   49.9993   -7.9093 N.3     1  UNL1       -0.2473
     20 H         -28.0572   48.0940  -10.1816 H       1  UNL1        0.1244
     21 C         -28.8227   46.5234   -7.3121 C.3     1  UNL1        0.0029
     22 C         -29.3860   47.8661   -7.7641 C.3     1  UNL1        0.0326
     23 C         -24.4511   52.9045   -9.8870 C.3     1  UNL1        0.3394
     24 C         -22.9550   52.6462   -9.9091 C.ar    1  UNL1        0.0505
     25 C         -22.3553   52.0679   -8.7748 C.ar    1  UNL1        0.0021
     26 C         -20.9853   51.8041   -8.7486 C.ar    1  UNL1       -0.0001
     27 C         -20.1931   52.1105   -9.8530 C.ar    1  UNL1       -0.0003
     28 C         -20.7665   52.6871  -10.9868 C.ar    1  UNL1       -0.0044
     29 C         -22.1417   52.9766  -11.0271 C.ar    1  UNL1       -0.0193
     30 C         -22.7147   53.5604  -12.2918 C.3     1  UNL1        0.0309
     31 C         -29.8103   47.9789   -1.9148 C.ar    1  UNL1        0.0030
     32 C         -30.3150   48.7601   -0.8629 C.ar    1  UNL1        0.0002
     33 C         -30.7437   48.1710    0.3257 C.ar    1  UNL1        0.0028
     34 C         -30.6872   46.7795    0.4972 C.ar    1  UNL1        0.0348
     35 C         -30.1718   45.9912   -0.5481 C.ar    1  UNL1        0.0059
     36 C         -29.7145   46.5722   -1.7446 C.ar    1  UNL1        0.0372
     37 C         -29.1182   45.6783   -2.7661 C.ar    1  UNL1        0.1806
     38 N         -29.7011   45.3734   -3.9416 N.ar    1  UNL1       -0.1084
     39 N         -28.8731   44.5182   -4.5252 N.ar    1  UNL1       -0.0229
     40 N         -27.8296   44.2930   -3.7414 N.ar    1  UNL1       -0.0464
     41 N         -27.9638   45.0034   -2.6368 N.ar    1  UNL1       -0.2388
     42 H         -27.3040   44.9912   -1.8310 H       1  UNL1        0.1923
     43 C         -31.1611   46.1678    1.7691 C.2     1  UNL1        0.1735
     44 C         -31.5836   47.0008    2.9423 C.3     1  UNL1        0.0773
     45 O         -31.2153   44.9122    1.8774 O.2     1  UNL1       -0.2913
@<TRIPOS>BOND
     1    21    22    1
     2    22    10    1
     3    10    11    1
     4    11    12    1
     5    12    13    1
     6    13    14    1
     7    14    15    1
     8    15    23    1
     9    23    24    1
    10    24    25   ar
    11    25    26   ar
    12    26    27   ar
    13    27    28   ar
    14    28    29   ar
    15    29    30    1
    16    15    16    1
    17    16    17    2
    18    16    18    1
    19    18    19    1
    20    19     1    1
    21     1     2    1
    22     2     3    1
    23     3     4    1
    24     4     5   ar
    25     5     6   ar
    26     6    31    1
    27    31    32   ar
    28    32    33   ar
    29    33    34   ar
    30    34    43    1
    31    43    44    1
    32    43    45    2
    33    34    35   ar
    34    35    36   ar
    35    36    37    1
    36    37    38   ar
    37    38    39   ar
    38    39    40   ar
    39    40    41   ar
    40     6     7   ar
    41     7     8   ar
    42     8     9   ar
    43    19    10    1
    44     9     1    1
    45    18    12    1
    46     9     4   ar
    47    29    24   ar
    48    36    31   ar
    49    41    37   ar
    50    41    42    1
    51    11    20    1
