@<TRIPOS>MOLECULE
*****
 52 57 0 0 0
SMALL
GASTEIGER

@<TRIPOS>ATOM
      1 O           9.6343   77.1161   27.5824 O.2     1  UNL1       -0.2701
      2 C           8.4075   77.4080   27.5533 C.2     1  UNL1        0.2483
      3 N           7.7684   77.9506   28.7216 N.am    1  UNL1       -0.2945
      4 H           6.7523   78.1879   28.6656 H       1  UNL1        0.1501
      5 C           7.6264   77.1063   26.3374 C.ar    1  UNL1        0.0806
      6 C           6.2356   76.9441   26.4394 C.ar    1  UNL1        0.0061
      7 C           5.4515   76.7008   25.3009 C.ar    1  UNL1        0.0206
      8 C           6.0807   76.5939   24.0414 C.ar    1  UNL1        0.0485
      9 C           7.4703   76.7363   23.9437 C.ar    1  UNL1        0.0440
     10 C           8.2417   76.9908   25.0796 C.ar    1  UNL1        0.1457
     11 F           9.5897   77.0805   24.9511 F       1  UNL1       -0.2040
     12 N           5.3241   76.3515   22.8486 N.pl3   1  UNL1       -0.3042
     13 C           4.2545   77.2827   22.4769 C.3     1  UNL1        0.1123
     14 C           3.6152   76.8957   21.1387 C.3     1  UNL1        0.1136
     15 N           3.3035   75.4568   21.1062 N.pl3   1  UNL1       -0.2897
     16 C           4.2616   74.4857   21.6664 C.3     1  UNL1        0.1136
     17 C           5.5853   75.1502   22.0529 C.3     1  UNL1        0.1123
     18 C           2.1420   74.9947   20.3787 C.ar    1  UNL1        0.1318
     19 C           1.4380   75.8437   19.5064 C.ar    1  UNL1        0.0343
     20 C           0.3202   75.3609   18.8240 C.ar    1  UNL1        0.0083
     21 C          -0.1124   74.0413   19.0189 C.ar    1  UNL1        0.0906
     22 C           0.6327   73.2161   19.8742 C.ar    1  UNL1        0.1041
     23 N           1.7187   73.7076   20.5267 N.ar    1  UNL1       -0.2292
     24 C          -1.2872   73.4937   18.2493 C.3     1  UNL1        0.4200
     25 F          -2.4677   73.7170   18.9368 F       1  UNL1       -0.1658
     26 F          -1.3571   74.1196   17.0188 F       1  UNL1       -0.1658
     27 F          -1.1507   72.1301   18.0549 F       1  UNL1       -0.1658
     28 C           3.9606   76.5392   25.4707 C.3     1  UNL1        0.1648
     29 O           3.5492   77.0994   26.6873 O.3     1  UNL1       -0.3772
     30 H           3.8288   76.4672   27.3995 H       1  UNL1        0.2109
     31 C           8.3524   77.8062   30.0609 C.3     1  UNL1        0.1535
     32 C           9.0461   79.0795   30.4658 C.2     1  UNL1        0.2443
     33 O          10.3051   79.1479   30.4186 O.2     1  UNL1       -0.2730
     34 N           8.2688   80.2388   30.8060 N.am    1  UNL1       -0.2825
     35 H           7.2623   80.2499   30.5238 H       1  UNL1        0.1549
     36 C           8.8133   81.4256   31.4083 C.ar    1  UNL1        0.0535
     37 C           9.5277   82.3724   30.6544 C.ar    1  UNL1        0.0353
     38 C          10.0598   83.4981   31.2884 C.ar    1  UNL1        0.1002
     39 N           9.8989   83.6677   32.6273 N.ar    1  UNL1       -0.2422
     40 C           9.2288   82.7592   33.3842 C.ar    1  UNL1        0.1002
     41 C           8.6820   81.6191   32.7903 C.ar    1  UNL1        0.0353
     42 C           7.2610   77.4508   31.0873 C.3     1  UNL1        0.0569
     43 C           6.1131   76.7268   30.4421 C.ar    1  UNL1       -0.0017
     44 C           4.8210   77.2176   30.2722 C.ar    1  UNL1        0.0681
     45 N           4.0895   76.3713   29.5122 N.ar    1  UNL1       -0.3523
     46 C           4.9114   75.3576   29.1901 C.ar    1  UNL1        0.0563
     47 C           4.6231   74.2642   28.3750 C.ar    1  UNL1        0.0170
     48 C           5.6532   73.3379   28.1293 C.ar    1  UNL1        0.0015
     49 C           6.9355   73.5275   28.6909 C.ar    1  UNL1        0.0001
     50 C           7.1997   74.6445   29.5040 C.ar    1  UNL1        0.0012
     51 C           6.1559   75.5401   29.7373 C.ar    1  UNL1        0.0131
     52 H           3.0993   76.5023   29.2076 H       1  UNL1        0.1660
@<TRIPOS>BOND
     1     1     2    2
     2     2     3   am
     3     3    31    1
     4    31    42    1
     5    42    43    1
     6    43    44   ar
     7    44    45   ar
     8    45    46   ar
     9    46    47   ar
    10    47    48   ar
    11    48    49   ar
    12    49    50   ar
    13    50    51   ar
    14    31    32    1
    15    32    33    2
    16    32    34   am
    17    34    36    1
    18    36    37   ar
    19    37    38   ar
    20    38    39   ar
    21    39    40   ar
    22    40    41   ar
    23     2     5    1
    24     5     6   ar
    25     6     7   ar
    26     7    28    1
    27    28    29    1
    28     7     8   ar
    29     8    12    1
    30    12    13    1
    31    13    14    1
    32    14    15    1
    33    15    18    1
    34    18    19   ar
    35    19    20   ar
    36    20    21   ar
    37    21    24    1
    38    24    25    1
    39    24    26    1
    40    24    27    1
    41    21    22   ar
    42    22    23   ar
    43    15    16    1
    44    16    17    1
    45     8     9   ar
    46     9    10   ar
    47    10    11    1
    48    51    43   ar
    49    41    36   ar
    50    10     5   ar
    51    51    46   ar
    52    17    12    1
    53    23    18   ar
    54     3     4    1
    55    45    52    1
    56    34    35    1
    57    29    30    1
@<TRIPOS>MOLECULE
*****
 52 57 0 0 0
SMALL
GASTEIGER

@<TRIPOS>ATOM
      1 O           9.5447   77.5469   27.5900 O.2     1  UNL1       -0.2701
      2 C           8.2857   77.6244   27.5956 C.2     1  UNL1        0.2483
      3 N           7.5886   77.9342   28.8146 N.am    1  UNL1       -0.2945
      4 H           6.5459   77.9970   28.7870 H       1  UNL1        0.1501
      5 C           7.5417   77.3106   26.3596 C.ar    1  UNL1        0.0806
      6 C           8.2513   77.1118   25.1648 C.ar    1  UNL1        0.0061
      7 C           7.5854   76.7679   23.9780 C.ar    1  UNL1        0.0206
      8 C           6.1787   76.6463   23.9881 C.ar    1  UNL1        0.0485
      9 C           5.4702   76.8642   25.1761 C.ar    1  UNL1        0.0440
     10 C           6.1415   77.1937   26.3554 C.ar    1  UNL1        0.1457
     11 F           5.4172   77.4387   27.4766 F       1  UNL1       -0.2040
     12 N           5.4528   76.2922   22.8041 N.pl3   1  UNL1       -0.3042
     13 C           4.5345   77.2671   22.2082 C.3     1  UNL1        0.1123
     14 C           3.9123   76.7318   20.9137 C.3     1  UNL1        0.1136
     15 N           3.4146   75.3588   21.1031 N.pl3   1  UNL1       -0.2897
     16 C           4.2085   74.3916   21.8835 C.3     1  UNL1        0.1136
     17 C           5.5892   74.9466   22.2424 C.3     1  UNL1        0.1123
     18 C           2.2371   74.9216   20.3860 C.ar    1  UNL1        0.1318
     19 C           1.5510   75.7815   19.5102 C.ar    1  UNL1        0.0343
     20 C           0.4169   75.3229   18.8381 C.ar    1  UNL1        0.0083
     21 C          -0.0495   74.0169   19.0467 C.ar    1  UNL1        0.0906
     22 C           0.6783   73.1795   19.9051 C.ar    1  UNL1        0.1041
     23 N           1.7807   73.6475   20.5474 N.ar    1  UNL1       -0.2292
     24 C          -1.2427   73.4942   18.2883 C.3     1  UNL1        0.4200
     25 F          -1.3876   74.1634   17.0852 F       1  UNL1       -0.1658
     26 F          -1.0673   72.1465   18.0361 F       1  UNL1       -0.1658
     27 F          -2.4028   73.6686   19.0230 F       1  UNL1       -0.1658
     28 C           8.4007   76.5623   22.7248 C.3     1  UNL1        0.1648
     29 O           8.3246   77.6975   21.9070 O.3     1  UNL1       -0.3772
     30 H           7.4282   77.6806   21.4811 H       1  UNL1        0.2109
     31 C           8.2175   77.7647   30.1304 C.3     1  UNL1        0.1535
     32 C           8.9426   79.0234   30.5261 C.2     1  UNL1        0.2443
     33 O          10.2041   79.0458   30.5223 O.2     1  UNL1       -0.2730
     34 N           8.1967   80.2186   30.8073 N.am    1  UNL1       -0.2825
     35 H           7.2017   80.2576   30.4890 H       1  UNL1        0.1549
     36 C           8.7628   81.4015   31.3972 C.ar    1  UNL1        0.0535
     37 C           9.4819   82.3345   30.6306 C.ar    1  UNL1        0.0353
     38 C          10.0351   83.4567   31.2526 C.ar    1  UNL1        0.1002
     39 N           9.8899   83.6361   32.5920 N.ar    1  UNL1       -0.2422
     40 C           9.2155   82.7410   33.3609 C.ar    1  UNL1        0.1002
     41 C           8.6479   81.6048   32.7793 C.ar    1  UNL1        0.0353
     42 C           7.1582   77.4110   31.1904 C.3     1  UNL1        0.0569
     43 C           6.0568   76.5702   30.6090 C.ar    1  UNL1       -0.0017
     44 C           4.7002   76.8847   30.5957 C.ar    1  UNL1        0.0681
     45 N           4.0137   75.9873   29.8526 N.ar    1  UNL1       -0.3523
     46 C           4.9258   75.1170   29.3862 C.ar    1  UNL1        0.0563
     47 C           4.7034   74.0399   28.5297 C.ar    1  UNL1        0.0170
     48 C           5.8169   73.2809   28.1254 C.ar    1  UNL1        0.0015
     49 C           7.1135   73.6165   28.5749 C.ar    1  UNL1        0.0001
     50 C           7.3087   74.7136   29.4333 C.ar    1  UNL1        0.0012
     51 C           6.1845   75.4410   29.8244 C.ar    1  UNL1        0.0131
     52 H           2.9889   75.9953   29.6526 H       1  UNL1        0.1660
@<TRIPOS>BOND
     1     1     2    2
     2     2     3   am
     3     3    31    1
     4    31    42    1
     5    42    43    1
     6    43    44   ar
     7    44    45   ar
     8    45    46   ar
     9    46    47   ar
    10    47    48   ar
    11    48    49   ar
    12    49    50   ar
    13    50    51   ar
    14    31    32    1
    15    32    33    2
    16    32    34   am
    17    34    36    1
    18    36    37   ar
    19    37    38   ar
    20    38    39   ar
    21    39    40   ar
    22    40    41   ar
    23     2     5    1
    24     5     6   ar
    25     6     7   ar
    26     7    28    1
    27    28    29    1
    28     7     8   ar
    29     8    12    1
    30    12    13    1
    31    13    14    1
    32    14    15    1
    33    15    18    1
    34    18    19   ar
    35    19    20   ar
    36    20    21   ar
    37    21    24    1
    38    24    25    1
    39    24    26    1
    40    24    27    1
    41    21    22   ar
    42    22    23   ar
    43    15    16    1
    44    16    17    1
    45     8     9   ar
    46     9    10   ar
    47    10    11    1
    48    51    43   ar
    49    41    36   ar
    50    10     5   ar
    51    51    46   ar
    52    17    12    1
    53    23    18   ar
    54     3     4    1
    55    45    52    1
    56    34    35    1
    57    29    30    1
@<TRIPOS>MOLECULE
*****
 52 57 0 0 0
SMALL
GASTEIGER

@<TRIPOS>ATOM
      1 O          10.2830   77.7380   26.4728 O.2     1  UNL1       -0.2701
      2 C           9.0308   77.7928   26.6150 C.2     1  UNL1        0.2483
      3 N           8.4651   78.1250   27.8947 N.am    1  UNL1       -0.2945
      4 H           7.4246   78.1681   27.9805 H       1  UNL1        0.1501
      5 C           8.1626   77.4300   25.4774 C.ar    1  UNL1        0.0806
      6 C           8.6576   77.5578   24.1699 C.ar    1  UNL1        0.0061
      7 C           7.8804   77.1814   23.0635 C.ar    1  UNL1        0.0206
      8 C           6.5731   76.6914   23.2748 C.ar    1  UNL1        0.0485
      9 C           6.0733   76.5829   24.5784 C.ar    1  UNL1        0.0440
     10 C           6.8577   76.9478   25.6746 C.ar    1  UNL1        0.1457
     11 F           6.3235   76.8684   26.9196 F       1  UNL1       -0.2040
     12 N           5.7418   76.2890   22.1789 N.pl3   1  UNL1       -0.3042
     13 C           4.8230   77.2626   21.5815 C.3     1  UNL1        0.1123
     14 C           4.0784   76.6667   20.3816 C.3     1  UNL1        0.1136
     15 N           3.5376   75.3371   20.7110 N.pl3   1  UNL1       -0.2897
     16 C           4.3474   74.3908   21.5007 C.3     1  UNL1        0.1136
     17 C           5.7749   74.9014   21.7119 C.3     1  UNL1        0.1123
     18 C           2.2896   74.9080   20.1195 C.ar    1  UNL1        0.1318
     19 C           1.5494   75.7545   19.2751 C.ar    1  UNL1        0.0343
     20 C           0.3481   75.3043   18.7253 C.ar    1  UNL1        0.0083
     21 C          -0.1307   74.0209   19.0258 C.ar    1  UNL1        0.0906
     22 C           0.6499   73.1951   19.8483 C.ar    1  UNL1        0.1041
     23 N           1.8172   73.6544   20.3709 N.ar    1  UNL1       -0.2292
     24 C          -1.4004   73.5053   18.3979 C.3     1  UNL1        0.4200
     25 F          -1.3222   72.1390   18.1905 F       1  UNL1       -0.1658
     26 F          -2.4651   73.7735   19.2376 F       1  UNL1       -0.1658
     27 F          -1.6241   74.1166   17.1763 F       1  UNL1       -0.1658
     28 C           8.4665   77.3370   21.6814 C.3     1  UNL1        0.1648
     29 O           9.0549   76.1345   21.2678 O.3     1  UNL1       -0.3772
     30 H           9.9117   76.0533   21.7622 H       1  UNL1        0.2109
     31 C           9.2380   78.0051   29.1373 C.3     1  UNL1        0.1535
     32 C           9.5943   79.3706   29.6618 C.2     1  UNL1        0.2443
     33 O          10.6556   79.9319   29.2742 O.2     1  UNL1       -0.2730
     34 N           8.6767   80.0674   30.5199 N.am    1  UNL1       -0.2825
     35 H           7.6889   79.7271   30.5550 H       1  UNL1        0.1549
     36 C           9.0030   81.2659   31.2444 C.ar    1  UNL1        0.0535
     37 C           9.6255   82.3588   30.6171 C.ar    1  UNL1        0.0353
     38 C           9.9460   83.4928   31.3679 C.ar    1  UNL1        0.1002
     39 N           9.6700   83.5316   32.6981 N.ar    1  UNL1       -0.2422
     40 C           9.0854   82.4825   33.3345 C.ar    1  UNL1        0.1002
     41 C           8.7497   81.3290   32.6215 C.ar    1  UNL1        0.0353
     42 C           8.4355   77.2264   30.1958 C.3     1  UNL1        0.0569
     43 C           7.8045   75.9939   29.6118 C.ar    1  UNL1       -0.0017
     44 C           8.4753   74.9286   29.0164 C.ar    1  UNL1        0.0681
     45 N           7.6163   73.9190   28.7484 N.ar    1  UNL1       -0.3523
     46 C           6.4124   74.3319   29.1808 C.ar    1  UNL1        0.0563
     47 C           5.2184   73.6125   29.1661 C.ar    1  UNL1        0.0170
     48 C           4.0767   74.2227   29.7169 C.ar    1  UNL1        0.0015
     49 C           4.1548   75.5201   30.2706 C.ar    1  UNL1        0.0001
     50 C           5.3752   76.2196   30.2781 C.ar    1  UNL1        0.0012
     51 C           6.4873   75.5925   29.7163 C.ar    1  UNL1        0.0131
     52 H           7.8521   72.9933   28.3268 H       1  UNL1        0.1660
@<TRIPOS>BOND
     1     1     2    2
     2     2     3   am
     3     3    31    1
     4    31    42    1
     5    42    43    1
     6    43    44   ar
     7    44    45   ar
     8    45    46   ar
     9    46    47   ar
    10    47    48   ar
    11    48    49   ar
    12    49    50   ar
    13    50    51   ar
    14    31    32    1
    15    32    33    2
    16    32    34   am
    17    34    36    1
    18    36    37   ar
    19    37    38   ar
    20    38    39   ar
    21    39    40   ar
    22    40    41   ar
    23     2     5    1
    24     5     6   ar
    25     6     7   ar
    26     7    28    1
    27    28    29    1
    28     7     8   ar
    29     8    12    1
    30    12    13    1
    31    13    14    1
    32    14    15    1
    33    15    18    1
    34    18    19   ar
    35    19    20   ar
    36    20    21   ar
    37    21    24    1
    38    24    25    1
    39    24    26    1
    40    24    27    1
    41    21    22   ar
    42    22    23   ar
    43    15    16    1
    44    16    17    1
    45     8     9   ar
    46     9    10   ar
    47    10    11    1
    48    51    43   ar
    49    41    36   ar
    50    10     5   ar
    51    51    46   ar
    52    17    12    1
    53    23    18   ar
    54     3     4    1
    55    45    52    1
    56    34    35    1
    57    29    30    1
@<TRIPOS>MOLECULE
*****
 52 57 0 0 0
SMALL
GASTEIGER

@<TRIPOS>ATOM
      1 O           6.4092   73.4640   21.1370 O.2     1  UNL1       -0.2701
      2 C           5.7679   74.3123   21.8155 C.2     1  UNL1        0.2483
      3 N           4.4439   74.7038   21.4136 N.am    1  UNL1       -0.2945
      4 H           3.9352   75.4045   21.9987 H       1  UNL1        0.1501
      5 C           6.4266   74.9539   22.9706 C.ar    1  UNL1        0.0806
      6 C           7.7749   74.6671   23.2364 C.ar    1  UNL1        0.0061
      7 C           8.4501   75.2901   24.2975 C.ar    1  UNL1        0.0206
      8 C           7.7497   76.1985   25.1208 C.ar    1  UNL1        0.0485
      9 C           6.3995   76.4689   24.8666 C.ar    1  UNL1        0.0440
     10 C           5.7384   75.8543   23.8011 C.ar    1  UNL1        0.1457
     11 F           4.4189   76.1092   23.6123 F       1  UNL1       -0.2040
     12 N           8.3953   76.8644   26.2134 N.pl3   1  UNL1       -0.3042
     13 C           8.0889   76.4513   27.5861 C.3     1  UNL1        0.1123
     14 C           8.9301   77.2275   28.6055 C.3     1  UNL1        0.1136
     15 N           8.9075   78.6700   28.3103 N.pl3   1  UNL1       -0.2897
     16 C           8.9986   79.1346   26.9136 C.3     1  UNL1        0.1136
     17 C           9.3011   77.9846   25.9497 C.3     1  UNL1        0.1123
     18 C           8.9640   79.6218   29.3978 C.ar    1  UNL1        0.1318
     19 C           8.2050   79.4434   30.5680 C.ar    1  UNL1        0.0343
     20 C           8.2851   80.3857   31.5945 C.ar    1  UNL1        0.0083
     21 C           9.1039   81.5157   31.4555 C.ar    1  UNL1        0.0906
     22 C           9.8682   81.6439   30.2863 C.ar    1  UNL1        0.1041
     23 N           9.7751   80.7128   29.3008 N.ar    1  UNL1       -0.2292
     24 C           9.2376   82.5134   32.5775 C.3     1  UNL1        0.4200
     25 F           8.0077   83.0690   32.8855 F       1  UNL1       -0.1658
     26 F           9.7370   81.8751   33.6973 F       1  UNL1       -0.1658
     27 F          10.0979   83.5373   32.2204 F       1  UNL1       -0.1658
     28 C           9.9006   74.9460   24.5331 C.3     1  UNL1        0.1648
     29 O          10.7199   75.6941   23.6772 O.3     1  UNL1       -0.3772
     30 H          10.6360   75.2863   22.7762 H       1  UNL1        0.2109
     31 C           3.9538   74.4864   20.0468 C.3     1  UNL1        0.1535
     32 C           2.5048   74.0785   20.0728 C.2     1  UNL1        0.2443
     33 O           2.0961   73.2789   20.9591 O.2     1  UNL1       -0.2730
     34 N           1.5778   74.6782   19.1535 N.am    1  UNL1       -0.2825
     35 H           1.8733   75.5550   18.6669 H       1  UNL1        0.1549
     36 C           0.2334   74.2121   18.9461 C.ar    1  UNL1        0.0535
     37 C          -0.0333   72.8996   18.5204 C.ar    1  UNL1        0.0353
     38 C          -1.3552   72.4995   18.3083 C.ar    1  UNL1        0.1002
     39 N          -2.3738   73.3789   18.4991 N.ar    1  UNL1       -0.2422
     40 C          -2.1441   74.6594   18.8927 C.ar    1  UNL1        0.1002
     41 C          -0.8374   75.1008   19.1147 C.ar    1  UNL1        0.0353
     42 C           4.1271   75.7636   19.2045 C.3     1  UNL1        0.0569
     43 C           4.1966   76.9894   20.0710 C.ar    1  UNL1       -0.0017
     44 C           5.2310   77.9213   20.0978 C.ar    1  UNL1        0.0681
     45 N           4.8949   78.9792   20.8703 N.ar    1  UNL1       -0.3523
     46 C           3.6532   78.7300   21.3206 C.ar    1  UNL1        0.0563
     47 C           2.8619   79.5577   22.1155 C.ar    1  UNL1        0.0170
     48 C           1.5638   79.1184   22.4334 C.ar    1  UNL1        0.0015
     49 C           1.0885   77.8794   21.9489 C.ar    1  UNL1        0.0001
     50 C           1.9070   77.0679   21.1425 C.ar    1  UNL1        0.0012
     51 C           3.1922   77.5259   20.8523 C.ar    1  UNL1        0.0131
     52 H           5.4709   79.8322   21.0466 H       1  UNL1        0.1660
@<TRIPOS>BOND
     1     1     2    2
     2     2     3   am
     3     3    31    1
     4    31    42    1
     5    42    43    1
     6    43    44   ar
     7    44    45   ar
     8    45    46   ar
     9    46    47   ar
    10    47    48   ar
    11    48    49   ar
    12    49    50   ar
    13    50    51   ar
    14    31    32    1
    15    32    33    2
    16    32    34   am
    17    34    36    1
    18    36    37   ar
    19    37    38   ar
    20    38    39   ar
    21    39    40   ar
    22    40    41   ar
    23     2     5    1
    24     5     6   ar
    25     6     7   ar
    26     7    28    1
    27    28    29    1
    28     7     8   ar
    29     8    12    1
    30    12    13    1
    31    13    14    1
    32    14    15    1
    33    15    18    1
    34    18    19   ar
    35    19    20   ar
    36    20    21   ar
    37    21    24    1
    38    24    25    1
    39    24    26    1
    40    24    27    1
    41    21    22   ar
    42    22    23   ar
    43    15    16    1
    44    16    17    1
    45     8     9   ar
    46     9    10   ar
    47    10    11    1
    48    51    43   ar
    49    41    36   ar
    50    10     5   ar
    51    51    46   ar
    52    17    12    1
    53    23    18   ar
    54     3     4    1
    55    45    52    1
    56    34    35    1
    57    29    30    1
@<TRIPOS>MOLECULE
*****
 52 57 0 0 0
SMALL
GASTEIGER

@<TRIPOS>ATOM
      1 O          10.6431   78.2754   25.4456 O.2     1  UNL1       -0.2701
      2 C           9.4130   78.1596   25.7000 C.2     1  UNL1        0.2483
      3 N           8.9222   78.4343   27.0234 N.am    1  UNL1       -0.2945
      4 H           7.8976   78.3351   27.2025 H       1  UNL1        0.1501
      5 C           8.5063   77.6595   24.6476 C.ar    1  UNL1        0.0806
      6 C           7.3128   77.0202   25.0188 C.ar    1  UNL1        0.0061
      7 C           6.4028   76.5704   24.0494 C.ar    1  UNL1        0.0206
      8 C           6.7108   76.7444   22.6825 C.ar    1  UNL1        0.0485
      9 C           7.9107   77.3645   22.3132 C.ar    1  UNL1        0.0440
     10 C           8.8049   77.8205   23.2842 C.ar    1  UNL1        0.1457
     11 F           9.9767   78.3782   22.8873 F       1  UNL1       -0.2040
     12 N           5.8125   76.3073   21.6547 N.pl3   1  UNL1       -0.3042
     13 C           4.8959   77.2754   21.0450 C.3     1  UNL1        0.1123
     14 C           4.0728   76.6361   19.9211 C.3     1  UNL1        0.1136
     15 N           3.5075   75.3478   20.3564 N.pl3   1  UNL1       -0.2897
     16 C           4.3259   74.4220   21.1614 C.3     1  UNL1        0.1136
     17 C           5.7777   74.8943   21.2715 C.3     1  UNL1        0.1123
     18 C           2.2181   74.9282   19.8535 C.ar    1  UNL1        0.1318
     19 C           1.4080   75.7955   19.0991 C.ar    1  UNL1        0.0343
     20 C           0.1686   75.3538   18.6333 C.ar    1  UNL1        0.0083
     21 C          -0.2779   74.0580   18.9297 C.ar    1  UNL1        0.0906
     22 C           0.5706   73.2123   19.6596 C.ar    1  UNL1        0.1041
     23 N           1.7739   73.6637   20.1014 N.ar    1  UNL1       -0.2292
     24 C          -1.5915   73.5529   18.3895 C.3     1  UNL1        0.4200
     25 F          -1.8769   74.1432   17.1704 F       1  UNL1       -0.1658
     26 F          -1.5177   72.1830   18.2207 F       1  UNL1       -0.1658
     27 F          -2.6237   73.8449   19.2642 F       1  UNL1       -0.1658
     28 C           5.1338   75.8939   24.5074 C.3     1  UNL1        0.1648
     29 O           5.3194   75.3257   25.7747 O.3     1  UNL1       -0.3772
     30 H           5.8613   74.5049   25.6409 H       1  UNL1        0.2109
     31 C           9.8112   78.4452   28.1919 C.3     1  UNL1        0.1535
     32 C           9.2978   79.4105   29.2268 C.2     1  UNL1        0.2443
     33 O           8.0555   79.5935   29.3495 O.2     1  UNL1       -0.2730
     34 N          10.2169   80.0399   30.1341 N.am    1  UNL1       -0.2825
     35 H          11.1735   79.6275   30.2219 H       1  UNL1        0.1549
     36 C           9.8691   81.1282   31.0072 C.ar    1  UNL1        0.0535
     37 C           9.1925   80.9117   32.2199 C.ar    1  UNL1        0.0353
     38 C           8.8533   82.0031   33.0237 C.ar    1  UNL1        0.1002
     39 N           9.1638   83.2656   32.6275 N.ar    1  UNL1       -0.2422
     40 C           9.8013   83.5059   31.4514 C.ar    1  UNL1        0.1002
     41 C          10.1572   82.4433   30.6173 C.ar    1  UNL1        0.0353
     42 C           9.9212   77.0332   28.7961 C.3     1  UNL1        0.0569
     43 C           8.6520   76.2518   28.6045 C.ar    1  UNL1       -0.0017
     44 C           8.4135   75.2972   27.6191 C.ar    1  UNL1        0.0681
     45 N           7.2317   74.6771   27.8372 N.ar    1  UNL1       -0.3523
     46 C           6.7282   75.2221   28.9581 C.ar    1  UNL1        0.0563
     47 C           5.5468   74.8716   29.6096 C.ar    1  UNL1        0.0170
     48 C           5.2310   75.5437   30.8045 C.ar    1  UNL1        0.0015
     49 C           6.0970   76.5340   31.3194 C.ar    1  UNL1        0.0001
     50 C           7.2865   76.8620   30.6440 C.ar    1  UNL1        0.0012
     51 C           7.5677   76.1854   29.4570 C.ar    1  UNL1        0.0131
     52 H           6.8170   73.9050   27.2694 H       1  UNL1        0.1660
@<TRIPOS>BOND
     1     1     2    2
     2     2     3   am
     3     3    31    1
     4    31    42    1
     5    42    43    1
     6    43    44   ar
     7    44    45   ar
     8    45    46   ar
     9    46    47   ar
    10    47    48   ar
    11    48    49   ar
    12    49    50   ar
    13    50    51   ar
    14    31    32    1
    15    32    33    2
    16    32    34   am
    17    34    36    1
    18    36    37   ar
    19    37    38   ar
    20    38    39   ar
    21    39    40   ar
    22    40    41   ar
    23     2     5    1
    24     5     6   ar
    25     6     7   ar
    26     7    28    1
    27    28    29    1
    28     7     8   ar
    29     8    12    1
    30    12    13    1
    31    13    14    1
    32    14    15    1
    33    15    18    1
    34    18    19   ar
    35    19    20   ar
    36    20    21   ar
    37    21    24    1
    38    24    25    1
    39    24    26    1
    40    24    27    1
    41    21    22   ar
    42    22    23   ar
    43    15    16    1
    44    16    17    1
    45     8     9   ar
    46     9    10   ar
    47    10    11    1
    48    51    43   ar
    49    41    36   ar
    50    10     5   ar
    51    51    46   ar
    52    17    12    1
    53    23    18   ar
    54     3     4    1
    55    45    52    1
    56    34    35    1
    57    29    30    1
@<TRIPOS>MOLECULE
*****
 52 57 0 0 0
SMALL
GASTEIGER

@<TRIPOS>ATOM
      1 O           6.8657   73.2463   21.7455 O.2     1  UNL1       -0.2701
      2 C           6.2096   74.1365   22.3524 C.2     1  UNL1        0.2483
      3 N           4.8743   74.4614   21.9292 N.am    1  UNL1       -0.2945
      4 H           4.3535   75.1993   22.4548 H       1  UNL1        0.1501
      5 C           6.8611   74.8919   23.4408 C.ar    1  UNL1        0.0806
      6 C           8.2356   74.7182   23.6676 C.ar    1  UNL1        0.0061
      7 C           8.9015   75.4507   24.6627 C.ar    1  UNL1        0.0206
      8 C           8.1668   76.3551   25.4600 C.ar    1  UNL1        0.0485
      9 C           6.7919   76.5129   25.2459 C.ar    1  UNL1        0.0440
     10 C           6.1394   75.7896   24.2453 C.ar    1  UNL1        0.1457
     11 F           4.7988   75.9382   24.0960 F       1  UNL1       -0.2040
     12 N           8.8011   77.1300   26.4853 N.pl3   1  UNL1       -0.3042
     13 C           8.7827   76.6418   27.8674 C.3     1  UNL1        0.1123
     14 C           9.5727   77.5677   28.7989 C.3     1  UNL1        0.1136
     15 N           9.2034   78.9750   28.5718 N.pl3   1  UNL1       -0.2897
     16 C           8.9993   79.4672   27.1967 C.3     1  UNL1        0.1136
     17 C           9.4028   78.4231   26.1526 C.3     1  UNL1        0.1123
     18 C           9.2065   79.9016   29.6823 C.ar    1  UNL1        0.1318
     19 C           8.5963   79.5792   30.9075 C.ar    1  UNL1        0.0343
     20 C           8.6186   80.5015   31.9548 C.ar    1  UNL1        0.0083
     21 C           9.2299   81.7519   31.7838 C.ar    1  UNL1        0.0906
     22 C           9.8534   82.0257   30.5574 C.ar    1  UNL1        0.1041
     23 N           9.8204   81.1115   29.5524 N.ar    1  UNL1       -0.2292
     24 C           9.3047   82.7357   32.9234 C.3     1  UNL1        0.4200
     25 F          10.1852   83.7614   32.6256 F       1  UNL1       -0.1658
     26 F           8.0496   83.2699   33.1469 F       1  UNL1       -0.1658
     27 F           9.7418   82.1118   34.0791 F       1  UNL1       -0.1658
     28 C          10.3809   75.2255   24.8585 C.3     1  UNL1        0.1648
     29 O          11.1143   76.1761   24.1362 O.3     1  UNL1       -0.3772
     30 H          11.0682   75.9049   23.1825 H       1  UNL1        0.2109
     31 C           4.3801   74.1135   20.5911 C.3     1  UNL1        0.1535
     32 C           2.9184   74.4538   20.4719 C.2     1  UNL1        0.2443
     33 O           2.3482   75.0946   21.3971 O.2     1  UNL1       -0.2730
     34 N           2.2078   74.1364   19.2643 N.am    1  UNL1       -0.2825
     35 H           2.7711   73.9117   18.4128 H       1  UNL1        0.1549
     36 C           0.7789   74.2174   19.1255 C.ar    1  UNL1        0.0535
     37 C           0.0885   75.4274   19.3115 C.ar    1  UNL1        0.0353
     38 C          -1.3033   75.4519   19.1906 C.ar    1  UNL1        0.1002
     39 N          -1.9845   74.3100   18.9090 N.ar    1  UNL1       -0.2422
     40 C          -1.3447   73.1224   18.7424 C.ar    1  UNL1        0.1002
     41 C           0.0459   73.0534   18.8559 C.ar    1  UNL1        0.0353
     42 C           5.1851   74.8589   19.5107 C.3     1  UNL1        0.0569
     43 C           5.2089   76.3397   19.7654 C.ar    1  UNL1       -0.0017
     44 C           4.1143   77.1997   19.7262 C.ar    1  UNL1        0.0681
     45 N           4.4642   78.4311   20.1624 N.ar    1  UNL1       -0.3523
     46 C           5.7658   78.3528   20.4889 C.ar    1  UNL1        0.0563
     47 C           6.5606   79.3594   21.0351 C.ar    1  UNL1        0.0170
     48 C           7.8960   79.0456   21.3474 C.ar    1  UNL1        0.0015
     49 C           8.3989   77.7457   21.1166 C.ar    1  UNL1        0.0001
     50 C           7.5714   76.7477   20.5708 C.ar    1  UNL1        0.0012
     51 C           6.2551   77.0915   20.2627 C.ar    1  UNL1        0.0131
     52 H           3.8375   79.2605   20.2609 H       1  UNL1        0.1660
@<TRIPOS>BOND
     1     1     2    2
     2     2     3   am
     3     3    31    1
     4    31    42    1
     5    42    43    1
     6    43    44   ar
     7    44    45   ar
     8    45    46   ar
     9    46    47   ar
    10    47    48   ar
    11    48    49   ar
    12    49    50   ar
    13    50    51   ar
    14    31    32    1
    15    32    33    2
    16    32    34   am
    17    34    36    1
    18    36    37   ar
    19    37    38   ar
    20    38    39   ar
    21    39    40   ar
    22    40    41   ar
    23     2     5    1
    24     5     6   ar
    25     6     7   ar
    26     7    28    1
    27    28    29    1
    28     7     8   ar
    29     8    12    1
    30    12    13    1
    31    13    14    1
    32    14    15    1
    33    15    18    1
    34    18    19   ar
    35    19    20   ar
    36    20    21   ar
    37    21    24    1
    38    24    25    1
    39    24    26    1
    40    24    27    1
    41    21    22   ar
    42    22    23   ar
    43    15    16    1
    44    16    17    1
    45     8     9   ar
    46     9    10   ar
    47    10    11    1
    48    51    43   ar
    49    41    36   ar
    50    10     5   ar
    51    51    46   ar
    52    17    12    1
    53    23    18   ar
    54     3     4    1
    55    45    52    1
    56    34    35    1
    57    29    30    1
@<TRIPOS>MOLECULE
*****
 52 57 0 0 0
SMALL
GASTEIGER

@<TRIPOS>ATOM
      1 O           7.5625   74.1580   21.2760 O.2     1  UNL1       -0.2701
      2 C           6.8915   74.2719   22.3381 C.2     1  UNL1        0.2483
      3 N           5.5432   73.7752   22.3949 N.am    1  UNL1       -0.2945
      4 H           5.0142   73.8789   23.2901 H       1  UNL1        0.1501
      5 C           7.4789   74.9934   23.4845 C.ar    1  UNL1        0.0806
      6 C           8.8663   74.9371   23.6911 C.ar    1  UNL1        0.0061
      7 C           9.4691   75.6451   24.7425 C.ar    1  UNL1        0.0206
      8 C           8.6590   76.4027   25.6162 C.ar    1  UNL1        0.0485
      9 C           7.2729   76.4421   25.4209 C.ar    1  UNL1        0.0440
     10 C           6.6825   75.7449   24.3648 C.ar    1  UNL1        0.1457
     11 F           5.3321   75.7731   24.2331 F       1  UNL1       -0.2040
     12 N           9.2267   77.1472   26.7013 N.pl3   1  UNL1       -0.3042
     13 C           9.0318   76.6732   28.0748 C.3     1  UNL1        0.1123
     14 C           9.7731   77.5582   29.0830 C.3     1  UNL1        0.1136
     15 N           9.5161   78.9831   28.8144 N.pl3   1  UNL1       -0.2897
     16 C           9.4895   79.4745   27.4241 C.3     1  UNL1        0.1136
     17 C           9.9376   78.3988   26.4316 C.3     1  UNL1        0.1123
     18 C           9.4573   79.9177   29.9166 C.ar    1  UNL1        0.1318
     19 C           9.1097   79.5002   31.2137 C.ar    1  UNL1        0.0343
     20 C           9.0618   80.4332   32.2507 C.ar    1  UNL1        0.0083
     21 C           9.3408   81.7845   32.0004 C.ar    1  UNL1        0.0906
     22 C           9.7123   82.1575   30.7002 C.ar    1  UNL1        0.1041
     23 N           9.7537   81.2313   29.7066 N.ar    1  UNL1       -0.2292
     24 C           9.3420   82.7919   33.1218 C.3     1  UNL1        0.4200
     25 F          10.1940   83.8436   32.8319 F       1  UNL1       -0.1658
     26 F           8.0615   83.2834   33.2936 F       1  UNL1       -0.1658
     27 F           9.7630   82.2066   34.3033 F       1  UNL1       -0.1658
     28 C          10.9657   75.5507   24.9135 C.3     1  UNL1        0.1648
     29 O          11.5921   75.4873   23.6617 O.3     1  UNL1       -0.3772
     30 H          11.4440   74.5684   23.3168 H       1  UNL1        0.2109
     31 C           4.7630   73.5132   21.1791 C.3     1  UNL1        0.1535
     32 C           3.5222   74.3659   21.1637 C.2     1  UNL1        0.2443
     33 O           2.5033   73.9758   20.5301 O.2     1  UNL1       -0.2730
     34 N           3.4714   75.5664   21.9511 N.am    1  UNL1       -0.2825
     35 H           4.1878   75.6862   22.7030 H       1  UNL1        0.1549
     36 C           2.4342   76.5567   21.8442 C.ar    1  UNL1        0.0535
     37 C           2.2673   77.5561   22.8181 C.ar    1  UNL1        0.0353
     38 C           1.2293   78.4818   22.6842 C.ar    1  UNL1        0.1002
     39 N           0.3793   78.4064   21.6264 N.ar    1  UNL1       -0.2422
     40 C           0.5057   77.4396   20.6794 C.ar    1  UNL1        0.1002
     41 C           1.5290   76.4935   20.7759 C.ar    1  UNL1        0.0353
     42 C           5.6116   73.7942   19.9254 C.3     1  UNL1        0.0569
     43 C           5.1357   75.0224   19.2022 C.ar    1  UNL1       -0.0017
     44 C           4.1478   75.0698   18.2218 C.ar    1  UNL1        0.0681
     45 N           3.8585   76.3519   17.9032 N.ar    1  UNL1       -0.3523
     46 C           4.6449   77.1141   18.6826 C.ar    1  UNL1        0.0563
     47 C           4.6702   78.5062   18.7507 C.ar    1  UNL1        0.0170
     48 C           5.5439   79.1031   19.6778 C.ar    1  UNL1        0.0015
     49 C           6.3577   78.3042   20.5118 C.ar    1  UNL1        0.0001
     50 C           6.3058   76.9011   20.4260 C.ar    1  UNL1        0.0012
     51 C           5.4369   76.3388   19.4907 C.ar    1  UNL1        0.0131
     52 H           3.1412   76.6790   17.2184 H       1  UNL1        0.1660
@<TRIPOS>BOND
     1     1     2    2
     2     2     3   am
     3     3    31    1
     4    31    42    1
     5    42    43    1
     6    43    44   ar
     7    44    45   ar
     8    45    46   ar
     9    46    47   ar
    10    47    48   ar
    11    48    49   ar
    12    49    50   ar
    13    50    51   ar
    14    31    32    1
    15    32    33    2
    16    32    34   am
    17    34    36    1
    18    36    37   ar
    19    37    38   ar
    20    38    39   ar
    21    39    40   ar
    22    40    41   ar
    23     2     5    1
    24     5     6   ar
    25     6     7   ar
    26     7    28    1
    27    28    29    1
    28     7     8   ar
    29     8    12    1
    30    12    13    1
    31    13    14    1
    32    14    15    1
    33    15    18    1
    34    18    19   ar
    35    19    20   ar
    36    20    21   ar
    37    21    24    1
    38    24    25    1
    39    24    26    1
    40    24    27    1
    41    21    22   ar
    42    22    23   ar
    43    15    16    1
    44    16    17    1
    45     8     9   ar
    46     9    10   ar
    47    10    11    1
    48    51    43   ar
    49    41    36   ar
    50    10     5   ar
    51    51    46   ar
    52    17    12    1
    53    23    18   ar
    54     3     4    1
    55    45    52    1
    56    34    35    1
    57    29    30    1
@<TRIPOS>MOLECULE
*****
 52 57 0 0 0
SMALL
GASTEIGER

@<TRIPOS>ATOM
      1 O          14.1293   83.4722   25.9147 O.2     1  UNL1       -0.2701
      2 C          13.7964   82.8492   24.8695 C.2     1  UNL1        0.2483
      3 N          14.1254   83.3850   23.5762 N.am    1  UNL1       -0.2945
      4 H          13.8414   82.8437   22.7287 H       1  UNL1        0.1501
      5 C          12.9958   81.6150   24.9936 C.ar    1  UNL1        0.0806
      6 C          13.6494   80.3726   25.0020 C.ar    1  UNL1        0.0061
      7 C          12.9291   79.1787   25.1630 C.ar    1  UNL1        0.0206
      8 C          11.5242   79.2343   25.2928 C.ar    1  UNL1        0.0485
      9 C          10.8715   80.4728   25.2645 C.ar    1  UNL1        0.0440
     10 C          11.5968   81.6569   25.1165 C.ar    1  UNL1        0.1457
     11 F          10.9253   82.8344   25.0511 F       1  UNL1       -0.2040
     12 N          10.7441   78.0444   25.4646 N.pl3   1  UNL1       -0.3042
     13 C           9.4681   77.9153   24.7545 C.3     1  UNL1        0.1123
     14 C           8.8219   76.5488   25.0079 C.3     1  UNL1        0.1136
     15 N           8.8346   76.2240   26.4442 N.pl3   1  UNL1       -0.2897
     16 C          10.0267   76.5326   27.2557 C.3     1  UNL1        0.1136
     17 C          11.1979   77.0042   26.3903 C.3     1  UNL1        0.1123
     18 C           7.7481   75.4564   27.0117 C.ar    1  UNL1        0.1318
     19 C           6.6380   75.0745   26.2376 C.ar    1  UNL1        0.0343
     20 C           5.6083   74.3358   26.8227 C.ar    1  UNL1        0.0083
     21 C           5.6686   73.9899   28.1803 C.ar    1  UNL1        0.0906
     22 C           6.8053   74.3635   28.9124 C.ar    1  UNL1        0.1041
     23 N           7.7964   75.0811   28.3211 N.ar    1  UNL1       -0.2292
     24 C           4.5874   73.1493   28.8103 C.3     1  UNL1        0.4200
     25 F           4.8002   71.8064   28.5509 F       1  UNL1       -0.1658
     26 F           4.5930   73.3507   30.1778 F       1  UNL1       -0.1658
     27 F           3.3449   73.4957   28.3082 F       1  UNL1       -0.1658
     28 C          13.6856   77.8728   25.1686 C.3     1  UNL1        0.1648
     29 O          14.8886   78.0142   25.8729 O.3     1  UNL1       -0.3772
     30 H          15.5061   78.5177   25.2811 H       1  UNL1        0.2109
     31 C          14.4615   84.8018   23.3880 C.3     1  UNL1        0.1535
     32 C          14.9136   85.0453   21.9727 C.2     1  UNL1        0.2443
     33 O          15.8730   85.8337   21.7496 O.2     1  UNL1       -0.2730
     34 N          14.3183   84.3039   20.8957 N.am    1  UNL1       -0.2825
     35 H          13.7750   83.4444   21.1383 H       1  UNL1        0.1549
     36 C          14.5159   84.6061   19.5038 C.ar    1  UNL1        0.0535
     37 C          15.3696   83.8345   18.6969 C.ar    1  UNL1        0.0353
     38 C          15.5495   84.1817   17.3555 C.ar    1  UNL1        0.1002
     39 N          14.9136   85.2666   16.8398 N.ar    1  UNL1       -0.2422
     40 C          14.0969   86.0415   17.6013 C.ar    1  UNL1        0.1002
     41 C          13.8904   85.7303   18.9474 C.ar    1  UNL1        0.0353
     42 C          13.2466   85.6898   23.7138 C.3     1  UNL1        0.0569
     43 C          13.6705   87.0594   24.1638 C.ar    1  UNL1       -0.0017
     44 C          13.4970   88.2481   23.4594 C.ar    1  UNL1        0.0681
     45 N          13.8463   89.3069   24.2247 N.ar    1  UNL1       -0.3523
     46 C          14.2261   88.7987   25.4098 C.ar    1  UNL1        0.0563
     47 C          14.6256   89.5065   26.5423 C.ar    1  UNL1        0.0170
     48 C          14.9370   88.7715   27.7008 C.ar    1  UNL1        0.0015
     49 C          14.8358   87.3624   27.7035 C.ar    1  UNL1        0.0001
     50 C          14.4230   86.6751   26.5477 C.ar    1  UNL1        0.0012
     51 C          14.1304   87.4304   25.4120 C.ar    1  UNL1        0.0131
     52 H          13.7930   90.3152   23.9583 H       1  UNL1        0.1660
@<TRIPOS>BOND
     1     1     2    2
     2     2     3   am
     3     3    31    1
     4    31    42    1
     5    42    43    1
     6    43    44   ar
     7    44    45   ar
     8    45    46   ar
     9    46    47   ar
    10    47    48   ar
    11    48    49   ar
    12    49    50   ar
    13    50    51   ar
    14    31    32    1
    15    32    33    2
    16    32    34   am
    17    34    36    1
    18    36    37   ar
    19    37    38   ar
    20    38    39   ar
    21    39    40   ar
    22    40    41   ar
    23     2     5    1
    24     5     6   ar
    25     6     7   ar
    26     7    28    1
    27    28    29    1
    28     7     8   ar
    29     8    12    1
    30    12    13    1
    31    13    14    1
    32    14    15    1
    33    15    18    1
    34    18    19   ar
    35    19    20   ar
    36    20    21   ar
    37    21    24    1
    38    24    25    1
    39    24    26    1
    40    24    27    1
    41    21    22   ar
    42    22    23   ar
    43    15    16    1
    44    16    17    1
    45     8     9   ar
    46     9    10   ar
    47    10    11    1
    48    51    43   ar
    49    41    36   ar
    50    10     5   ar
    51    51    46   ar
    52    17    12    1
    53    23    18   ar
    54     3     4    1
    55    45    52    1
    56    34    35    1
    57    29    30    1
@<TRIPOS>MOLECULE
*****
 52 57 0 0 0
SMALL
GASTEIGER

@<TRIPOS>ATOM
      1 O          11.4188   75.0482   24.3298 O.2     1  UNL1       -0.2701
      2 C          10.3996   75.7887   24.3936 C.2     1  UNL1        0.2483
      3 N          10.3266   76.8299   25.3827 N.am    1  UNL1       -0.2945
      4 H           9.4721   77.4308   25.4077 H       1  UNL1        0.1501
      5 C           9.2569   75.5159   23.4995 C.ar    1  UNL1        0.0806
      6 C           7.9509   75.6452   23.9981 C.ar    1  UNL1        0.0061
      7 C           6.8375   75.4384   23.1688 C.ar    1  UNL1        0.0206
      8 C           7.0416   75.0706   21.8209 C.ar    1  UNL1        0.0485
      9 C           8.3447   74.9226   21.3299 C.ar    1  UNL1        0.0440
     10 C           9.4471   75.1425   22.1584 C.ar    1  UNL1        0.1457
     11 F          10.6935   74.9481   21.6580 F       1  UNL1       -0.2040
     12 N           5.9382   74.8533   20.9325 N.pl3   1  UNL1       -0.3042
     13 C           5.2736   76.0074   20.3198 C.3     1  UNL1        0.1123
     14 C           4.1715   75.5686   19.3491 C.3     1  UNL1        0.1136
     15 N           3.3152   74.5396   19.9626 N.pl3   1  UNL1       -0.2897
     16 C           3.9223   73.4681   20.7739 C.3     1  UNL1        0.1136
     17 C           5.4509   73.4925   20.6970 C.3     1  UNL1        0.1123
     18 C           1.9086   74.4906   19.6296 C.ar    1  UNL1        0.1318
     19 C           1.2149   75.6387   19.2078 C.ar    1  UNL1        0.0343
     20 C          -0.1431   75.5511   18.8977 C.ar    1  UNL1        0.0083
     21 C          -0.8201   74.3294   19.0224 C.ar    1  UNL1        0.0906
     22 C          -0.0878   73.2001   19.4177 C.ar    1  UNL1        0.1041
     23 N           1.2342   73.3091   19.7130 N.ar    1  UNL1       -0.2292
     24 C          -2.2739   74.2113   18.6418 C.3     1  UNL1        0.4200
     25 F          -2.6559   75.2725   17.8392 F       1  UNL1       -0.1658
     26 F          -2.4691   73.0304   17.9504 F       1  UNL1       -0.1658
     27 F          -3.0755   74.2114   19.7702 F       1  UNL1       -0.1658
     28 C           5.4573   75.5958   23.7586 C.3     1  UNL1        0.1648
     29 O           5.5302   76.2657   24.9871 O.3     1  UNL1       -0.3772
     30 H           5.8779   75.6107   25.6470 H       1  UNL1        0.2109
     31 C          11.1791   76.8231   26.5781 C.3     1  UNL1        0.1535
     32 C          12.5390   77.3797   26.2501 C.2     1  UNL1        0.2443
     33 O          13.3953   77.5187   27.1662 O.2     1  UNL1       -0.2730
     34 N          12.8875   77.6538   24.8836 N.am    1  UNL1       -0.2825
     35 H          12.2937   77.2293   24.1352 H       1  UNL1        0.1549
     36 C          14.0617   78.3801   24.4818 C.ar    1  UNL1        0.0535
     37 C          14.3178   79.6812   24.9474 C.ar    1  UNL1        0.0353
     38 C          15.4595   80.3572   24.5095 C.ar    1  UNL1        0.1002
     39 N          16.3081   79.7647   23.6285 N.ar    1  UNL1       -0.2422
     40 C          16.0759   78.5149   23.1475 C.ar    1  UNL1        0.1002
     41 C          14.9454   77.8046   23.5585 C.ar    1  UNL1        0.0353
     42 C          10.5299   77.6469   27.7054 C.3     1  UNL1        0.0569
     43 C           9.0592   77.3606   27.8198 C.ar    1  UNL1       -0.0017
     44 C           8.0289   78.1018   27.2468 C.ar    1  UNL1        0.0681
     45 N           6.8435   77.4731   27.4150 N.ar    1  UNL1       -0.3523
     46 C           7.1175   76.3359   28.0773 C.ar    1  UNL1        0.0563
     47 C           6.2201   75.3315   28.4362 C.ar    1  UNL1        0.0170
     48 C           6.7323   74.1948   29.0880 C.ar    1  UNL1        0.0015
     49 C           8.1151   74.0854   29.3563 C.ar    1  UNL1        0.0001
     50 C           8.9984   75.1120   28.9759 C.ar    1  UNL1        0.0012
     51 C           8.4597   76.2306   28.3401 C.ar    1  UNL1        0.0131
     52 H           5.9124   77.7913   27.0655 H       1  UNL1        0.1660
@<TRIPOS>BOND
     1     1     2    2
     2     2     3   am
     3     3    31    1
     4    31    42    1
     5    42    43    1
     6    43    44   ar
     7    44    45   ar
     8    45    46   ar
     9    46    47   ar
    10    47    48   ar
    11    48    49   ar
    12    49    50   ar
    13    50    51   ar
    14    31    32    1
    15    32    33    2
    16    32    34   am
    17    34    36    1
    18    36    37   ar
    19    37    38   ar
    20    38    39   ar
    21    39    40   ar
    22    40    41   ar
    23     2     5    1
    24     5     6   ar
    25     6     7   ar
    26     7    28    1
    27    28    29    1
    28     7     8   ar
    29     8    12    1
    30    12    13    1
    31    13    14    1
    32    14    15    1
    33    15    18    1
    34    18    19   ar
    35    19    20   ar
    36    20    21   ar
    37    21    24    1
    38    24    25    1
    39    24    26    1
    40    24    27    1
    41    21    22   ar
    42    22    23   ar
    43    15    16    1
    44    16    17    1
    45     8     9   ar
    46     9    10   ar
    47    10    11    1
    48    51    43   ar
    49    41    36   ar
    50    10     5   ar
    51    51    46   ar
    52    17    12    1
    53    23    18   ar
    54     3     4    1
    55    45    52    1
    56    34    35    1
    57    29    30    1
