@<TRIPOS>MOLECULE
*****
 44 50 0 0 0
SMALL
GASTEIGER

@<TRIPOS>ATOM
      1 C         -30.1912   49.5542  -11.1976 C.3     1  UNL1        0.0817
      2 C         -31.5821   50.0203  -10.7112 C.3     1  UNL1        0.0252
      3 C         -31.4205   50.4576   -9.2409 C.3     1  UNL1        0.0278
      4 C         -30.0342   50.0584   -8.8938 C.ar    1  UNL1       -0.0248
      5 C         -29.4205   50.1758   -7.6456 C.ar    1  UNL1       -0.0045
      6 C         -28.0766   49.7754   -7.5045 C.ar    1  UNL1       -0.0002
      7 C         -27.3826   49.2613   -8.6231 C.ar    1  UNL1       -0.0003
      8 C         -28.0202   49.1579   -9.8673 C.ar    1  UNL1       -0.0033
      9 C         -29.3586   49.5414   -9.9702 C.ar    1  UNL1       -0.0117
     10 C         -30.3993   46.9925  -11.3131 C.3     1  UNL1        0.1158
     11 N         -30.4265   45.9920  -12.2279 N.3     1  UNL1       -0.2851
     12 C         -30.2964   46.6361  -13.3953 C.3     1  UNL1        0.0910
     13 C         -30.2763   46.0667  -14.6574 C.3     1  UNL1        0.1018
     14 C         -30.1594   46.9316  -15.7525 C.3     1  UNL1        0.3136
     15 N         -30.0897   48.2969  -15.5786 N.am    1  UNL1       -0.1294
     16 C         -30.0893   48.8433  -14.3094 C.2     1  UNL1        0.4047
     17 O         -30.0040   50.0897  -14.1522 O.2     1  UNL1       -0.2174
     18 C         -30.1947   47.9799  -13.2022 C.3     1  UNL1        0.2038
     19 N         -30.2398   48.2367  -11.8702 N.3     1  UNL1       -0.2473
     20 H         -31.3102   45.4843  -12.1876 H       1  UNL1        0.1244
     21 C         -29.7572   45.4434   -9.4613 C.3     1  UNL1        0.0029
     22 C         -30.5517   46.6867   -9.8466 C.3     1  UNL1        0.0326
     23 C         -29.9753   49.1472  -16.7794 C.3     1  UNL1        0.3394
     24 C         -28.5380   49.2394  -17.2547 C.ar    1  UNL1        0.0505
     25 C         -27.6919   50.1955  -16.6622 C.ar    1  UNL1        0.0021
     26 C         -26.3550   50.3013  -17.0475 C.ar    1  UNL1       -0.0001
     27 C         -25.8400   49.4522  -18.0247 C.ar    1  UNL1       -0.0003
     28 C         -26.6605   48.4950  -18.6226 C.ar    1  UNL1       -0.0044
     29 C         -28.0135   48.3795  -18.2558 C.ar    1  UNL1       -0.0193
     30 C         -28.8532   47.3147  -18.9106 C.3     1  UNL1        0.0309
     31 C         -27.4052   49.8802   -6.1877 C.ar    1  UNL1        0.0034
     32 C         -26.7821   51.0942   -5.8559 C.ar    1  UNL1        0.0001
     33 C         -26.1960   51.2727   -4.6048 C.ar    1  UNL1        0.0005
     34 C         -26.2195   50.2423   -3.6684 C.ar    1  UNL1        0.0060
     35 C         -26.8196   49.0168   -3.9761 C.ar    1  UNL1        0.0245
     36 S         -26.7448   47.7142   -2.7387 S.3     1  UNL1       -0.1413
     37 C         -27.4162   48.8172   -5.2447 C.ar    1  UNL1        0.0425
     38 H         -25.5247   47.2294   -3.2458 H       1  UNL1        0.1071
     39 C         -28.0025   47.5014   -5.5940 C.ar    1  UNL1        0.1810
     40 N         -27.3003   46.4405   -6.0348 N.ar    1  UNL1       -0.1083
     41 N         -28.2001   45.4819   -6.2065 N.ar    1  UNL1       -0.0229
     42 N         -29.4051   45.9293   -5.8859 N.ar    1  UNL1       -0.0464
     43 N         -29.3052   47.1879   -5.4995 N.ar    1  UNL1       -0.2388
     44 H         -30.1004   47.7943   -5.2003 H       1  UNL1        0.1923
@<TRIPOS>BOND
     1    21    22    1
     2    22    10    1
     3    10    11    1
     4    11    12    1
     5    12    13    1
     6    13    14    1
     7    14    15    1
     8    15    23    1
     9    23    24    1
    10    24    25   ar
    11    25    26   ar
    12    26    27   ar
    13    27    28   ar
    14    28    29   ar
    15    29    30    1
    16    15    16    1
    17    16    17    2
    18    16    18    1
    19    18    19    1
    20    19     1    1
    21     1     2    1
    22     2     3    1
    23     3     4    1
    24     4     5   ar
    25     5     6   ar
    26     6    31    1
    27    31    32   ar
    28    32    33   ar
    29    33    34   ar
    30    34    35   ar
    31    35    36    1
    32    35    37   ar
    33    37    39    1
    34    39    40   ar
    35    40    41   ar
    36    41    42   ar
    37    42    43   ar
    38     6     7   ar
    39     7     8   ar
    40     8     9   ar
    41    19    10    1
    42     9     1    1
    43    18    12    1
    44     9     4   ar
    45    29    24   ar
    46    37    31   ar
    47    43    39   ar
    48    36    38    1
    49    43    44    1
    50    11    20    1
@<TRIPOS>MOLECULE
*****
 44 50 0 0 0
SMALL
GASTEIGER

@<TRIPOS>ATOM
      1 C         -26.3507   50.9084   -7.1689 C.3     1  UNL1        0.0817
      2 C         -27.0908   52.0592   -6.4504 C.3     1  UNL1        0.0252
      3 C         -28.2122   51.4159   -5.6091 C.3     1  UNL1        0.0278
      4 C         -28.1960   49.9884   -6.0136 C.ar    1  UNL1       -0.0248
      5 C         -29.0726   48.9904   -5.5848 C.ar    1  UNL1       -0.0045
      6 C         -28.8869   47.6724   -6.0483 C.ar    1  UNL1       -0.0002
      7 C         -27.8249   47.3906   -6.9370 C.ar    1  UNL1       -0.0003
      8 C         -26.9552   48.4099   -7.3490 C.ar    1  UNL1       -0.0033
      9 C         -27.1785   49.7095   -6.8906 C.ar    1  UNL1       -0.0117
     10 C         -27.1444   51.3384   -9.5782 C.3     1  UNL1        0.1158
     11 N         -26.6371   51.5820  -10.8118 N.3     1  UNL1       -0.2851
     12 C         -25.3129   51.5746  -10.6093 C.3     1  UNL1        0.0910
     13 C         -24.3287   51.7880  -11.5596 C.3     1  UNL1        0.1018
     14 C         -22.9978   51.7649  -11.1249 C.3     1  UNL1        0.3136
     15 N         -22.6842   51.5597   -9.7988 N.am    1  UNL1       -0.1294
     16 C         -23.6806   51.3268   -8.8702 C.2     1  UNL1        0.4047
     17 O         -23.3904   51.1184   -7.6628 O.2     1  UNL1       -0.2174
     18 C         -25.0211   51.3366   -9.3009 C.3     1  UNL1        0.2038
     19 N         -26.1805   51.1629   -8.6170 N.3     1  UNL1       -0.2473
     20 H         -26.9478   52.4883  -11.1619 H       1  UNL1        0.1244
     21 C         -29.2450   50.0557  -10.0061 C.3     1  UNL1        0.0029
     22 C         -28.6342   51.2961   -9.3630 C.3     1  UNL1        0.0326
     23 C         -21.2598   51.5560   -9.4122 C.3     1  UNL1        0.3394
     24 C         -20.7334   52.9671   -9.2335 C.ar    1  UNL1        0.0505
     25 C         -21.1754   53.9686  -10.1183 C.ar    1  UNL1        0.0021
     26 C         -20.7396   55.2868   -9.9786 C.ar    1  UNL1       -0.0001
     27 C         -19.8615   55.6275   -8.9521 C.ar    1  UNL1       -0.0003
     28 C         -19.4135   54.6509   -8.0618 C.ar    1  UNL1       -0.0044
     29 C         -19.8327   53.3145   -8.1921 C.ar    1  UNL1       -0.0193
     30 C         -19.3424   52.3009   -7.1922 C.3     1  UNL1        0.0309
     31 C         -29.8100   46.5967   -5.6164 C.ar    1  UNL1        0.0034
     32 C         -30.6850   46.0514   -6.5699 C.ar    1  UNL1        0.0001
     33 C         -31.5255   44.9913   -6.2379 C.ar    1  UNL1        0.0005
     34 C         -31.5083   44.4624   -4.9498 C.ar    1  UNL1        0.0060
     35 C         -30.6582   44.9949   -3.9750 C.ar    1  UNL1        0.0245
     36 S         -30.7477   44.3026   -2.3178 S.3     1  UNL1       -0.1413
     37 C         -29.8004   46.0753   -4.2945 C.ar    1  UNL1        0.0425
     38 H         -31.7437   45.2188   -1.9314 H       1  UNL1        0.1071
     39 C         -28.9400   46.6784   -3.2491 C.ar    1  UNL1        0.1810
     40 N         -29.3426   47.6144   -2.3690 N.ar    1  UNL1       -0.1083
     41 N         -28.2787   47.8559   -1.6155 N.ar    1  UNL1       -0.0229
     42 N         -27.2633   47.1028   -2.0112 N.ar    1  UNL1       -0.0464
     43 N         -27.6540   46.3587   -3.0295 N.ar    1  UNL1       -0.2388
     44 H         -27.0549   45.6785   -3.5472 H       1  UNL1        0.1923
@<TRIPOS>BOND
     1    21    22    1
     2    22    10    1
     3    10    11    1
     4    11    12    1
     5    12    13    1
     6    13    14    1
     7    14    15    1
     8    15    23    1
     9    23    24    1
    10    24    25   ar
    11    25    26   ar
    12    26    27   ar
    13    27    28   ar
    14    28    29   ar
    15    29    30    1
    16    15    16    1
    17    16    17    2
    18    16    18    1
    19    18    19    1
    20    19     1    1
    21     1     2    1
    22     2     3    1
    23     3     4    1
    24     4     5   ar
    25     5     6   ar
    26     6    31    1
    27    31    32   ar
    28    32    33   ar
    29    33    34   ar
    30    34    35   ar
    31    35    36    1
    32    35    37   ar
    33    37    39    1
    34    39    40   ar
    35    40    41   ar
    36    41    42   ar
    37    42    43   ar
    38     6     7   ar
    39     7     8   ar
    40     8     9   ar
    41    19    10    1
    42     9     1    1
    43    18    12    1
    44     9     4   ar
    45    29    24   ar
    46    37    31   ar
    47    43    39   ar
    48    36    38    1
    49    43    44    1
    50    11    20    1
@<TRIPOS>MOLECULE
*****
 44 50 0 0 0
SMALL
GASTEIGER

@<TRIPOS>ATOM
      1 C         -25.6781   51.1991   -7.3647 C.3     1  UNL1        0.0817
      2 C         -26.6450   52.2106   -6.7088 C.3     1  UNL1        0.0252
      3 C         -27.6115   51.3984   -5.8225 C.3     1  UNL1        0.0278
      4 C         -27.2963   49.9843   -6.1431 C.ar    1  UNL1       -0.0248
      5 C         -27.9476   48.8525   -5.6499 C.ar    1  UNL1       -0.0045
      6 C         -27.4892   47.5772   -6.0371 C.ar    1  UNL1       -0.0002
      7 C         -26.3877   47.4711   -6.9162 C.ar    1  UNL1       -0.0003
      8 C         -25.7477   48.6233   -7.3937 C.ar    1  UNL1       -0.0033
      9 C         -26.2391   49.8725   -7.0103 C.ar    1  UNL1       -0.0117
     10 C         -26.5545   51.4994   -9.7649 C.3     1  UNL1        0.1158
     11 N         -26.0914   51.7080  -11.0220 N.3     1  UNL1       -0.2851
     12 C         -24.7626   51.7548  -10.8589 C.3     1  UNL1        0.0910
     13 C         -23.8139   51.9618  -11.8461 C.3     1  UNL1        0.1018
     14 C         -22.4712   52.0030  -11.4507 C.3     1  UNL1        0.3136
     15 N         -22.1131   51.8649  -10.1271 N.am    1  UNL1       -0.1294
     16 C         -23.0739   51.6371   -9.1605 C.2     1  UNL1        0.4047
     17 O         -22.7423   51.4900   -7.9546 O.2     1  UNL1       -0.2174
     18 C         -24.4255   51.5825   -9.5511 C.3     1  UNL1        0.2038
     19 N         -25.5582   51.3979   -8.8264 N.3     1  UNL1       -0.2473
     20 H         -26.4441   52.5874  -11.3998 H       1  UNL1        0.1244
     21 C         -28.5862   50.0533   -9.9135 C.3     1  UNL1        0.0029
     22 C         -28.0352   51.4148   -9.5038 C.3     1  UNL1        0.0326
     23 C         -20.6791   51.9266   -9.7832 C.3     1  UNL1        0.3394
     24 C         -20.2976   53.2957   -9.2539 C.ar    1  UNL1        0.0505
     25 C         -20.6716   54.4329   -9.9942 C.ar    1  UNL1        0.0021
     26 C         -20.3660   55.7149   -9.5356 C.ar    1  UNL1       -0.0001
     27 C         -19.6884   55.8826   -8.3299 C.ar    1  UNL1       -0.0003
     28 C         -19.3113   54.7690   -7.5785 C.ar    1  UNL1       -0.0044
     29 C         -19.6006   53.4681   -8.0288 C.ar    1  UNL1       -0.0193
     30 C         -19.1961   52.2982   -7.1714 C.3     1  UNL1        0.0309
     31 C         -28.1696   46.3601   -5.5359 C.ar    1  UNL1        0.0034
     32 C         -27.5811   45.6637   -4.4678 C.ar    1  UNL1        0.0001
     33 C         -28.2117   44.5535   -3.9109 C.ar    1  UNL1        0.0005
     34 C         -29.4359   44.1196   -4.4131 C.ar    1  UNL1        0.0060
     35 C         -30.0388   44.7842   -5.4862 C.ar    1  UNL1        0.0245
     36 S         -31.5835   44.1183   -6.1217 S.3     1  UNL1       -0.1413
     37 C         -29.4093   45.9119   -6.0668 C.ar    1  UNL1        0.0425
     38 H         -30.9104   43.2838   -7.0335 H       1  UNL1        0.1071
     39 C         -30.0175   46.5835   -7.2399 C.ar    1  UNL1        0.1810
     40 N         -29.8835   46.1725   -8.5149 N.ar    1  UNL1       -0.1083
     41 N         -30.5922   47.0359   -9.2292 N.ar    1  UNL1       -0.0229
     42 N         -31.1407   47.9406   -8.4318 N.ar    1  UNL1       -0.0464
     43 N         -30.7960   47.6767   -7.1849 N.ar    1  UNL1       -0.2388
     44 H         -31.0773   48.2340   -6.3482 H       1  UNL1        0.1923
@<TRIPOS>BOND
     1    21    22    1
     2    22    10    1
     3    10    11    1
     4    11    12    1
     5    12    13    1
     6    13    14    1
     7    14    15    1
     8    15    23    1
     9    23    24    1
    10    24    25   ar
    11    25    26   ar
    12    26    27   ar
    13    27    28   ar
    14    28    29   ar
    15    29    30    1
    16    15    16    1
    17    16    17    2
    18    16    18    1
    19    18    19    1
    20    19     1    1
    21     1     2    1
    22     2     3    1
    23     3     4    1
    24     4     5   ar
    25     5     6   ar
    26     6    31    1
    27    31    32   ar
    28    32    33   ar
    29    33    34   ar
    30    34    35   ar
    31    35    36    1
    32    35    37   ar
    33    37    39    1
    34    39    40   ar
    35    40    41   ar
    36    41    42   ar
    37    42    43   ar
    38     6     7   ar
    39     7     8   ar
    40     8     9   ar
    41    19    10    1
    42     9     1    1
    43    18    12    1
    44     9     4   ar
    45    29    24   ar
    46    37    31   ar
    47    43    39   ar
    48    36    38    1
    49    43    44    1
    50    11    20    1
