@<TRIPOS>MOLECULE
*****
 48 53 0 0 0
SMALL
GASTEIGER

@<TRIPOS>ATOM
      1 O          10.9633   75.3067   24.7179 O.2     1  UNL1       -0.2701
      2 C           9.9292   75.9591   25.0286 C.2     1  UNL1        0.2483
      3 N          10.0038   76.9618   26.0557 N.am    1  UNL1       -0.2945
      4 H           9.1956   77.6107   26.1897 H       1  UNL1        0.1501
      5 C           8.6540   75.6872   24.3221 C.ar    1  UNL1        0.0808
      6 C           8.5227   75.9792   22.9528 C.ar    1  UNL1        0.0080
      7 C           7.3206   75.7318   22.2851 C.ar    1  UNL1        0.0148
      8 C           6.2242   75.1889   22.9722 C.ar    1  UNL1        0.0502
      9 C           6.3475   74.9057   24.3401 C.ar    1  UNL1        0.0443
     10 C           7.5480   75.1535   25.0129 C.ar    1  UNL1        0.1457
     11 F           7.6310   74.8510   26.3336 F       1  UNL1       -0.2040
     12 N           4.9820   74.9331   22.2899 N.pl3   1  UNL1       -0.3040
     13 C           3.7579   75.6245   22.7123 C.3     1  UNL1        0.1122
     14 C           2.9114   75.9885   21.4920 C.3     1  UNL1        0.1122
     15 N           2.7709   74.8217   20.6127 N.pl3   1  UNL1       -0.3040
     16 C           3.9950   74.1302   20.1904 C.3     1  UNL1        0.1122
     17 C           4.8416   73.7662   21.4106 C.3     1  UNL1        0.1122
     18 C           1.5288   74.5665   19.9301 C.ar    1  UNL1        0.0488
     19 C           0.7621   75.6349   19.4398 C.ar    1  UNL1        0.0154
     20 C          -0.4418   75.3934   18.7735 C.ar    1  UNL1        0.0135
     21 C          -0.8952   74.0831   18.5873 C.ar    1  UNL1        0.0683
     22 CL         -2.4152   73.8192   17.7438 Cl      1  UNL1       -0.0814
     23 C          -0.1340   73.0065   19.0727 C.ar    1  UNL1        0.0694
     24 CL         -0.6685   71.3445   18.8622 Cl      1  UNL1       -0.0813
     25 C           1.0724   73.2511   19.7396 C.ar    1  UNL1        0.0268
     26 C          11.2284   77.1932   26.8269 C.3     1  UNL1        0.1535
     27 C          12.1751   78.0534   26.0302 C.2     1  UNL1        0.2444
     28 O          11.7221   79.0474   25.4002 O.2     1  UNL1       -0.2730
     29 N          13.5811   77.7599   26.0116 N.am    1  UNL1       -0.2807
     30 H          13.9647   77.1553   26.7726 H       1  UNL1        0.1550
     31 C          14.4972   78.2927   25.0397 C.ar    1  UNL1        0.0813
     32 C          15.0120   79.5952   25.1586 C.ar    1  UNL1        0.0376
     33 C          15.8757   80.0878   24.1776 C.ar    1  UNL1        0.1003
     34 N          16.2057   79.3161   23.1087 N.ar    1  UNL1       -0.2399
     35 C          15.7109   78.0593   22.9582 C.ar    1  UNL1        0.1297
     36 C          14.8421   77.5276   23.9149 C.ar    1  UNL1        0.1725
     37 F          14.3537   76.2718   23.7548 F       1  UNL1       -0.2012
     38 C          10.8907   77.8476   28.1801 C.3     1  UNL1        0.0569
     39 C           9.5113   77.4787   28.6465 C.ar    1  UNL1       -0.0017
     40 C           8.4439   78.3497   28.8450 C.ar    1  UNL1        0.0681
     41 N           7.3809   77.6853   29.3530 N.ar    1  UNL1       -0.3523
     42 C           7.7718   76.4058   29.4864 C.ar    1  UNL1        0.0563
     43 C           7.0250   75.3423   29.9915 C.ar    1  UNL1        0.0170
     44 C           7.6432   74.0803   30.0632 C.ar    1  UNL1        0.0015
     45 C           8.9797   73.9125   29.6369 C.ar    1  UNL1        0.0001
     46 C           9.7100   75.0046   29.1338 C.ar    1  UNL1        0.0012
     47 C           9.0682   76.2415   29.0700 C.ar    1  UNL1        0.0131
     48 H           6.4527   78.0914   29.6055 H       1  UNL1        0.1660
@<TRIPOS>BOND
     1     1     2    2
     2     2     3   am
     3     3    26    1
     4    26    38    1
     5    38    39    1
     6    39    40   ar
     7    40    41   ar
     8    41    42   ar
     9    42    43   ar
    10    43    44   ar
    11    44    45   ar
    12    45    46   ar
    13    46    47   ar
    14    26    27    1
    15    27    28    2
    16    27    29   am
    17    29    31    1
    18    31    32   ar
    19    32    33   ar
    20    33    34   ar
    21    34    35   ar
    22    35    36   ar
    23    36    37    1
    24     2     5    1
    25     5     6   ar
    26     6     7   ar
    27     7     8   ar
    28     8    12    1
    29    12    13    1
    30    13    14    1
    31    14    15    1
    32    15    18    1
    33    18    19   ar
    34    19    20   ar
    35    20    21   ar
    36    21    22    1
    37    21    23   ar
    38    23    24    1
    39    23    25   ar
    40    15    16    1
    41    16    17    1
    42     8     9   ar
    43     9    10   ar
    44    10    11    1
    45    47    39   ar
    46    36    31   ar
    47    10     5   ar
    48    47    42   ar
    49    17    12    1
    50    25    18   ar
    51     3     4    1
    52    41    48    1
    53    29    30    1
@<TRIPOS>MOLECULE
*****
 48 53 0 0 0
SMALL
GASTEIGER

@<TRIPOS>ATOM
      1 O          10.2389   76.2797   25.4556 O.2     1  UNL1       -0.2701
      2 C           9.2797   77.0883   25.3230 C.2     1  UNL1        0.2483
      3 N           9.3775   78.4057   25.8895 N.am    1  UNL1       -0.2945
      4 H           8.6602   79.1214   25.6338 H       1  UNL1        0.1501
      5 C           8.0690   76.6694   24.5762 C.ar    1  UNL1        0.0808
      6 C           7.9809   76.8784   23.1883 C.ar    1  UNL1        0.0080
      7 C           6.8389   76.4922   22.4821 C.ar    1  UNL1        0.0148
      8 C           5.7603   75.8906   23.1483 C.ar    1  UNL1        0.0502
      9 C           5.8398   75.6895   24.5338 C.ar    1  UNL1        0.0443
     10 C           6.9799   76.0762   25.2451 C.ar    1  UNL1        0.1457
     11 F           7.0231   75.8500   26.5828 F       1  UNL1       -0.2040
     12 N           4.5799   75.4919   22.4261 N.pl3   1  UNL1       -0.3040
     13 C           3.2912   76.1313   22.7181 C.3     1  UNL1        0.1122
     14 C           2.4974   76.3292   21.4263 C.3     1  UNL1        0.1122
     15 N           2.4842   75.0838   20.6496 N.pl3   1  UNL1       -0.3040
     16 C           3.7730   74.4443   20.3579 C.3     1  UNL1        0.1122
     17 C           4.5669   74.2464   21.6495 C.3     1  UNL1        0.1122
     18 C           1.3038   74.6857   19.9272 C.ar    1  UNL1        0.0488
     19 C           0.4542   75.6571   19.3759 C.ar    1  UNL1        0.0154
     20 C          -0.6903   75.2769   18.6708 C.ar    1  UNL1        0.0135
     21 C          -1.0008   73.9229   18.5062 C.ar    1  UNL1        0.0683
     22 CL         -2.4499   73.4834   17.6124 Cl      1  UNL1       -0.0814
     23 C          -0.1556   72.9425   19.0525 C.ar    1  UNL1        0.0694
     24 CL         -0.5101   71.2297   18.8709 Cl      1  UNL1       -0.0813
     25 C           0.9911   73.3260   19.7582 C.ar    1  UNL1        0.0268
     26 C          10.5253   78.8176   26.7024 C.3     1  UNL1        0.1535
     27 C          11.6833   79.1691   25.8044 C.2     1  UNL1        0.2444
     28 O          11.5189   80.0264   24.8943 O.2     1  UNL1       -0.2730
     29 N          12.9667   78.5545   26.0012 N.am    1  UNL1       -0.2807
     30 H          13.1604   78.1126   26.9280 H       1  UNL1        0.1550
     31 C          14.0160   78.5600   25.0180 C.ar    1  UNL1        0.0813
     32 C          14.2168   77.4663   24.1582 C.ar    1  UNL1        0.0376
     33 C          15.2662   77.4968   23.2369 C.ar    1  UNL1        0.1003
     34 N          16.0949   78.5724   23.1815 N.ar    1  UNL1       -0.2399
     35 C          15.9356   79.6372   24.0108 C.ar    1  UNL1        0.1297
     36 C          14.9001   79.6477   24.9490 C.ar    1  UNL1        0.1725
     37 F          14.7501   80.7158   25.7723 F       1  UNL1       -0.2012
     38 C          10.1414   80.0074   27.6028 C.3     1  UNL1        0.0569
     39 C           9.5479   79.5497   28.9046 C.ar    1  UNL1       -0.0017
     40 C          10.2026   79.4699   30.1303 C.ar    1  UNL1        0.0681
     41 N           9.3877   78.9323   31.0664 N.ar    1  UNL1       -0.3523
     42 C           8.2291   78.6630   30.4397 C.ar    1  UNL1        0.0563
     43 C           7.0875   78.0798   30.9879 C.ar    1  UNL1        0.0170
     44 C           5.9858   77.8665   30.1390 C.ar    1  UNL1        0.0015
     45 C           6.0506   78.2332   28.7762 C.ar    1  UNL1        0.0001
     46 C           7.2170   78.8178   28.2498 C.ar    1  UNL1        0.0012
     47 C           8.2902   79.0215   29.1173 C.ar    1  UNL1        0.0131
     48 H           9.6214   78.7492   32.0675 H       1  UNL1        0.1660
@<TRIPOS>BOND
     1     1     2    2
     2     2     3   am
     3     3    26    1
     4    26    38    1
     5    38    39    1
     6    39    40   ar
     7    40    41   ar
     8    41    42   ar
     9    42    43   ar
    10    43    44   ar
    11    44    45   ar
    12    45    46   ar
    13    46    47   ar
    14    26    27    1
    15    27    28    2
    16    27    29   am
    17    29    31    1
    18    31    32   ar
    19    32    33   ar
    20    33    34   ar
    21    34    35   ar
    22    35    36   ar
    23    36    37    1
    24     2     5    1
    25     5     6   ar
    26     6     7   ar
    27     7     8   ar
    28     8    12    1
    29    12    13    1
    30    13    14    1
    31    14    15    1
    32    15    18    1
    33    18    19   ar
    34    19    20   ar
    35    20    21   ar
    36    21    22    1
    37    21    23   ar
    38    23    24    1
    39    23    25   ar
    40    15    16    1
    41    16    17    1
    42     8     9   ar
    43     9    10   ar
    44    10    11    1
    45    47    39   ar
    46    36    31   ar
    47    10     5   ar
    48    47    42   ar
    49    17    12    1
    50    25    18   ar
    51     3     4    1
    52    41    48    1
    53    29    30    1
@<TRIPOS>MOLECULE
*****
 48 53 0 0 0
SMALL
GASTEIGER

@<TRIPOS>ATOM
      1 O          14.7772   81.8995   24.6431 O.2     1  UNL1       -0.2701
      2 C          13.5619   82.2111   24.5103 C.2     1  UNL1        0.2483
      3 N          13.2131   83.4818   23.9360 N.am    1  UNL1       -0.2945
      4 H          12.2178   83.6628   23.6734 H       1  UNL1        0.1501
      5 C          12.5117   81.2569   24.9407 C.ar    1  UNL1        0.0808
      6 C          11.2877   81.7273   25.4491 C.ar    1  UNL1        0.0080
      7 C          10.2985   80.8317   25.8629 C.ar    1  UNL1        0.0148
      8 C          10.5122   79.4474   25.7789 C.ar    1  UNL1        0.0502
      9 C          11.7350   78.9740   25.2820 C.ar    1  UNL1        0.0443
     10 C          12.7288   79.8666   24.8685 C.ar    1  UNL1        0.1457
     11 F          13.8925   79.3675   24.3793 F       1  UNL1       -0.2040
     12 N           9.4969   78.5193   26.2054 N.pl3   1  UNL1       -0.3040
     13 C           9.3011   77.2607   25.4756 C.3     1  UNL1        0.1122
     14 C           8.9819   76.1295   26.4536 C.3     1  UNL1        0.1122
     15 N           7.9289   76.5531   27.3844 N.pl3   1  UNL1       -0.3040
     16 C           8.1247   77.8118   28.1140 C.3     1  UNL1        0.1122
     17 C           8.4439   78.9430   27.1361 C.3     1  UNL1        0.1122
     18 C           6.9142   75.6247   27.8111 C.ar    1  UNL1        0.0488
     19 C           6.8824   74.3244   27.2839 C.ar    1  UNL1        0.0154
     20 C           5.9027   73.4182   27.6968 C.ar    1  UNL1        0.0135
     21 C           4.9432   73.7976   28.6414 C.ar    1  UNL1        0.0683
     22 CL          3.7261   72.6291   29.1364 Cl      1  UNL1       -0.0814
     23 C           4.9675   75.0964   29.1767 C.ar    1  UNL1        0.0694
     24 CL          3.7788   75.6149   30.3644 Cl      1  UNL1       -0.0813
     25 C           5.9506   76.0026   28.7617 C.ar    1  UNL1        0.0268
     26 C          14.2280   84.4772   23.5793 C.3     1  UNL1        0.1535
     27 C          14.7567   84.1903   22.1976 C.2     1  UNL1        0.2444
     28 O          15.9536   83.8174   22.0613 O.2     1  UNL1       -0.2730
     29 N          13.8987   84.3139   21.0522 N.am    1  UNL1       -0.2807
     30 H          12.8660   84.3045   21.2113 H       1  UNL1        0.1550
     31 C          14.3772   84.3951   19.6987 C.ar    1  UNL1        0.0813
     32 C          15.6572   83.9322   19.3476 C.ar    1  UNL1        0.0376
     33 C          16.0977   84.0565   18.0280 C.ar    1  UNL1        0.1003
     34 N          15.2978   84.6330   17.0928 N.ar    1  UNL1       -0.2399
     35 C          14.0623   85.1046   17.4058 C.ar    1  UNL1        0.1297
     36 C          13.5826   85.0025   18.7142 C.ar    1  UNL1        0.1725
     37 F          12.3476   85.4768   19.0160 F       1  UNL1       -0.2012
     38 C          13.6349   85.8966   23.6619 C.3     1  UNL1        0.0569
     39 C          14.1545   86.7803   22.5640 C.ar    1  UNL1       -0.0017
     40 C          15.4704   87.1999   22.3917 C.ar    1  UNL1        0.0681
     41 N          15.5596   88.0583   21.3503 N.ar    1  UNL1       -0.3523
     42 C          14.3104   88.1919   20.8712 C.ar    1  UNL1        0.0563
     43 C          13.8941   88.9926   19.8085 C.ar    1  UNL1        0.0170
     44 C          12.5241   88.9991   19.4875 C.ar    1  UNL1        0.0015
     45 C          11.6112   88.2171   20.2298 C.ar    1  UNL1        0.0001
     46 C          12.0597   87.4204   21.2991 C.ar    1  UNL1        0.0012
     47 C          13.4240   87.4307   21.5895 C.ar    1  UNL1        0.0131
     48 H          16.4228   88.5324   21.0036 H       1  UNL1        0.1660
@<TRIPOS>BOND
     1     1     2    2
     2     2     3   am
     3     3    26    1
     4    26    38    1
     5    38    39    1
     6    39    40   ar
     7    40    41   ar
     8    41    42   ar
     9    42    43   ar
    10    43    44   ar
    11    44    45   ar
    12    45    46   ar
    13    46    47   ar
    14    26    27    1
    15    27    28    2
    16    27    29   am
    17    29    31    1
    18    31    32   ar
    19    32    33   ar
    20    33    34   ar
    21    34    35   ar
    22    35    36   ar
    23    36    37    1
    24     2     5    1
    25     5     6   ar
    26     6     7   ar
    27     7     8   ar
    28     8    12    1
    29    12    13    1
    30    13    14    1
    31    14    15    1
    32    15    18    1
    33    18    19   ar
    34    19    20   ar
    35    20    21   ar
    36    21    22    1
    37    21    23   ar
    38    23    24    1
    39    23    25   ar
    40    15    16    1
    41    16    17    1
    42     8     9   ar
    43     9    10   ar
    44    10    11    1
    45    47    39   ar
    46    36    31   ar
    47    10     5   ar
    48    47    42   ar
    49    17    12    1
    50    25    18   ar
    51     3     4    1
    52    41    48    1
    53    29    30    1
@<TRIPOS>MOLECULE
*****
 48 53 0 0 0
SMALL
GASTEIGER

@<TRIPOS>ATOM
      1 O          14.7725   81.9286   24.5281 O.2     1  UNL1       -0.2701
      2 C          13.5627   82.2848   24.4955 C.2     1  UNL1        0.2483
      3 N          13.2211   83.5968   24.0177 N.am    1  UNL1       -0.2945
      4 H          12.2176   83.8233   23.8337 H       1  UNL1        0.1501
      5 C          12.5105   81.3403   24.9424 C.ar    1  UNL1        0.0808
      6 C          11.2934   81.8219   25.4565 C.ar    1  UNL1        0.0080
      7 C          10.3025   80.9355   25.8858 C.ar    1  UNL1        0.0148
      8 C          10.5077   79.5493   25.8118 C.ar    1  UNL1        0.0502
      9 C          11.7239   79.0648   25.3093 C.ar    1  UNL1        0.0443
     10 C          12.7193   79.9482   24.8804 C.ar    1  UNL1        0.1457
     11 F          13.8763   79.4384   24.3862 F       1  UNL1       -0.2040
     12 N           9.4907   78.6307   26.2543 N.pl3   1  UNL1       -0.3040
     13 C           9.0760   77.5223   25.3858 C.3     1  UNL1        0.1122
     14 C           8.8099   76.2699   26.2216 C.3     1  UNL1        0.1122
     15 N           7.9517   76.6027   27.3649 N.pl3   1  UNL1       -0.3040
     16 C           8.3663   77.7113   28.2334 C.3     1  UNL1        0.1122
     17 C           8.6325   78.9637   27.3977 C.3     1  UNL1        0.1122
     18 C           6.9351   75.6837   27.8075 C.ar    1  UNL1        0.0488
     19 C           6.9091   74.3706   27.3129 C.ar    1  UNL1        0.0154
     20 C           5.9277   73.4735   27.7414 C.ar    1  UNL1        0.0135
     21 C           4.9608   73.8749   28.6692 C.ar    1  UNL1        0.0683
     22 CL          3.7418   72.7173   29.1845 Cl      1  UNL1       -0.0814
     23 C           4.9793   75.1868   29.1718 C.ar    1  UNL1        0.0694
     24 CL          3.7813   75.7331   30.3374 Cl      1  UNL1       -0.0813
     25 C           5.9642   76.0839   28.7414 C.ar    1  UNL1        0.0268
     26 C          14.2442   84.5792   23.6490 C.3     1  UNL1        0.1535
     27 C          14.6114   84.4092   22.1974 C.2     1  UNL1        0.2444
     28 O          15.6961   83.8393   21.8991 O.2     1  UNL1       -0.2730
     29 N          13.7227   84.8665   21.1656 N.am    1  UNL1       -0.2807
     30 H          12.7224   85.0308   21.4192 H       1  UNL1        0.1550
     31 C          14.1174   85.0588   19.7964 C.ar    1  UNL1        0.0813
     32 C          15.0350   84.1956   19.1728 C.ar    1  UNL1        0.0376
     33 C          15.4167   84.4335   17.8505 C.ar    1  UNL1        0.1003
     34 N          14.9131   85.5004   17.1760 N.ar    1  UNL1       -0.2399
     35 C          14.0371   86.3613   17.7576 C.ar    1  UNL1        0.1297
     36 C          13.6297   86.1622   19.0793 C.ar    1  UNL1        0.1725
     37 F          12.7548   87.0279   19.6504 F       1  UNL1       -0.2012
     38 C          13.7378   86.0071   23.9288 C.3     1  UNL1        0.0569
     39 C          14.6548   86.7492   24.8588 C.ar    1  UNL1       -0.0017
     40 C          14.3943   87.0863   26.1838 C.ar    1  UNL1        0.0681
     41 N          15.4052   87.8294   26.6891 N.ar    1  UNL1       -0.3523
     42 C          16.2954   87.9726   25.6918 C.ar    1  UNL1        0.0563
     43 C          17.4963   88.6800   25.7261 C.ar    1  UNL1        0.0170
     44 C          18.2704   88.7187   24.5516 C.ar    1  UNL1        0.0015
     45 C          17.8299   88.0602   23.3819 C.ar    1  UNL1        0.0001
     46 C          16.6121   87.3558   23.3758 C.ar    1  UNL1        0.0012
     47 C          15.8699   87.3310   24.5567 C.ar    1  UNL1        0.0131
     48 H          15.4686   88.2245   27.6536 H       1  UNL1        0.1660
@<TRIPOS>BOND
     1     1     2    2
     2     2     3   am
     3     3    26    1
     4    26    38    1
     5    38    39    1
     6    39    40   ar
     7    40    41   ar
     8    41    42   ar
     9    42    43   ar
    10    43    44   ar
    11    44    45   ar
    12    45    46   ar
    13    46    47   ar
    14    26    27    1
    15    27    28    2
    16    27    29   am
    17    29    31    1
    18    31    32   ar
    19    32    33   ar
    20    33    34   ar
    21    34    35   ar
    22    35    36   ar
    23    36    37    1
    24     2     5    1
    25     5     6   ar
    26     6     7   ar
    27     7     8   ar
    28     8    12    1
    29    12    13    1
    30    13    14    1
    31    14    15    1
    32    15    18    1
    33    18    19   ar
    34    19    20   ar
    35    20    21   ar
    36    21    22    1
    37    21    23   ar
    38    23    24    1
    39    23    25   ar
    40    15    16    1
    41    16    17    1
    42     8     9   ar
    43     9    10   ar
    44    10    11    1
    45    47    39   ar
    46    36    31   ar
    47    10     5   ar
    48    47    42   ar
    49    17    12    1
    50    25    18   ar
    51     3     4    1
    52    41    48    1
    53    29    30    1
@<TRIPOS>MOLECULE
*****
 48 53 0 0 0
SMALL
GASTEIGER

@<TRIPOS>ATOM
      1 O          10.8745   75.0579   24.7540 O.2     1  UNL1       -0.2701
      2 C           9.8845   75.8021   24.9939 C.2     1  UNL1        0.2483
      3 N          10.0144   76.8727   25.9441 N.am    1  UNL1       -0.2945
      4 H           9.2520   77.5843   26.0126 H       1  UNL1        0.1501
      5 C           8.6039   75.5659   24.2845 C.ar    1  UNL1        0.0808
      6 C           7.4062   75.4205   25.0070 C.ar    1  UNL1        0.0080
      7 C           6.1987   75.1903   24.3429 C.ar    1  UNL1        0.0148
      8 C           6.1631   75.0988   22.9431 C.ar    1  UNL1        0.0502
      9 C           7.3566   75.2330   22.2194 C.ar    1  UNL1        0.0443
     10 C           8.5678   75.4616   22.8798 C.ar    1  UNL1        0.1457
     11 F           9.6982   75.6009   22.1413 F       1  UNL1       -0.2040
     12 N           4.9218   74.8600   22.2531 N.pl3   1  UNL1       -0.3040
     13 C           3.6979   75.5435   22.6885 C.3     1  UNL1        0.1122
     14 C           2.8541   75.9356   21.4751 C.3     1  UNL1        0.1122
     15 N           2.7135   74.7886   20.5700 N.pl3   1  UNL1       -0.3040
     16 C           3.9375   74.1049   20.1348 C.3     1  UNL1        0.1122
     17 C           4.7814   73.7129   21.3480 C.3     1  UNL1        0.1122
     18 C           1.4723   74.5503   19.8798 C.ar    1  UNL1        0.0488
     19 C           0.7081   75.6303   19.4116 C.ar    1  UNL1        0.0154
     20 C          -0.4949   75.4052   18.7380 C.ar    1  UNL1        0.0135
     21 C          -0.9499   74.1001   18.5224 C.ar    1  UNL1        0.0683
     22 CL         -2.4688   73.8569   17.6705 Cl      1  UNL1       -0.0814
     23 C          -0.1912   73.0120   18.9855 C.ar    1  UNL1        0.0694
     24 CL         -0.7277   71.3557   18.7376 Cl      1  UNL1       -0.0813
     25 C           1.0144   73.2400   19.6597 C.ar    1  UNL1        0.0268
     26 C          11.2406   77.0772   26.7202 C.3     1  UNL1        0.1535
     27 C          12.1725   77.9901   25.9659 C.2     1  UNL1        0.2444
     28 O          11.6977   78.9834   25.3510 O.2     1  UNL1       -0.2730
     29 N          13.5882   77.7467   25.9706 N.am    1  UNL1       -0.2807
     30 H          13.9771   77.1367   26.7246 H       1  UNL1        0.1550
     31 C          14.5048   78.3360   25.0324 C.ar    1  UNL1        0.0813
     32 C          14.9369   79.6664   25.1709 C.ar    1  UNL1        0.0376
     33 C          15.8039   80.2124   24.2217 C.ar    1  UNL1        0.1003
     34 N          16.2166   79.4651   23.1643 N.ar    1  UNL1       -0.2399
     35 C          15.8029   78.1817   22.9950 C.ar    1  UNL1        0.1297
     36 C          14.9340   77.5964   23.9196 C.ar    1  UNL1        0.1725
     37 F          14.5269   76.3144   23.7409 F       1  UNL1       -0.2012
     38 C          10.9033   77.6540   28.1084 C.3     1  UNL1        0.0569
     39 C           9.6793   77.0102   28.6947 C.ar    1  UNL1       -0.0017
     40 C           9.5492   75.6801   29.0836 C.ar    1  UNL1        0.0681
     41 N           8.2825   75.4275   29.4849 N.ar    1  UNL1       -0.3523
     42 C           7.6105   76.5833   29.3428 C.ar    1  UNL1        0.0563
     43 C           6.2618   76.8150   29.6097 C.ar    1  UNL1        0.0170
     44 C           5.7556   78.1052   29.3665 C.ar    1  UNL1        0.0015
     45 C           6.5982   79.1219   28.8641 C.ar    1  UNL1        0.0001
     46 C           7.9550   78.8584   28.6016 C.ar    1  UNL1        0.0012
     47 C           8.4285   77.5716   28.8579 C.ar    1  UNL1        0.0131
     48 H           7.9036   74.5140   29.8198 H       1  UNL1        0.1660
@<TRIPOS>BOND
     1     1     2    2
     2     2     3   am
     3     3    26    1
     4    26    38    1
     5    38    39    1
     6    39    40   ar
     7    40    41   ar
     8    41    42   ar
     9    42    43   ar
    10    43    44   ar
    11    44    45   ar
    12    45    46   ar
    13    46    47   ar
    14    26    27    1
    15    27    28    2
    16    27    29   am
    17    29    31    1
    18    31    32   ar
    19    32    33   ar
    20    33    34   ar
    21    34    35   ar
    22    35    36   ar
    23    36    37    1
    24     2     5    1
    25     5     6   ar
    26     6     7   ar
    27     7     8   ar
    28     8    12    1
    29    12    13    1
    30    13    14    1
    31    14    15    1
    32    15    18    1
    33    18    19   ar
    34    19    20   ar
    35    20    21   ar
    36    21    22    1
    37    21    23   ar
    38    23    24    1
    39    23    25   ar
    40    15    16    1
    41    16    17    1
    42     8     9   ar
    43     9    10   ar
    44    10    11    1
    45    47    39   ar
    46    36    31   ar
    47    10     5   ar
    48    47    42   ar
    49    17    12    1
    50    25    18   ar
    51     3     4    1
    52    41    48    1
    53    29    30    1
@<TRIPOS>MOLECULE
*****
 48 53 0 0 0
SMALL
GASTEIGER

@<TRIPOS>ATOM
      1 O          10.4063   78.5237   22.7665 O.2     1  UNL1       -0.2701
      2 C           9.3869   78.3010   23.4755 C.2     1  UNL1        0.2483
      3 N           9.4419   78.5364   24.8924 N.am    1  UNL1       -0.2945
      4 H           8.5546   78.5140   25.4443 H       1  UNL1        0.1501
      5 C           8.1442   77.8081   22.8340 C.ar    1  UNL1        0.0808
      6 C           7.3084   76.8988   23.5065 C.ar    1  UNL1        0.0080
      7 C           6.1405   76.4259   22.9026 C.ar    1  UNL1        0.0148
      8 C           5.7843   76.8507   21.6135 C.ar    1  UNL1        0.0502
      9 C           6.6200   77.7495   20.9353 C.ar    1  UNL1        0.0443
     10 C           7.7908   78.2239   21.5349 C.ar    1  UNL1        0.1457
     11 F           8.5645   79.1047   20.8506 F       1  UNL1       -0.2040
     12 N           4.5826   76.3656   20.9853 N.pl3   1  UNL1       -0.3040
     13 C           4.5941   75.0810   20.2750 C.3     1  UNL1        0.1122
     14 C           3.2799   74.3365   20.5128 C.3     1  UNL1        0.1122
     15 N           2.1442   75.2372   20.2818 N.pl3   1  UNL1       -0.3040
     16 C           2.1328   76.5220   20.9919 C.3     1  UNL1        0.1122
     17 C           3.4470   77.2665   20.7544 C.3     1  UNL1        0.1122
     18 C           0.9425   74.7517   19.6540 C.ar    1  UNL1        0.0488
     19 C          -0.0650   75.6506   19.2715 C.ar    1  UNL1        0.0154
     20 C          -1.2312   75.1859   18.6586 C.ar    1  UNL1        0.0135
     21 C          -1.4062   73.8189   18.4189 C.ar    1  UNL1        0.0683
     22 CL         -2.8876   73.2722   17.6453 Cl      1  UNL1       -0.0814
     23 C          -0.4027   72.9109   18.7964 C.ar    1  UNL1        0.0694
     24 CL         -0.5835   71.1844   18.5157 Cl      1  UNL1       -0.0813
     25 C           0.7653   73.3791   19.4099 C.ar    1  UNL1        0.0268
     26 C          10.6793   78.9430   25.5642 C.3     1  UNL1        0.1535
     27 C          10.3479   79.6730   26.8402 C.2     1  UNL1        0.2444
     28 O          10.6694   80.8868   26.9567 O.2     1  UNL1       -0.2730
     29 N           9.6492   79.0010   27.9002 N.am    1  UNL1       -0.2807
     30 H           9.1229   78.1298   27.6637 H       1  UNL1        0.1550
     31 C           9.5882   79.4863   29.2524 C.ar    1  UNL1        0.0813
     32 C           9.8936   80.8227   29.5631 C.ar    1  UNL1        0.0376
     33 C           9.8525   81.2484   30.8927 C.ar    1  UNL1        0.1003
     34 N           9.5312   80.3721   31.8804 N.ar    1  UNL1       -0.2399
     35 C           9.2471   79.0704   31.6126 C.ar    1  UNL1        0.1297
     36 C           9.2783   78.6014   30.2966 C.ar    1  UNL1        0.1725
     37 F           8.9932   77.2998   30.0403 F       1  UNL1       -0.2012
     38 C          11.5635   77.7127   25.8434 C.3     1  UNL1        0.0569
     39 C          12.6168   77.5347   24.7873 C.ar    1  UNL1       -0.0017
     40 C          12.6724   76.5201   23.8361 C.ar    1  UNL1        0.0681
     41 N          13.8053   76.6210   23.1041 N.ar    1  UNL1       -0.3523
     42 C          14.4693   77.6834   23.5921 C.ar    1  UNL1        0.0563
     43 C          15.7055   78.1728   23.1725 C.ar    1  UNL1        0.0170
     44 C          16.2312   79.2926   23.8430 C.ar    1  UNL1        0.0015
     45 C          15.5195   79.8887   24.9080 C.ar    1  UNL1        0.0001
     46 C          14.2749   79.3716   25.3115 C.ar    1  UNL1        0.0012
     47 C          13.7775   78.2644   24.6240 C.ar    1  UNL1        0.0131
     48 H          14.1072   75.9889   22.3298 H       1  UNL1        0.1660
@<TRIPOS>BOND
     1     1     2    2
     2     2     3   am
     3     3    26    1
     4    26    38    1
     5    38    39    1
     6    39    40   ar
     7    40    41   ar
     8    41    42   ar
     9    42    43   ar
    10    43    44   ar
    11    44    45   ar
    12    45    46   ar
    13    46    47   ar
    14    26    27    1
    15    27    28    2
    16    27    29   am
    17    29    31    1
    18    31    32   ar
    19    32    33   ar
    20    33    34   ar
    21    34    35   ar
    22    35    36   ar
    23    36    37    1
    24     2     5    1
    25     5     6   ar
    26     6     7   ar
    27     7     8   ar
    28     8    12    1
    29    12    13    1
    30    13    14    1
    31    14    15    1
    32    15    18    1
    33    18    19   ar
    34    19    20   ar
    35    20    21   ar
    36    21    22    1
    37    21    23   ar
    38    23    24    1
    39    23    25   ar
    40    15    16    1
    41    16    17    1
    42     8     9   ar
    43     9    10   ar
    44    10    11    1
    45    47    39   ar
    46    36    31   ar
    47    10     5   ar
    48    47    42   ar
    49    17    12    1
    50    25    18   ar
    51     3     4    1
    52    41    48    1
    53    29    30    1
@<TRIPOS>MOLECULE
*****
 48 53 0 0 0
SMALL
GASTEIGER

@<TRIPOS>ATOM
      1 O          14.5171   82.6358   24.2916 O.2     1  UNL1       -0.2701
      2 C          13.2886   82.8439   24.4890 C.2     1  UNL1        0.2483
      3 N          12.7618   84.1738   24.3480 N.am    1  UNL1       -0.2945
      4 H          11.7257   84.3104   24.3451 H       1  UNL1        0.1501
      5 C          12.4051   81.7106   24.8549 C.ar    1  UNL1        0.0808
      6 C          11.0437   81.9298   25.1310 C.ar    1  UNL1        0.0080
      7 C          10.2094   80.8660   25.4836 C.ar    1  UNL1        0.0148
      8 C          10.7184   79.5611   25.5691 C.ar    1  UNL1        0.0502
      9 C          12.0776   79.3395   25.3045 C.ar    1  UNL1        0.0443
     10 C          12.9167   80.4014   24.9533 C.ar    1  UNL1        0.1457
     11 F          14.2230   80.1422   24.6902 F       1  UNL1       -0.2040
     12 N           9.8638   78.4608   25.9336 N.pl3   1  UNL1       -0.3040
     13 C          10.3456   77.4372   26.8690 C.3     1  UNL1        0.1122
     14 C           9.2125   76.9968   27.7964 C.3     1  UNL1        0.1122
     15 N           8.0096   76.6958   27.0111 N.pl3   1  UNL1       -0.3040
     16 C           7.5279   77.7193   26.0755 C.3     1  UNL1        0.1122
     17 C           8.6609   78.1599   25.1481 C.3     1  UNL1        0.1122
     18 C           7.1550   75.5957   27.3761 C.ar    1  UNL1        0.0488
     19 C           6.9477   74.5368   26.4787 C.ar    1  UNL1        0.0154
     20 C           6.1228   73.4651   26.8287 C.ar    1  UNL1        0.0135
     21 C           5.4952   73.4361   28.0786 C.ar    1  UNL1        0.0683
     22 CL          4.4643   72.0702   28.4830 Cl      1  UNL1       -0.0814
     23 C           5.6977   74.4904   28.9850 C.ar    1  UNL1        0.0694
     24 CL          4.9262   74.4946   30.5652 Cl      1  UNL1       -0.0813
     25 C           6.5253   75.5630   28.6321 C.ar    1  UNL1        0.0268
     26 C          13.6250   85.3250   24.0696 C.3     1  UNL1        0.1535
     27 C          14.1817   85.8661   25.3612 C.2     1  UNL1        0.2444
     28 O          14.5022   85.0623   26.2784 O.2     1  UNL1       -0.2730
     29 N          14.3707   87.2796   25.5342 N.am    1  UNL1       -0.2807
     30 H          14.4069   87.8767   24.6775 H       1  UNL1        0.1550
     31 C          14.5662   87.9105   26.8115 C.ar    1  UNL1        0.0813
     32 C          13.6443   87.7404   27.8588 C.ar    1  UNL1        0.0376
     33 C          13.8535   88.3946   29.0750 C.ar    1  UNL1        0.1003
     34 N          14.9355   89.2002   29.2394 N.ar    1  UNL1       -0.2399
     35 C          15.8350   89.3970   28.2399 C.ar    1  UNL1        0.1297
     36 C          15.6634   88.7637   27.0062 C.ar    1  UNL1        0.1725
     37 F          16.5673   88.9672   26.0149 F       1  UNL1       -0.2012
     38 C          14.7561   84.9224   23.1043 C.3     1  UNL1        0.0569
     39 C          15.2173   86.0856   22.2733 C.ar    1  UNL1       -0.0017
     40 C          14.7219   86.4616   21.0281 C.ar    1  UNL1        0.0681
     41 N          15.4309   87.5013   20.5324 N.ar    1  UNL1       -0.3523
     42 C          16.3752   87.7773   21.4489 C.ar    1  UNL1        0.0563
     43 C          17.3628   88.7587   21.3754 C.ar    1  UNL1        0.0170
     44 C          18.2700   88.8599   22.4463 C.ar    1  UNL1        0.0015
     45 C          18.1731   87.9856   23.5518 C.ar    1  UNL1        0.0001
     46 C          17.1675   87.0028   23.5975 C.ar    1  UNL1        0.0012
     47 C          16.2799   86.9309   22.5238 C.ar    1  UNL1        0.0131
     48 H          15.2826   87.9782   19.6154 H       1  UNL1        0.1660
@<TRIPOS>BOND
     1     1     2    2
     2     2     3   am
     3     3    26    1
     4    26    38    1
     5    38    39    1
     6    39    40   ar
     7    40    41   ar
     8    41    42   ar
     9    42    43   ar
    10    43    44   ar
    11    44    45   ar
    12    45    46   ar
    13    46    47   ar
    14    26    27    1
    15    27    28    2
    16    27    29   am
    17    29    31    1
    18    31    32   ar
    19    32    33   ar
    20    33    34   ar
    21    34    35   ar
    22    35    36   ar
    23    36    37    1
    24     2     5    1
    25     5     6   ar
    26     6     7   ar
    27     7     8   ar
    28     8    12    1
    29    12    13    1
    30    13    14    1
    31    14    15    1
    32    15    18    1
    33    18    19   ar
    34    19    20   ar
    35    20    21   ar
    36    21    22    1
    37    21    23   ar
    38    23    24    1
    39    23    25   ar
    40    15    16    1
    41    16    17    1
    42     8     9   ar
    43     9    10   ar
    44    10    11    1
    45    47    39   ar
    46    36    31   ar
    47    10     5   ar
    48    47    42   ar
    49    17    12    1
    50    25    18   ar
    51     3     4    1
    52    41    48    1
    53    29    30    1
@<TRIPOS>MOLECULE
*****
 48 53 0 0 0
SMALL
GASTEIGER

@<TRIPOS>ATOM
      1 O          10.8572   75.5314   24.5490 O.2     1  UNL1       -0.2701
      2 C           9.7708   75.9185   25.0605 C.2     1  UNL1        0.2483
      3 N           9.7855   76.6100   26.3205 N.am    1  UNL1       -0.2945
      4 H           8.9104   77.0740   26.6538 H       1  UNL1        0.1501
      5 C           8.4956   75.6617   24.3486 C.ar    1  UNL1        0.0808
      6 C           8.0240   74.3470   24.1849 C.ar    1  UNL1        0.0080
      7 C           6.8269   74.1001   23.5081 C.ar    1  UNL1        0.0148
      8 C           6.0769   75.1617   22.9794 C.ar    1  UNL1        0.0502
      9 C           6.5486   76.4735   23.1314 C.ar    1  UNL1        0.0443
     10 C           7.7471   76.7252   23.8062 C.ar    1  UNL1        0.1457
     11 F           8.1610   78.0106   23.9450 F       1  UNL1       -0.2040
     12 N           4.8430   74.9134   22.2794 N.pl3   1  UNL1       -0.3040
     13 C           3.6151   75.6046   22.6906 C.3     1  UNL1        0.1122
     14 C           2.7852   75.9787   21.4621 C.3     1  UNL1        0.1122
     15 N           2.6535   74.8182   20.5731 N.pl3   1  UNL1       -0.3040
     16 C           3.8815   74.1268   20.1620 C.3     1  UNL1        0.1122
     17 C           4.7115   73.7527   21.3904 C.3     1  UNL1        0.1122
     18 C           1.4198   74.5704   19.8729 C.ar    1  UNL1        0.0488
     19 C           0.6379   75.6450   19.4217 C.ar    1  UNL1        0.0154
     20 C          -0.5580   75.4108   18.7385 C.ar    1  UNL1        0.0135
     21 C          -0.9880   74.1019   18.4963 C.ar    1  UNL1        0.0683
     22 CL         -2.4987   73.8473   17.6331 Cl      1  UNL1       -0.0814
     23 C          -0.2115   73.0192   18.9422 C.ar    1  UNL1        0.0694
     24 CL         -0.7166   71.3585   18.6608 Cl      1  UNL1       -0.0813
     25 C           0.9868   73.2564   19.6261 C.ar    1  UNL1        0.0268
     26 C          11.0206   76.8035   27.0853 C.3     1  UNL1        0.1535
     27 C          11.9140   77.7821   26.3675 C.2     1  UNL1        0.2444
     28 O          13.1611   77.5950   26.3714 O.2     1  UNL1       -0.2730
     29 N          11.3486   78.8996   25.6639 N.am    1  UNL1       -0.2807
     30 H          10.3370   78.8544   25.4064 H       1  UNL1        0.1550
     31 C          12.1054   80.0492   25.2475 C.ar    1  UNL1        0.0813
     32 C          13.5002   79.9857   25.0852 C.ar    1  UNL1        0.0376
     33 C          14.2037   81.1322   24.7091 C.ar    1  UNL1        0.1003
     34 N          13.5444   82.3043   24.5135 N.ar    1  UNL1       -0.2399
     35 C          12.1989   82.4003   24.6788 C.ar    1  UNL1        0.1297
     36 C          11.4561   81.2786   25.0564 C.ar    1  UNL1        0.1725
     37 F          10.1132   81.3855   25.2189 F       1  UNL1       -0.2012
     38 C          10.6950   77.2924   28.5095 C.3     1  UNL1        0.0569
     39 C           9.4446   78.1244   28.5387 C.ar    1  UNL1       -0.0017
     40 C           9.3669   79.5072   28.4003 C.ar    1  UNL1        0.0681
     41 N           8.0920   79.9272   28.5664 N.ar    1  UNL1       -0.3523
     42 C           7.3672   78.8232   28.8187 C.ar    1  UNL1        0.0563
     43 C           5.9996   78.7516   29.0799 C.ar    1  UNL1        0.0170
     44 C           5.4457   77.4849   29.3420 C.ar    1  UNL1        0.0015
     45 C           6.2626   76.3322   29.3410 C.ar    1  UNL1        0.0001
     46 C           7.6405   76.4351   29.0765 C.ar    1  UNL1        0.0012
     47 C           8.1591   77.7033   28.8149 C.ar    1  UNL1        0.0131
     48 H           7.7481   80.9121   28.5241 H       1  UNL1        0.1660
@<TRIPOS>BOND
     1     1     2    2
     2     2     3   am
     3     3    26    1
     4    26    38    1
     5    38    39    1
     6    39    40   ar
     7    40    41   ar
     8    41    42   ar
     9    42    43   ar
    10    43    44   ar
    11    44    45   ar
    12    45    46   ar
    13    46    47   ar
    14    26    27    1
    15    27    28    2
    16    27    29   am
    17    29    31    1
    18    31    32   ar
    19    32    33   ar
    20    33    34   ar
    21    34    35   ar
    22    35    36   ar
    23    36    37    1
    24     2     5    1
    25     5     6   ar
    26     6     7   ar
    27     7     8   ar
    28     8    12    1
    29    12    13    1
    30    13    14    1
    31    14    15    1
    32    15    18    1
    33    18    19   ar
    34    19    20   ar
    35    20    21   ar
    36    21    22    1
    37    21    23   ar
    38    23    24    1
    39    23    25   ar
    40    15    16    1
    41    16    17    1
    42     8     9   ar
    43     9    10   ar
    44    10    11    1
    45    47    39   ar
    46    36    31   ar
    47    10     5   ar
    48    47    42   ar
    49    17    12    1
    50    25    18   ar
    51     3     4    1
    52    41    48    1
    53    29    30    1
@<TRIPOS>MOLECULE
*****
 48 53 0 0 0
SMALL
GASTEIGER

@<TRIPOS>ATOM
      1 O           9.4405   75.2775   27.6018 O.2     1  UNL1       -0.2701
      2 C           9.0534   75.9215   26.5884 C.2     1  UNL1        0.2483
      3 N           7.8785   75.4923   25.8802 N.am    1  UNL1       -0.2945
      4 H           7.4685   76.1202   25.1522 H       1  UNL1        0.1501
      5 C           9.8121   77.1173   26.1489 C.ar    1  UNL1        0.0808
      6 C          11.2048   77.0491   25.9660 C.ar    1  UNL1        0.0080
      7 C          11.9246   78.1755   25.5594 C.ar    1  UNL1        0.0148
      8 C          11.2679   79.3939   25.3287 C.ar    1  UNL1        0.0502
      9 C           9.8808   79.4691   25.5197 C.ar    1  UNL1        0.0443
     10 C           9.1566   78.3449   25.9285 C.ar    1  UNL1        0.1457
     11 F           7.8130   78.4558   26.0872 F       1  UNL1       -0.2040
     12 N          12.0046   80.5588   24.9111 N.pl3   1  UNL1       -0.3040
     13 C          11.3166   81.6475   24.2067 C.3     1  UNL1        0.1122
     14 C          11.8679   82.9994   24.6612 C.3     1  UNL1        0.1122
     15 N          13.3351   82.9802   24.6268 N.pl3   1  UNL1       -0.3040
     16 C          14.0231   81.8913   25.3310 C.3     1  UNL1        0.1122
     17 C          13.4719   80.5394   24.8767 C.3     1  UNL1        0.1122
     18 C          14.0715   84.1454   24.2096 C.ar    1  UNL1        0.0488
     19 C          14.7139   84.1633   22.9620 C.ar    1  UNL1        0.0154
     20 C          15.4266   85.2921   22.5503 C.ar    1  UNL1        0.0135
     21 C          15.5063   86.4172   23.3777 C.ar    1  UNL1        0.0683
     22 CL         16.4124   87.8191   22.8248 Cl      1  UNL1       -0.0814
     23 C          14.8650   86.4101   24.6278 C.ar    1  UNL1        0.0694
     24 CL         14.9421   87.8022   25.6995 Cl      1  UNL1       -0.0813
     25 C          14.1510   85.2779   25.0379 C.ar    1  UNL1        0.0268
     26 C           7.1583   74.2682   26.2415 C.3     1  UNL1        0.1535
     27 C           6.3173   74.5170   27.4669 C.2     1  UNL1        0.2444
     28 O           5.3731   73.7259   27.7369 O.2     1  UNL1       -0.2730
     29 N           6.6059   75.6268   28.3320 N.am    1  UNL1       -0.2807
     30 H           7.5556   76.0587   28.2733 H       1  UNL1        0.1550
     31 C           5.6844   76.1411   29.3088 C.ar    1  UNL1        0.0813
     32 C           5.5447   75.5367   30.5702 C.ar    1  UNL1        0.0376
     33 C           4.6166   76.0474   31.4806 C.ar    1  UNL1        0.1003
     34 N           3.8453   77.1142   31.1433 N.ar    1  UNL1       -0.2399
     35 C           3.9464   77.7091   29.9256 C.ar    1  UNL1        0.1297
     36 C           4.8603   77.2295   28.9836 C.ar    1  UNL1        0.1725
     37 F           4.9530   77.8307   27.7707 F       1  UNL1       -0.2012
     38 C           6.2903   73.7921   25.0611 C.3     1  UNL1        0.0569
     39 C           5.8431   74.9403   24.2020 C.ar    1  UNL1       -0.0017
     40 C           6.4754   75.4115   23.0550 C.ar    1  UNL1        0.0681
     41 N           5.8457   76.5136   22.5880 N.ar    1  UNL1       -0.3523
     42 C           4.8287   76.7476   23.4359 C.ar    1  UNL1        0.0563
     43 C           3.9061   77.7914   23.3812 C.ar    1  UNL1        0.0170
     44 C           2.9297   77.8594   24.3921 C.ar    1  UNL1        0.0015
     45 C           2.9002   76.8960   25.4251 C.ar    1  UNL1        0.0001
     46 C           3.8459   75.8548   25.4561 C.ar    1  UNL1        0.0012
     47 C           4.7977   75.8109   24.4372 C.ar    1  UNL1        0.0131
     48 H           6.1100   77.0758   21.7487 H       1  UNL1        0.1660
@<TRIPOS>BOND
     1     1     2    2
     2     2     3   am
     3     3    26    1
     4    26    38    1
     5    38    39    1
     6    39    40   ar
     7    40    41   ar
     8    41    42   ar
     9    42    43   ar
    10    43    44   ar
    11    44    45   ar
    12    45    46   ar
    13    46    47   ar
    14    26    27    1
    15    27    28    2
    16    27    29   am
    17    29    31    1
    18    31    32   ar
    19    32    33   ar
    20    33    34   ar
    21    34    35   ar
    22    35    36   ar
    23    36    37    1
    24     2     5    1
    25     5     6   ar
    26     6     7   ar
    27     7     8   ar
    28     8    12    1
    29    12    13    1
    30    13    14    1
    31    14    15    1
    32    15    18    1
    33    18    19   ar
    34    19    20   ar
    35    20    21   ar
    36    21    22    1
    37    21    23   ar
    38    23    24    1
    39    23    25   ar
    40    15    16    1
    41    16    17    1
    42     8     9   ar
    43     9    10   ar
    44    10    11    1
    45    47    39   ar
    46    36    31   ar
    47    10     5   ar
    48    47    42   ar
    49    17    12    1
    50    25    18   ar
    51     3     4    1
    52    41    48    1
    53    29    30    1
