@<TRIPOS>MOLECULE
*****
 60 65 0 0 0
SMALL
GASTEIGER

@<TRIPOS>ATOM
      1 C         -64.2942  -53.6842  -23.0469 C.ar    1  UNL1        0.0503
      2 C         -64.8412  -52.8310  -24.0170 C.ar    1  UNL1        0.0147
      3 C         -64.2191  -51.6221  -24.3373 C.ar    1  UNL1        0.0013
      4 C         -63.0345  -51.2368  -23.6884 C.ar    1  UNL1        0.0001
      5 C         -62.4841  -52.0884  -22.7173 C.ar    1  UNL1        0.0013
      6 C         -63.1109  -53.2942  -22.3921 C.ar    1  UNL1        0.0147
      7 C         -62.3770  -49.9496  -24.0214 C.ar    1  UNL1        0.0001
      8 C         -63.0389  -48.9961  -24.8128 C.ar    1  UNL1        0.0013
      9 C         -62.4394  -47.7656  -25.0919 C.ar    1  UNL1        0.0147
     10 C         -61.1549  -47.4703  -24.5991 C.ar    1  UNL1        0.0503
     11 C         -60.4920  -48.4260  -23.8159 C.ar    1  UNL1        0.0147
     12 C         -61.0943  -49.6539  -23.5303 C.ar    1  UNL1        0.0013
     13 N         -60.5453  -46.1830  -24.8008 N.am    1  UNL1       -0.2826
     14 C         -60.4161  -45.5540  -26.0833 C.2     1  UNL1        0.2442
     15 O         -60.0263  -46.2218  -27.0787 O.2     1  UNL1       -0.2730
     16 H         -60.2851  -45.6232  -23.9578 H       1  UNL1        0.1549
     17 C         -60.7071  -44.0852  -26.2427 C.3     1  UNL1        0.1521
     18 C         -61.4793  -43.5262  -25.0468 C.3     1  UNL1        0.0310
     19 C         -62.9207  -43.3470  -25.5180 C.3     1  UNL1        0.0237
     20 C         -62.8758  -43.3512  -27.0412 C.3     1  UNL1        0.0939
     21 N         -61.5628  -43.8640  -27.4008 N.am    1  UNL1       -0.2714
     22 C         -61.1279  -44.1132  -28.7529 C.2     1  UNL1        0.2482
     23 O         -59.9125  -44.3714  -28.9739 O.2     1  UNL1       -0.2727
     24 C         -62.0902  -44.0419  -29.9168 C.3     1  UNL1        0.1743
     25 C         -61.3329  -43.9658  -31.2263 C.ar    1  UNL1        0.0044
     26 C         -61.9109  -43.3627  -32.3600 C.ar    1  UNL1       -0.0022
     27 C         -61.2034  -43.2965  -33.5640 C.ar    1  UNL1       -0.0003
     28 C         -59.9139  -43.8264  -33.6488 C.ar    1  UNL1       -0.0000
     29 C         -59.3281  -44.4216  -32.5291 C.ar    1  UNL1       -0.0003
     30 C         -60.0309  -44.4897  -31.3223 C.ar    1  UNL1       -0.0022
     31 N         -62.9949  -45.1982  -29.9141 N.am    1  UNL1       -0.2606
     32 C         -64.4011  -45.0696  -30.1587 C.2     1  UNL1        0.4023
     33 O         -64.9005  -43.9423  -30.4274 O.2     1  UNL1       -0.2264
     34 H         -62.6319  -46.1442  -29.6575 H       1  UNL1        0.1535
     35 O         -65.2120  -46.2064  -30.1009 O.3     1  UNL1       -0.4306
     36 C         -64.8098  -47.4638  -30.6314 C.3     1  UNL1        0.2573
     37 C         -66.3830  -54.9501  -22.2812 C.2     1  UNL1        0.2442
     38 O         -66.9693  -53.9205  -21.8523 O.2     1  UNL1       -0.2730
     39 N         -65.0065  -54.8871  -22.6962 N.am    1  UNL1       -0.2826
     40 H         -64.4706  -55.7834  -22.7218 H       1  UNL1        0.1549
     41 C         -69.5312  -55.5442  -21.6728 C.2     1  UNL1        0.2482
     42 O         -70.7498  -55.6536  -21.9837 O.2     1  UNL1       -0.2727
     43 N         -68.5323  -56.1123  -22.5444 N.am    1  UNL1       -0.2714
     44 C         -68.8890  -56.7436  -23.8059 C.3     1  UNL1        0.0939
     45 C         -67.5790  -57.2082  -24.4255 C.3     1  UNL1        0.0237
     46 C         -66.5713  -57.2344  -23.2820 C.3     1  UNL1        0.0310
     47 C         -67.1155  -56.2684  -22.2271 C.3     1  UNL1        0.1521
     48 C         -69.1699  -54.7776  -20.4167 C.3     1  UNL1        0.1743
     49 C         -70.3713  -54.4432  -19.5461 C.ar    1  UNL1        0.0044
     50 C         -70.8901  -55.4452  -18.7053 C.ar    1  UNL1       -0.0022
     51 C         -72.0251  -55.2046  -17.9252 C.ar    1  UNL1       -0.0003
     52 C         -72.6580  -53.9613  -17.9740 C.ar    1  UNL1       -0.0000
     53 C         -72.1656  -52.9613  -18.8142 C.ar    1  UNL1       -0.0003
     54 C         -71.0387  -53.2002  -19.6069 C.ar    1  UNL1       -0.0022
     55 C         -67.4121  -54.9508  -18.5926 C.2     1  UNL1        0.4023
     56 O         -67.5776  -53.7387  -18.2822 O.2     1  UNL1       -0.2264
     57 N         -68.1971  -55.5447  -19.6330 N.am    1  UNL1       -0.2606
     58 H         -67.9838  -56.5318  -19.9041 H       1  UNL1        0.1535
     59 C         -66.3091  -55.7115  -16.5133 C.3     1  UNL1        0.2573
     60 O         -66.4595  -55.7278  -17.9278 O.3     1  UNL1       -0.4306
@<TRIPOS>BOND
     1    59    60    1
     2    60    55    1
     3    55    56    2
     4    55    57   am
     5    57    48    1
     6    48    41    1
     7    41    42    2
     8    41    43   am
     9    43    44    1
    10    44    45    1
    11    45    46    1
    12    46    47    1
    13    47    37    1
    14    37    38    2
    15    37    39   am
    16    39     1    1
    17     1     2   ar
    18     2     3   ar
    19     3     4   ar
    20     4     7    1
    21     7     8   ar
    22     8     9   ar
    23     9    10   ar
    24    10    13    1
    25    13    14   am
    26    14    15    2
    27    14    17    1
    28    17    18    1
    29    18    19    1
    30    19    20    1
    31    20    21    1
    32    21    22   am
    33    22    23    2
    34    22    24    1
    35    24    31    1
    36    31    32   am
    37    32    33    2
    38    32    35    1
    39    35    36    1
    40    24    25    1
    41    25    26   ar
    42    26    27   ar
    43    27    28   ar
    44    28    29   ar
    45    29    30   ar
    46    10    11   ar
    47    11    12   ar
    48     4     5   ar
    49     5     6   ar
    50    48    49    1
    51    49    50   ar
    52    50    51   ar
    53    51    52   ar
    54    52    53   ar
    55    53    54   ar
    56    47    43    1
    57     6     1   ar
    58    54    49   ar
    59    12     7   ar
    60    21    17    1
    61    30    25   ar
    62    57    58    1
    63    39    40    1
    64    13    16    1
    65    31    34    1
@<TRIPOS>MOLECULE
*****
 60 65 0 0 0
SMALL
GASTEIGER

@<TRIPOS>ATOM
      1 C         -62.3653  -47.5439  -26.2920 C.ar    1  UNL1        0.0503
      2 C         -63.6802  -48.0195  -26.4077 C.ar    1  UNL1        0.0147
      3 C         -64.0822  -49.1776  -25.7383 C.ar    1  UNL1        0.0013
      4 C         -63.1732  -49.8904  -24.9394 C.ar    1  UNL1        0.0001
      5 C         -61.8566  -49.4172  -24.8211 C.ar    1  UNL1        0.0013
      6 C         -61.4530  -48.2626  -25.4969 C.ar    1  UNL1        0.0147
      7 C         -63.5961  -51.1249  -24.2344 C.ar    1  UNL1        0.0001
      8 C         -64.8425  -51.7111  -24.5112 C.ar    1  UNL1        0.0013
      9 C         -65.2248  -52.8974  -23.8805 C.ar    1  UNL1        0.0147
     10 C         -64.3740  -53.5133  -22.9440 C.ar    1  UNL1        0.0503
     11 C         -63.1336  -52.9230  -22.6627 C.ar    1  UNL1        0.0147
     12 C         -62.7476  -51.7404  -23.2990 C.ar    1  UNL1        0.0013
     13 N         -64.7036  -54.7761  -22.3391 N.am    1  UNL1       -0.2826
     14 C         -65.9269  -55.0274  -21.6337 C.2     1  UNL1        0.2442
     15 O         -66.3645  -54.1832  -20.8062 O.2     1  UNL1       -0.2730
     16 H         -64.0722  -55.5889  -22.5194 H       1  UNL1        0.1549
     17 C         -66.6767  -56.3158  -21.8464 C.3     1  UNL1        0.1521
     18 C         -67.0400  -56.5252  -23.3172 C.3     1  UNL1        0.0310
     19 C         -68.5328  -56.2255  -23.4328 C.3     1  UNL1        0.0237
     20 C         -69.0953  -56.3053  -22.0188 C.3     1  UNL1        0.0939
     21 N         -67.9444  -56.2852  -21.1292 N.am    1  UNL1       -0.2714
     22 C         -68.0277  -56.2595  -19.6899 C.2     1  UNL1        0.2482
     23 O         -66.9819  -56.4394  -19.0066 O.2     1  UNL1       -0.2727
     24 C         -69.3461  -56.0522  -18.9797 C.3     1  UNL1        0.1743
     25 C         -69.1787  -56.2416  -17.4862 C.ar    1  UNL1        0.0044
     26 C         -70.0610  -57.0646  -16.7600 C.ar    1  UNL1       -0.0022
     27 C         -69.8976  -57.2339  -15.3819 C.ar    1  UNL1       -0.0003
     28 C         -68.8531  -56.5887  -14.7158 C.ar    1  UNL1       -0.0000
     29 C         -67.9682  -55.7747  -15.4269 C.ar    1  UNL1       -0.0003
     30 C         -68.1265  -55.6027  -16.8054 C.ar    1  UNL1       -0.0022
     31 N         -69.8882  -54.7190  -19.2699 N.am    1  UNL1       -0.2606
     32 C         -71.2896  -54.4298  -19.1924 C.2     1  UNL1        0.4023
     33 O         -72.1048  -55.3211  -18.8268 O.2     1  UNL1       -0.2264
     34 H         -69.2552  -53.9619  -19.6144 H       1  UNL1        0.1535
     35 O         -71.7429  -53.1494  -19.5217 O.3     1  UNL1       -0.4306
     36 C         -72.6243  -52.4087  -18.6858 C.3     1  UNL1        0.2573
     37 C         -62.8720  -45.5058  -27.7553 C.2     1  UNL1        0.2442
     38 O         -64.0392  -45.8818  -28.0455 O.2     1  UNL1       -0.2730
     39 N         -61.9737  -46.3863  -27.0563 N.am    1  UNL1       -0.2826
     40 H         -60.9511  -46.1860  -27.1284 H       1  UNL1        0.1549
     41 C         -61.2477  -43.1466  -26.1964 C.2     1  UNL1        0.2482
     42 O         -60.2102  -42.5800  -25.7535 O.2     1  UNL1       -0.2727
     43 N         -61.2339  -43.6873  -27.5335 N.am    1  UNL1       -0.2714
     44 C         -60.0341  -43.6601  -28.3561 C.3     1  UNL1        0.0939
     45 C         -60.4169  -44.3159  -29.6748 C.3     1  UNL1        0.0237
     46 C         -61.9401  -44.2777  -29.7247 C.3     1  UNL1        0.0310
     47 C         -62.4002  -44.1677  -28.2693 C.3     1  UNL1        0.1521
     48 C         -62.4498  -43.2741  -25.2827 C.3     1  UNL1        0.1743
     49 C         -62.1384  -43.9729  -23.9682 C.ar    1  UNL1        0.0044
     50 C         -62.1679  -43.2156  -22.7825 C.ar    1  UNL1       -0.0022
     51 C         -61.8376  -43.7985  -21.5554 C.ar    1  UNL1       -0.0003
     52 C         -61.4729  -45.1446  -21.4950 C.ar    1  UNL1       -0.0000
     53 C         -61.4234  -45.9063  -22.6636 C.ar    1  UNL1       -0.0003
     54 C         -61.7397  -45.3256  -23.8958 C.ar    1  UNL1       -0.0022
     55 C         -63.9334  -41.3063  -25.8942 C.2     1  UNL1        0.4023
     56 O         -64.3451  -41.9044  -26.9267 O.2     1  UNL1       -0.2264
     57 N         -63.0055  -41.9453  -25.0099 N.am    1  UNL1       -0.2606
     58 H         -62.6389  -41.3917  -24.2020 H       1  UNL1        0.1535
     59 C         -65.4937  -39.7566  -24.7618 C.3     1  UNL1        0.2573
     60 O         -64.3751  -40.0130  -25.6023 O.3     1  UNL1       -0.4306
@<TRIPOS>BOND
     1    59    60    1
     2    60    55    1
     3    55    56    2
     4    55    57   am
     5    57    48    1
     6    48    41    1
     7    41    42    2
     8    41    43   am
     9    43    44    1
    10    44    45    1
    11    45    46    1
    12    46    47    1
    13    47    37    1
    14    37    38    2
    15    37    39   am
    16    39     1    1
    17     1     2   ar
    18     2     3   ar
    19     3     4   ar
    20     4     7    1
    21     7     8   ar
    22     8     9   ar
    23     9    10   ar
    24    10    13    1
    25    13    14   am
    26    14    15    2
    27    14    17    1
    28    17    18    1
    29    18    19    1
    30    19    20    1
    31    20    21    1
    32    21    22   am
    33    22    23    2
    34    22    24    1
    35    24    31    1
    36    31    32   am
    37    32    33    2
    38    32    35    1
    39    35    36    1
    40    24    25    1
    41    25    26   ar
    42    26    27   ar
    43    27    28   ar
    44    28    29   ar
    45    29    30   ar
    46    10    11   ar
    47    11    12   ar
    48     4     5   ar
    49     5     6   ar
    50    48    49    1
    51    49    50   ar
    52    50    51   ar
    53    51    52   ar
    54    52    53   ar
    55    53    54   ar
    56    47    43    1
    57     6     1   ar
    58    54    49   ar
    59    12     7   ar
    60    21    17    1
    61    30    25   ar
    62    57    58    1
    63    39    40    1
    64    13    16    1
    65    31    34    1
@<TRIPOS>MOLECULE
*****
 60 65 0 0 0
SMALL
GASTEIGER

@<TRIPOS>ATOM
      1 C         -64.4804  -53.4471  -23.2177 C.ar    1  UNL1        0.0503
      2 C         -65.1127  -52.6852  -24.2116 C.ar    1  UNL1        0.0147
      3 C         -64.6115  -51.4345  -24.5797 C.ar    1  UNL1        0.0013
      4 C         -63.4654  -50.9147  -23.9560 C.ar    1  UNL1        0.0001
      5 C         -62.8298  -51.6747  -22.9611 C.ar    1  UNL1        0.0013
      6 C         -63.3359  -52.9227  -22.5881 C.ar    1  UNL1        0.0147
      7 C         -62.9366  -49.5832  -24.3398 C.ar    1  UNL1        0.0001
      8 C         -61.5583  -49.3943  -24.5356 C.ar    1  UNL1        0.0013
      9 C         -61.0623  -48.1523  -24.9393 C.ar    1  UNL1        0.0147
     10 C         -61.9349  -47.0664  -25.1379 C.ar    1  UNL1        0.0503
     11 C         -63.3095  -47.2542  -24.9344 C.ar    1  UNL1        0.0147
     12 C         -63.8069  -48.4983  -24.5380 C.ar    1  UNL1        0.0013
     13 N         -61.4650  -45.7994  -25.6309 N.am    1  UNL1       -0.2826
     14 C         -62.2278  -44.9482  -26.4974 C.2     1  UNL1        0.2442
     15 O         -62.8414  -45.4370  -27.4840 O.2     1  UNL1       -0.2730
     16 H         -60.5684  -45.4232  -25.2482 H       1  UNL1        0.1549
     17 C         -62.2703  -43.4621  -26.2590 C.3     1  UNL1        0.1521
     18 C         -61.7109  -42.6799  -27.4482 C.3     1  UNL1        0.0310
     19 C         -60.3249  -42.1981  -27.0255 C.3     1  UNL1        0.0237
     20 C         -60.2858  -42.2904  -25.5050 C.3     1  UNL1        0.0939
     21 N         -61.4265  -43.1094  -25.1250 N.am    1  UNL1       -0.2714
     22 C         -61.7201  -43.5208  -23.7745 C.2     1  UNL1        0.2482
     23 O         -62.8313  -44.0628  -23.5209 O.2     1  UNL1       -0.2727
     24 C         -60.7382  -43.2895  -22.6484 C.3     1  UNL1        0.1743
     25 C         -61.2629  -42.2347  -21.6964 C.ar    1  UNL1        0.0044
     26 C         -60.7871  -42.1560  -20.3733 C.ar    1  UNL1       -0.0022
     27 C         -61.2769  -41.1782  -19.5026 C.ar    1  UNL1       -0.0003
     28 C         -62.2413  -40.2684  -19.9420 C.ar    1  UNL1       -0.0000
     29 C         -62.7162  -40.3330  -21.2540 C.ar    1  UNL1       -0.0003
     30 C         -62.2291  -41.3084  -22.1294 C.ar    1  UNL1       -0.0022
     31 N         -60.4689  -44.5409  -21.9292 N.am    1  UNL1       -0.2606
     32 C         -59.5387  -45.5170  -22.4147 C.2     1  UNL1        0.4023
     33 O         -58.8854  -45.3033  -23.4730 O.2     1  UNL1       -0.2264
     34 H         -61.0157  -44.7773  -21.0704 H       1  UNL1        0.1535
     35 O         -59.3601  -46.7055  -21.7014 O.3     1  UNL1       -0.4306
     36 C         -60.4390  -47.5725  -21.3722 C.3     1  UNL1        0.2573
     37 C         -66.4068  -54.8658  -22.3077 C.2     1  UNL1        0.2442
     38 O         -67.0389  -53.8822  -21.8378 O.2     1  UNL1       -0.2730
     39 N         -65.0718  -54.6994  -22.8185 N.am    1  UNL1       -0.2826
     40 H         -64.4718  -55.5522  -22.8824 H       1  UNL1        0.1549
     41 C         -69.4606  -55.6947  -21.5193 C.2     1  UNL1        0.2482
     42 O         -70.6823  -55.9017  -21.7605 O.2     1  UNL1       -0.2727
     43 N         -68.4703  -56.1938  -22.4415 N.am    1  UNL1       -0.2714
     44 C         -68.8461  -56.8654  -23.6764 C.3     1  UNL1        0.0939
     45 C         -67.5402  -57.2343  -24.3651 C.3     1  UNL1        0.0237
     46 C         -66.4717  -57.1692  -23.2798 C.3     1  UNL1        0.0310
     47 C         -67.0303  -56.2361  -22.2031 C.3     1  UNL1        0.1521
     48 C         -69.0911  -54.8880  -20.2910 C.3     1  UNL1        0.1743
     49 C         -70.2888  -54.5108  -19.4328 C.ar    1  UNL1        0.0044
     50 C         -70.9551  -53.3017  -19.7053 C.ar    1  UNL1       -0.0022
     51 C         -72.0281  -52.8841  -18.9122 C.ar    1  UNL1       -0.0003
     52 C         -72.4502  -53.6670  -17.8363 C.ar    1  UNL1       -0.0000
     53 C         -71.7905  -54.8615  -17.5425 C.ar    1  UNL1       -0.0003
     54 C         -70.7081  -55.2780  -18.3239 C.ar    1  UNL1       -0.0022
     55 C         -67.2988  -55.0059  -18.4962 C.2     1  UNL1        0.4023
     56 O         -67.4183  -53.7719  -18.2596 O.2     1  UNL1       -0.2264
     57 N         -68.1259  -55.6369  -19.4807 N.am    1  UNL1       -0.2606
     58 H         -67.9507  -56.6456  -19.6933 H       1  UNL1        0.1535
     59 C         -66.1062  -55.6038  -16.4133 C.3     1  UNL1        0.2573
     60 O         -66.3569  -55.7713  -17.8035 O.3     1  UNL1       -0.4306
@<TRIPOS>BOND
     1    59    60    1
     2    60    55    1
     3    55    56    2
     4    55    57   am
     5    57    48    1
     6    48    41    1
     7    41    42    2
     8    41    43   am
     9    43    44    1
    10    44    45    1
    11    45    46    1
    12    46    47    1
    13    47    37    1
    14    37    38    2
    15    37    39   am
    16    39     1    1
    17     1     2   ar
    18     2     3   ar
    19     3     4   ar
    20     4     7    1
    21     7     8   ar
    22     8     9   ar
    23     9    10   ar
    24    10    13    1
    25    13    14   am
    26    14    15    2
    27    14    17    1
    28    17    18    1
    29    18    19    1
    30    19    20    1
    31    20    21    1
    32    21    22   am
    33    22    23    2
    34    22    24    1
    35    24    31    1
    36    31    32   am
    37    32    33    2
    38    32    35    1
    39    35    36    1
    40    24    25    1
    41    25    26   ar
    42    26    27   ar
    43    27    28   ar
    44    28    29   ar
    45    29    30   ar
    46    10    11   ar
    47    11    12   ar
    48     4     5   ar
    49     5     6   ar
    50    48    49    1
    51    49    50   ar
    52    50    51   ar
    53    51    52   ar
    54    52    53   ar
    55    53    54   ar
    56    47    43    1
    57     6     1   ar
    58    54    49   ar
    59    12     7   ar
    60    21    17    1
    61    30    25   ar
    62    57    58    1
    63    39    40    1
    64    13    16    1
    65    31    34    1
@<TRIPOS>MOLECULE
*****
 60 65 0 0 0
SMALL
GASTEIGER

@<TRIPOS>ATOM
      1 C         -61.5619  -48.4455  -24.6707 C.ar    1  UNL1        0.0503
      2 C         -60.9602  -49.4045  -23.8421 C.ar    1  UNL1        0.0147
      3 C         -61.6388  -50.5748  -23.4947 C.ar    1  UNL1        0.0013
      4 C         -62.9407  -50.8101  -23.9665 C.ar    1  UNL1        0.0001
      5 C         -63.5458  -49.8527  -24.7962 C.ar    1  UNL1        0.0013
      6 C         -62.8692  -48.6786  -25.1375 C.ar    1  UNL1        0.0147
      7 C         -63.6658  -52.0486  -23.5919 C.ar    1  UNL1        0.0001
      8 C         -64.9361  -52.3191  -24.1275 C.ar    1  UNL1        0.0013
      9 C         -65.6024  -53.5052  -23.8102 C.ar    1  UNL1        0.0147
     10 C         -65.0183  -54.4386  -22.9340 C.ar    1  UNL1        0.0503
     11 C         -63.7539  -54.1637  -22.3939 C.ar    1  UNL1        0.0147
     12 C         -63.0837  -52.9810  -22.7169 C.ar    1  UNL1        0.0013
     13 N         -65.6421  -55.7038  -22.6520 N.am    1  UNL1       -0.2826
     14 C         -67.0536  -55.8720  -22.4607 C.2     1  UNL1        0.2442
     15 O         -67.6948  -55.0618  -21.7387 O.2     1  UNL1       -0.2730
     16 H         -65.0535  -56.5657  -22.7017 H       1  UNL1        0.1549
     17 C         -67.7725  -57.0370  -23.0878 C.3     1  UNL1        0.1521
     18 C         -67.4410  -57.1754  -24.5743 C.3     1  UNL1        0.0310
     19 C         -68.6640  -56.6633  -25.3318 C.3     1  UNL1        0.0237
     20 C         -69.8189  -56.6776  -24.3378 C.3     1  UNL1        0.0939
     21 N         -69.2136  -56.8330  -23.0241 N.am    1  UNL1       -0.2714
     22 C         -69.9459  -56.8119  -21.7821 C.2     1  UNL1        0.2482
     23 O         -69.3626  -57.1477  -20.7145 O.2     1  UNL1       -0.2727
     24 C         -71.4068  -56.4257  -21.7343 C.3     1  UNL1        0.1743
     25 C         -71.6541  -55.4255  -20.6240 C.ar    1  UNL1        0.0044
     26 C         -70.8052  -54.3153  -20.4508 C.ar    1  UNL1       -0.0022
     27 C         -71.0424  -53.3971  -19.4237 C.ar    1  UNL1       -0.0003
     28 C         -72.1280  -53.5738  -18.5629 C.ar    1  UNL1       -0.0000
     29 C         -72.9803  -54.6680  -18.7289 C.ar    1  UNL1       -0.0003
     30 C         -72.7483  -55.5889  -19.7550 C.ar    1  UNL1       -0.0022
     31 N         -71.8414  -55.8771  -23.0249 N.am    1  UNL1       -0.2606
     32 C         -73.1797  -56.0362  -23.5118 C.2     1  UNL1        0.4023
     33 O         -74.0461  -56.6291  -22.8117 O.2     1  UNL1       -0.2264
     34 H         -71.1480  -55.4137  -23.6550 H       1  UNL1        0.1535
     35 O         -73.5158  -55.5239  -24.7680 O.3     1  UNL1       -0.4306
     36 C         -73.5447  -56.3273  -25.9418 C.3     1  UNL1        0.2573
     37 C         -61.4154  -45.8975  -24.8661 C.2     1  UNL1        0.2442
     38 O         -62.6640  -45.7298  -24.8935 O.2     1  UNL1       -0.2730
     39 N         -60.8543  -47.2203  -24.9456 N.am    1  UNL1       -0.2826
     40 H         -59.8591  -47.3027  -25.2522 H       1  UNL1        0.1549
     41 C         -61.2312  -43.4942  -27.0626 C.2     1  UNL1        0.2482
     42 O         -61.5874  -42.4037  -27.5894 O.2     1  UNL1       -0.2727
     43 N         -61.1297  -43.5780  -25.6263 N.am    1  UNL1       -0.2714
     44 C         -61.4961  -42.4616  -24.7682 C.3     1  UNL1        0.0939
     45 C         -61.2552  -42.9346  -23.3420 C.3     1  UNL1        0.0237
     46 C         -60.3273  -44.1382  -23.4605 C.3     1  UNL1        0.0310
     47 C         -60.5268  -44.6779  -24.8786 C.3     1  UNL1        0.1521
     48 C         -60.9703  -44.6834  -27.9646 C.3     1  UNL1        0.1743
     49 C         -62.2363  -45.4183  -28.3775 C.ar    1  UNL1        0.0044
     50 C         -62.2937  -46.8120  -28.1919 C.ar    1  UNL1       -0.0022
     51 C         -63.4135  -47.5408  -28.6035 C.ar    1  UNL1       -0.0003
     52 C         -64.4907  -46.8890  -29.2063 C.ar    1  UNL1       -0.0000
     53 C         -64.4436  -45.5092  -29.4121 C.ar    1  UNL1       -0.0003
     54 C         -63.3208  -44.7765  -29.0147 C.ar    1  UNL1       -0.0022
     55 C         -59.3702  -45.1140  -29.8887 C.2     1  UNL1        0.4023
     56 O         -59.2341  -46.3193  -29.5396 O.2     1  UNL1       -0.2264
     57 N         -60.2472  -44.2453  -29.1623 N.am    1  UNL1       -0.2606
     58 H         -60.2816  -43.2386  -29.4429 H       1  UNL1        0.1535
     59 C         -59.2740  -44.3936  -32.2530 C.3     1  UNL1        0.2573
     60 O         -58.6656  -44.6111  -30.9858 O.3     1  UNL1       -0.4306
@<TRIPOS>BOND
     1    59    60    1
     2    60    55    1
     3    55    56    2
     4    55    57   am
     5    57    48    1
     6    48    41    1
     7    41    42    2
     8    41    43   am
     9    43    44    1
    10    44    45    1
    11    45    46    1
    12    46    47    1
    13    47    37    1
    14    37    38    2
    15    37    39   am
    16    39     1    1
    17     1     2   ar
    18     2     3   ar
    19     3     4   ar
    20     4     7    1
    21     7     8   ar
    22     8     9   ar
    23     9    10   ar
    24    10    13    1
    25    13    14   am
    26    14    15    2
    27    14    17    1
    28    17    18    1
    29    18    19    1
    30    19    20    1
    31    20    21    1
    32    21    22   am
    33    22    23    2
    34    22    24    1
    35    24    31    1
    36    31    32   am
    37    32    33    2
    38    32    35    1
    39    35    36    1
    40    24    25    1
    41    25    26   ar
    42    26    27   ar
    43    27    28   ar
    44    28    29   ar
    45    29    30   ar
    46    10    11   ar
    47    11    12   ar
    48     4     5   ar
    49     5     6   ar
    50    48    49    1
    51    49    50   ar
    52    50    51   ar
    53    51    52   ar
    54    52    53   ar
    55    53    54   ar
    56    47    43    1
    57     6     1   ar
    58    54    49   ar
    59    12     7   ar
    60    21    17    1
    61    30    25   ar
    62    57    58    1
    63    39    40    1
    64    13    16    1
    65    31    34    1
@<TRIPOS>MOLECULE
*****
 60 65 0 0 0
SMALL
GASTEIGER

@<TRIPOS>ATOM
      1 C         -64.3062  -53.6947  -22.9941 C.ar    1  UNL1        0.0503
      2 C         -64.8687  -52.7910  -23.9081 C.ar    1  UNL1        0.0147
      3 C         -64.2365  -51.5790  -24.1950 C.ar    1  UNL1        0.0013
      4 C         -63.0260  -51.2411  -23.5680 C.ar    1  UNL1        0.0001
      5 C         -62.4600  -52.1433  -22.6530 C.ar    1  UNL1        0.0013
      6 C         -63.0966  -53.3525  -22.3610 C.ar    1  UNL1        0.0147
      7 C         -62.3575  -49.9509  -23.8652 C.ar    1  UNL1        0.0001
      8 C         -62.9039  -49.0675  -24.8111 C.ar    1  UNL1        0.0013
      9 C         -62.3001  -47.8329  -25.0613 C.ar    1  UNL1        0.0147
     10 C         -61.1242  -47.4637  -24.3823 C.ar    1  UNL1        0.0503
     11 C         -60.5753  -48.3497  -23.4443 C.ar    1  UNL1        0.0147
     12 C         -61.1832  -49.5814  -23.1881 C.ar    1  UNL1        0.0013
     13 N         -60.5249  -46.1679  -24.5582 N.am    1  UNL1       -0.2826
     14 C         -60.2827  -45.5684  -25.8385 C.2     1  UNL1        0.2442
     15 O         -59.7824  -46.2516  -26.7721 O.2     1  UNL1       -0.2730
     16 H         -60.3612  -45.5810  -23.7093 H       1  UNL1        0.1549
     17 C         -60.5874  -44.1114  -26.0659 C.3     1  UNL1        0.1521
     18 C         -60.6081  -43.3242  -24.7548 C.3     1  UNL1        0.0310
     19 C         -62.0791  -43.0625  -24.4397 C.3     1  UNL1        0.0237
     20 C         -62.8391  -43.2714  -25.7438 C.3     1  UNL1        0.0939
     21 N         -61.9188  -43.9582  -26.6369 N.am    1  UNL1       -0.2714
     22 C         -62.2615  -44.4260  -27.9572 C.2     1  UNL1        0.2482
     23 O         -61.3470  -44.8335  -28.7256 O.2     1  UNL1       -0.2727
     24 C         -63.6895  -44.4105  -28.4535 C.3     1  UNL1        0.1743
     25 C         -63.9967  -43.0968  -29.1421 C.ar    1  UNL1        0.0044
     26 C         -63.0351  -42.0696  -29.1985 C.ar    1  UNL1       -0.0022
     27 C         -63.3278  -40.8610  -29.8371 C.ar    1  UNL1       -0.0003
     28 C         -64.5782  -40.6659  -30.4281 C.ar    1  UNL1       -0.0000
     29 C         -65.5378  -41.6799  -30.3837 C.ar    1  UNL1       -0.0003
     30 C         -65.2500  -42.8910  -29.7470 C.ar    1  UNL1       -0.0022
     31 N         -63.9351  -45.5362  -29.3636 N.am    1  UNL1       -0.2606
     32 C         -63.9335  -46.8970  -28.9145 C.2     1  UNL1        0.4023
     33 O         -63.7569  -47.1649  -27.6940 O.2     1  UNL1       -0.2264
     34 H         -64.0465  -45.3639  -30.3885 H       1  UNL1        0.1535
     35 O         -64.1338  -47.9234  -29.8418 O.3     1  UNL1       -0.4306
     36 C         -64.5729  -49.2231  -29.4650 C.3     1  UNL1        0.2573
     37 C         -66.4105  -54.9659  -22.2816 C.2     1  UNL1        0.2442
     38 O         -67.0006  -53.9413  -21.8457 O.2     1  UNL1       -0.2730
     39 N         -65.0275  -54.9007  -22.6738 N.am    1  UNL1       -0.2826
     40 H         -64.4939  -55.7982  -22.7051 H       1  UNL1        0.1549
     41 C         -69.5688  -55.5600  -21.7275 C.2     1  UNL1        0.2482
     42 O         -70.7832  -55.6603  -22.0573 O.2     1  UNL1       -0.2727
     43 N         -68.5593  -56.1166  -22.5944 N.am    1  UNL1       -0.2714
     44 C         -68.9002  -56.7256  -23.8712 C.3     1  UNL1        0.0939
     45 C         -67.5830  -57.1840  -24.4800 C.3     1  UNL1        0.0237
     46 C         -66.5915  -57.2325  -23.3231 C.3     1  UNL1        0.0310
     47 C         -67.1476  -56.2826  -22.2599 C.3     1  UNL1        0.1521
     48 C         -69.2229  -54.8157  -20.4538 C.3     1  UNL1        0.1743
     49 C         -70.4336  -54.5065  -19.5867 C.ar    1  UNL1        0.0044
     50 C         -70.9760  -53.2088  -19.6302 C.ar    1  UNL1       -0.0022
     51 C         -72.0553  -52.8591  -18.8131 C.ar    1  UNL1       -0.0003
     52 C         -72.6074  -53.7993  -17.9414 C.ar    1  UNL1       -0.0000
     53 C         -72.0716  -55.0864  -17.8744 C.ar    1  UNL1       -0.0003
     54 C         -70.9836  -55.4384  -18.6793 C.ar    1  UNL1       -0.0022
     55 C         -67.4405  -55.0007  -18.6548 C.2     1  UNL1        0.4023
     56 O         -67.5811  -53.7830  -18.3541 O.2     1  UNL1       -0.2264
     57 N         -68.2512  -55.5914  -19.6772 N.am    1  UNL1       -0.2606
     58 H         -68.0585  -56.5846  -19.9417 H       1  UNL1        0.1535
     59 C         -66.2842  -55.7227  -16.5908 C.3     1  UNL1        0.2573
     60 O         -66.4910  -55.7870  -17.9968 O.3     1  UNL1       -0.4306
@<TRIPOS>BOND
     1    59    60    1
     2    60    55    1
     3    55    56    2
     4    55    57   am
     5    57    48    1
     6    48    41    1
     7    41    42    2
     8    41    43   am
     9    43    44    1
    10    44    45    1
    11    45    46    1
    12    46    47    1
    13    47    37    1
    14    37    38    2
    15    37    39   am
    16    39     1    1
    17     1     2   ar
    18     2     3   ar
    19     3     4   ar
    20     4     7    1
    21     7     8   ar
    22     8     9   ar
    23     9    10   ar
    24    10    13    1
    25    13    14   am
    26    14    15    2
    27    14    17    1
    28    17    18    1
    29    18    19    1
    30    19    20    1
    31    20    21    1
    32    21    22   am
    33    22    23    2
    34    22    24    1
    35    24    31    1
    36    31    32   am
    37    32    33    2
    38    32    35    1
    39    35    36    1
    40    24    25    1
    41    25    26   ar
    42    26    27   ar
    43    27    28   ar
    44    28    29   ar
    45    29    30   ar
    46    10    11   ar
    47    11    12   ar
    48     4     5   ar
    49     5     6   ar
    50    48    49    1
    51    49    50   ar
    52    50    51   ar
    53    51    52   ar
    54    52    53   ar
    55    53    54   ar
    56    47    43    1
    57     6     1   ar
    58    54    49   ar
    59    12     7   ar
    60    21    17    1
    61    30    25   ar
    62    57    58    1
    63    39    40    1
    64    13    16    1
    65    31    34    1
@<TRIPOS>MOLECULE
*****
 60 65 0 0 0
SMALL
GASTEIGER

@<TRIPOS>ATOM
      1 C         -61.3516  -48.2283  -24.5295 C.ar    1  UNL1        0.0503
      2 C         -60.7862  -49.1997  -23.6899 C.ar    1  UNL1        0.0147
      3 C         -61.4810  -50.3726  -23.3857 C.ar    1  UNL1        0.0013
      4 C         -62.7631  -50.5981  -23.9129 C.ar    1  UNL1        0.0001
      5 C         -63.3319  -49.6282  -24.7538 C.ar    1  UNL1        0.0013
      6 C         -62.6394  -48.4517  -25.0519 C.ar    1  UNL1        0.0147
      7 C         -63.5057  -51.8392  -23.5843 C.ar    1  UNL1        0.0001
      8 C         -64.7812  -52.0701  -24.1261 C.ar    1  UNL1        0.0013
      9 C         -65.4643  -53.2576  -23.8529 C.ar    1  UNL1        0.0147
     10 C         -64.8919  -54.2328  -23.0153 C.ar    1  UNL1        0.0503
     11 C         -63.6222  -53.9977  -22.4688 C.ar    1  UNL1        0.0147
     12 C         -62.9354  -52.8134  -22.7479 C.ar    1  UNL1        0.0013
     13 N         -65.5338  -55.4986  -22.7805 N.am    1  UNL1       -0.2826
     14 C         -66.7526  -55.6495  -22.0396 C.2     1  UNL1        0.2442
     15 O         -66.9109  -55.0343  -20.9508 O.2     1  UNL1       -0.2730
     16 H         -65.1571  -56.3409  -23.2708 H       1  UNL1        0.1549
     17 C         -67.8348  -56.5716  -22.5353 C.3     1  UNL1        0.1521
     18 C         -67.7712  -56.7581  -24.0520 C.3     1  UNL1        0.0310
     19 C         -68.9145  -55.9273  -24.6303 C.3     1  UNL1        0.0237
     20 C         -69.8753  -55.6619  -23.4778 C.3     1  UNL1        0.0939
     21 N         -69.1470  -55.9998  -22.2646 N.am    1  UNL1       -0.2714
     22 C         -69.6593  -55.8163  -20.9292 C.2     1  UNL1        0.2482
     23 O         -69.0350  -56.3170  -19.9532 O.2     1  UNL1       -0.2727
     24 C         -70.9450  -55.0630  -20.6741 C.3     1  UNL1        0.1743
     25 C         -72.1129  -55.7719  -21.3282 C.ar    1  UNL1        0.0044
     26 C         -72.9798  -56.5836  -20.5715 C.ar    1  UNL1       -0.0022
     27 C         -74.0555  -57.2330  -21.1842 C.ar    1  UNL1       -0.0003
     28 C         -74.2797  -57.0773  -22.5540 C.ar    1  UNL1       -0.0000
     29 C         -73.4299  -56.2698  -23.3137 C.ar    1  UNL1       -0.0003
     30 C         -72.3530  -55.6173  -22.7057 C.ar    1  UNL1       -0.0022
     31 N         -71.1800  -54.9101  -19.2329 N.am    1  UNL1       -0.2606
     32 C         -71.7217  -53.7088  -18.6697 C.2     1  UNL1        0.4023
     33 O         -72.0540  -52.7481  -19.4173 O.2     1  UNL1       -0.2264
     34 H         -70.8831  -55.6642  -18.5729 H       1  UNL1        0.1535
     35 O         -71.8818  -53.6148  -17.2844 O.3     1  UNL1       -0.4306
     36 C         -71.5799  -54.6894  -16.4023 C.3     1  UNL1        0.2573
     37 C         -61.0625  -45.6914  -24.3499 C.2     1  UNL1        0.2442
     38 O         -62.2722  -45.4748  -24.0713 O.2     1  UNL1       -0.2730
     39 N         -60.6307  -47.0016  -24.7594 N.am    1  UNL1       -0.2826
     40 H         -59.7329  -47.0681  -25.2893 H       1  UNL1        0.1549
     41 C         -60.9251  -43.1674  -26.4103 C.2     1  UNL1        0.2482
     42 O         -61.2610  -42.0288  -26.8396 O.2     1  UNL1       -0.2727
     43 N         -60.7087  -43.3467  -24.9956 N.am    1  UNL1       -0.2714
     44 C         -60.9373  -42.2689  -24.0452 C.3     1  UNL1        0.0939
     45 C         -60.6055  -42.8427  -22.6754 C.3     1  UNL1        0.0237
     46 C         -59.7613  -44.0833  -22.9441 C.3     1  UNL1        0.0310
     47 C         -60.1094  -44.5214  -24.3685 C.3     1  UNL1        0.1521
     48 C         -60.8093  -44.3095  -27.3993 C.3     1  UNL1        0.1743
     49 C         -62.1542  -44.8686  -27.8373 C.ar    1  UNL1        0.0044
     50 C         -62.3172  -46.2655  -27.8830 C.ar    1  UNL1       -0.0022
     51 C         -63.5161  -46.8296  -28.3293 C.ar    1  UNL1       -0.0003
     52 C         -64.5682  -46.0074  -28.7364 C.ar    1  UNL1       -0.0000
     53 C         -64.4179  -44.6199  -28.7121 C.ar    1  UNL1       -0.0003
     54 C         -63.2165  -44.0498  -28.2794 C.ar    1  UNL1       -0.0022
     55 C         -59.4126  -44.7890  -29.4649 C.2     1  UNL1        0.4023
     56 O         -59.5212  -46.0330  -29.2812 O.2     1  UNL1       -0.2264
     57 N         -60.0569  -43.8678  -28.5774 N.am    1  UNL1       -0.2606
     58 H         -59.8883  -42.8465  -28.7253 H       1  UNL1        0.1535
     59 C         -58.9094  -44.6686  -31.8837 C.3     1  UNL1        0.2573
     60 O         -58.6605  -44.2946  -30.5340 O.3     1  UNL1       -0.4306
@<TRIPOS>BOND
     1    59    60    1
     2    60    55    1
     3    55    56    2
     4    55    57   am
     5    57    48    1
     6    48    41    1
     7    41    42    2
     8    41    43   am
     9    43    44    1
    10    44    45    1
    11    45    46    1
    12    46    47    1
    13    47    37    1
    14    37    38    2
    15    37    39   am
    16    39     1    1
    17     1     2   ar
    18     2     3   ar
    19     3     4   ar
    20     4     7    1
    21     7     8   ar
    22     8     9   ar
    23     9    10   ar
    24    10    13    1
    25    13    14   am
    26    14    15    2
    27    14    17    1
    28    17    18    1
    29    18    19    1
    30    19    20    1
    31    20    21    1
    32    21    22   am
    33    22    23    2
    34    22    24    1
    35    24    31    1
    36    31    32   am
    37    32    33    2
    38    32    35    1
    39    35    36    1
    40    24    25    1
    41    25    26   ar
    42    26    27   ar
    43    27    28   ar
    44    28    29   ar
    45    29    30   ar
    46    10    11   ar
    47    11    12   ar
    48     4     5   ar
    49     5     6   ar
    50    48    49    1
    51    49    50   ar
    52    50    51   ar
    53    51    52   ar
    54    52    53   ar
    55    53    54   ar
    56    47    43    1
    57     6     1   ar
    58    54    49   ar
    59    12     7   ar
    60    21    17    1
    61    30    25   ar
    62    57    58    1
    63    39    40    1
    64    13    16    1
    65    31    34    1
@<TRIPOS>MOLECULE
*****
 60 65 0 0 0
SMALL
GASTEIGER

@<TRIPOS>ATOM
      1 C         -61.4291  -48.7963  -24.4615 C.ar    1  UNL1        0.0503
      2 C         -60.8823  -49.8358  -23.6943 C.ar    1  UNL1        0.0147
      3 C         -61.6428  -50.9623  -23.3726 C.ar    1  UNL1        0.0013
      4 C         -62.9733  -51.0719  -23.8090 C.ar    1  UNL1        0.0001
      5 C         -63.5237  -50.0336  -24.5774 C.ar    1  UNL1        0.0013
      6 C         -62.7647  -48.9035  -24.8928 C.ar    1  UNL1        0.0147
      7 C         -63.7850  -52.2636  -23.4615 C.ar    1  UNL1        0.0001
      8 C         -65.1097  -52.3793  -23.9146 C.ar    1  UNL1        0.0013
      9 C         -65.8620  -53.5203  -23.6251 C.ar    1  UNL1        0.0147
     10 C         -65.3093  -54.5632  -22.8589 C.ar    1  UNL1        0.0503
     11 C         -63.9896  -54.4430  -22.4005 C.ar    1  UNL1        0.0147
     12 C         -63.2342  -53.3053  -22.6963 C.ar    1  UNL1        0.0013
     13 N         -66.0293  -55.7840  -22.6129 N.am    1  UNL1       -0.2826
     14 C         -67.2348  -55.8568  -21.8391 C.2     1  UNL1        0.2442
     15 O         -67.3210  -55.2399  -20.7433 O.2     1  UNL1       -0.2730
     16 H         -65.7245  -56.6465  -23.1178 H       1  UNL1        0.1549
     17 C         -68.3905  -56.6997  -22.3093 C.3     1  UNL1        0.1521
     18 C         -68.4207  -56.8225  -23.8335 C.3     1  UNL1        0.0310
     19 C         -69.5479  -55.9097  -24.3110 C.3     1  UNL1        0.0237
     20 C         -70.4281  -55.6461  -23.0954 C.3     1  UNL1        0.0939
     21 N         -69.6533  -56.0737  -21.9407 N.am    1  UNL1       -0.2714
     22 C         -70.0807  -55.9229  -20.5718 C.2     1  UNL1        0.2482
     23 O         -69.4314  -56.4971  -19.6545 O.2     1  UNL1       -0.2727
     24 C         -71.3082  -55.1166  -20.2130 C.3     1  UNL1        0.1743
     25 C         -72.5655  -55.8551  -20.6229 C.ar    1  UNL1        0.0044
     26 C         -72.9637  -55.9077  -21.9726 C.ar    1  UNL1       -0.0022
     27 C         -74.1252  -56.5928  -22.3412 C.ar    1  UNL1       -0.0003
     28 C         -74.8981  -57.2341  -21.3704 C.ar    1  UNL1       -0.0000
     29 C         -74.5097  -57.1937  -20.0293 C.ar    1  UNL1       -0.0003
     30 C         -73.3484  -56.5108  -19.6553 C.ar    1  UNL1       -0.0022
     31 N         -71.3330  -54.8207  -18.7751 N.am    1  UNL1       -0.2606
     32 C         -72.0228  -53.6843  -18.2400 C.2     1  UNL1        0.4023
     33 O         -72.6723  -52.9164  -19.0020 O.2     1  UNL1       -0.2264
     34 H         -70.7765  -55.4066  -18.1121 H       1  UNL1        0.1535
     35 O         -71.9719  -53.4386  -16.8650 O.3     1  UNL1       -0.4306
     36 C         -72.1587  -54.4624  -15.8950 C.3     1  UNL1        0.2573
     37 C         -60.2432  -46.6533  -23.7181 C.2     1  UNL1        0.2442
     38 O         -60.8644  -46.5722  -22.6248 O.2     1  UNL1       -0.2730
     39 N         -60.6330  -47.6207  -24.7096 N.am    1  UNL1       -0.2826
     40 H         -60.3365  -47.4448  -25.6956 H       1  UNL1        0.1549
     41 C         -60.4478  -43.3992  -23.7801 C.2     1  UNL1        0.2482
     42 O         -60.4498  -42.2486  -23.2607 O.2     1  UNL1       -0.2727
     43 N         -59.4508  -44.3543  -23.3630 N.am    1  UNL1       -0.2714
     44 C         -58.4946  -44.0495  -22.3094 C.3     1  UNL1        0.0939
     45 C         -57.6263  -45.2905  -22.1618 C.3     1  UNL1        0.0237
     46 C         -57.8229  -46.0838  -23.4486 C.3     1  UNL1        0.0310
     47 C         -59.1719  -45.6320  -24.0125 C.3     1  UNL1        0.1521
     48 C         -61.5261  -43.7409  -24.7883 C.3     1  UNL1        0.1743
     49 C         -62.6198  -42.6883  -24.8839 C.ar    1  UNL1        0.0044
     50 C         -62.9878  -42.2172  -26.1577 C.ar    1  UNL1       -0.0022
     51 C         -63.9499  -41.2121  -26.2960 C.ar    1  UNL1       -0.0003
     52 C         -64.5570  -40.6633  -25.1651 C.ar    1  UNL1       -0.0000
     53 C         -64.1924  -41.1082  -23.8933 C.ar    1  UNL1       -0.0003
     54 C         -63.2212  -42.1037  -23.7478 C.ar    1  UNL1       -0.0022
     55 C         -61.2486  -45.0578  -26.9415 C.2     1  UNL1        0.4023
     56 O         -62.1215  -45.8921  -26.5740 O.2     1  UNL1       -0.2264
     57 N         -60.9219  -43.9389  -26.1092 N.am    1  UNL1       -0.2606
     58 H         -60.1477  -43.3080  -26.4191 H       1  UNL1        0.1535
     59 C         -59.7518  -46.3324  -28.4426 C.3     1  UNL1        0.2573
     60 O         -60.5881  -45.2163  -28.1628 O.3     1  UNL1       -0.4306
@<TRIPOS>BOND
     1    59    60    1
     2    60    55    1
     3    55    56    2
     4    55    57   am
     5    57    48    1
     6    48    41    1
     7    41    42    2
     8    41    43   am
     9    43    44    1
    10    44    45    1
    11    45    46    1
    12    46    47    1
    13    47    37    1
    14    37    38    2
    15    37    39   am
    16    39     1    1
    17     1     2   ar
    18     2     3   ar
    19     3     4   ar
    20     4     7    1
    21     7     8   ar
    22     8     9   ar
    23     9    10   ar
    24    10    13    1
    25    13    14   am
    26    14    15    2
    27    14    17    1
    28    17    18    1
    29    18    19    1
    30    19    20    1
    31    20    21    1
    32    21    22   am
    33    22    23    2
    34    22    24    1
    35    24    31    1
    36    31    32   am
    37    32    33    2
    38    32    35    1
    39    35    36    1
    40    24    25    1
    41    25    26   ar
    42    26    27   ar
    43    27    28   ar
    44    28    29   ar
    45    29    30   ar
    46    10    11   ar
    47    11    12   ar
    48     4     5   ar
    49     5     6   ar
    50    48    49    1
    51    49    50   ar
    52    50    51   ar
    53    51    52   ar
    54    52    53   ar
    55    53    54   ar
    56    47    43    1
    57     6     1   ar
    58    54    49   ar
    59    12     7   ar
    60    21    17    1
    61    30    25   ar
    62    57    58    1
    63    39    40    1
    64    13    16    1
    65    31    34    1
@<TRIPOS>MOLECULE
*****
 60 65 0 0 0
SMALL
GASTEIGER

@<TRIPOS>ATOM
      1 C         -61.3342  -43.4406  -28.1251 C.ar    1  UNL1        0.0503
      2 C         -62.2065  -44.3409  -27.4952 C.ar    1  UNL1        0.0147
      3 C         -62.4485  -44.2585  -26.1220 C.ar    1  UNL1        0.0013
      4 C         -61.8173  -43.2730  -25.3454 C.ar    1  UNL1        0.0001
      5 C         -60.9440  -42.3701  -25.9726 C.ar    1  UNL1        0.0013
      6 C         -60.6967  -42.4576  -27.3451 C.ar    1  UNL1        0.0147
      7 C         -62.0668  -43.1892  -23.8857 C.ar    1  UNL1        0.0001
      8 C         -62.9372  -42.2160  -23.3672 C.ar    1  UNL1        0.0013
      9 C         -63.2074  -42.1625  -21.9977 C.ar    1  UNL1        0.0147
     10 C         -62.5968  -43.0720  -21.1145 C.ar    1  UNL1        0.0503
     11 C         -61.7221  -44.0379  -21.6323 C.ar    1  UNL1        0.0147
     12 C         -61.4574  -44.0965  -23.0030 C.ar    1  UNL1        0.0013
     13 N         -62.9166  -43.0945  -19.7121 N.am    1  UNL1       -0.2826
     14 C         -62.6890  -41.9912  -18.8244 C.2     1  UNL1        0.2442
     15 O         -61.5983  -41.3608  -18.8660 O.2     1  UNL1       -0.2730
     16 H         -63.4480  -43.9139  -19.3407 H       1  UNL1        0.1549
     17 C         -63.7331  -41.6021  -17.8116 C.3     1  UNL1        0.1521
     18 C         -64.5259  -42.8137  -17.3191 C.3     1  UNL1        0.0310
     19 C         -65.8882  -42.7370  -18.0046 C.3     1  UNL1        0.0237
     20 C         -66.0408  -41.3015  -18.4926 C.3     1  UNL1        0.0939
     21 N         -64.7137  -40.7104  -18.4162 N.am    1  UNL1       -0.2714
     22 C         -64.3878  -39.3793  -18.8650 C.2     1  UNL1        0.2482
     23 O         -63.2603  -38.8893  -18.5798 O.2     1  UNL1       -0.2727
     24 C         -65.3789  -38.5448  -19.6441 C.3     1  UNL1        0.1743
     25 C         -65.2095  -37.0762  -19.3144 C.ar    1  UNL1        0.0044
     26 C         -66.2225  -36.1468  -19.6196 C.ar    1  UNL1       -0.0022
     27 C         -66.0571  -34.7935  -19.3104 C.ar    1  UNL1       -0.0003
     28 C         -64.8843  -34.3544  -18.6918 C.ar    1  UNL1       -0.0000
     29 C         -63.8753  -35.2683  -18.3789 C.ar    1  UNL1       -0.0003
     30 C         -64.0358  -36.6230  -18.6851 C.ar    1  UNL1       -0.0022
     31 N         -65.2242  -38.7676  -21.0870 N.am    1  UNL1       -0.2606
     32 C         -66.1373  -39.5775  -21.8380 C.2     1  UNL1        0.4023
     33 O         -67.1395  -40.0974  -21.2745 O.2     1  UNL1       -0.2264
     34 H         -64.3876  -38.3895  -21.5867 H       1  UNL1        0.1535
     35 O         -65.9080  -39.7816  -23.2016 O.3     1  UNL1       -0.4306
     36 C         -66.6370  -40.7326  -23.9685 C.3     1  UNL1        0.2573
     37 C         -60.3111  -44.6906  -30.1107 C.2     1  UNL1        0.2442
     38 O         -59.5407  -45.3896  -29.3995 O.2     1  UNL1       -0.2730
     39 N         -61.0579  -43.6062  -29.5300 N.am    1  UNL1       -0.2826
     40 H         -61.4078  -42.8634  -30.1758 H       1  UNL1        0.1549
     41 C         -62.3102  -43.4695  -32.3793 C.2     1  UNL1        0.2482
     42 O         -62.6990  -42.5947  -33.2023 O.2     1  UNL1       -0.2727
     43 N         -60.9087  -43.8054  -32.3240 N.am    1  UNL1       -0.2714
     44 C         -59.9241  -43.1115  -33.1402 C.3     1  UNL1        0.0939
     45 C         -58.5812  -43.7415  -32.8003 C.3     1  UNL1        0.0237
     46 C         -58.9096  -45.0784  -32.1455 C.3     1  UNL1        0.0310
     47 C         -60.3321  -44.9347  -31.5998 C.3     1  UNL1        0.1521
     48 C         -63.3313  -44.0960  -31.4514 C.3     1  UNL1        0.1743
     49 C         -63.9449  -43.1073  -30.4720 C.ar    1  UNL1        0.0044
     50 C         -63.5690  -41.7541  -30.5609 C.ar    1  UNL1       -0.0022
     51 C         -64.0636  -40.8152  -29.6507 C.ar    1  UNL1       -0.0003
     52 C         -64.9393  -41.2139  -28.6394 C.ar    1  UNL1       -0.0000
     53 C         -65.3103  -42.5549  -28.5274 C.ar    1  UNL1       -0.0003
     54 C         -64.8085  -43.5011  -29.4265 C.ar    1  UNL1       -0.0022
     55 C         -65.0368  -45.9385  -31.8308 C.2     1  UNL1        0.4023
     56 O         -64.7342  -46.4803  -30.7317 O.2     1  UNL1       -0.2264
     57 N         -64.3944  -44.7256  -32.2404 N.am    1  UNL1       -0.2606
     58 H         -64.6255  -44.3449  -33.1864 H       1  UNL1        0.1535
     59 C         -66.1966  -47.9222  -32.7462 C.3     1  UNL1        0.2573
     60 O         -65.9996  -46.5159  -32.6629 O.3     1  UNL1       -0.4306
@<TRIPOS>BOND
     1    59    60    1
     2    60    55    1
     3    55    56    2
     4    55    57   am
     5    57    48    1
     6    48    41    1
     7    41    42    2
     8    41    43   am
     9    43    44    1
    10    44    45    1
    11    45    46    1
    12    46    47    1
    13    47    37    1
    14    37    38    2
    15    37    39   am
    16    39     1    1
    17     1     2   ar
    18     2     3   ar
    19     3     4   ar
    20     4     7    1
    21     7     8   ar
    22     8     9   ar
    23     9    10   ar
    24    10    13    1
    25    13    14   am
    26    14    15    2
    27    14    17    1
    28    17    18    1
    29    18    19    1
    30    19    20    1
    31    20    21    1
    32    21    22   am
    33    22    23    2
    34    22    24    1
    35    24    31    1
    36    31    32   am
    37    32    33    2
    38    32    35    1
    39    35    36    1
    40    24    25    1
    41    25    26   ar
    42    26    27   ar
    43    27    28   ar
    44    28    29   ar
    45    29    30   ar
    46    10    11   ar
    47    11    12   ar
    48     4     5   ar
    49     5     6   ar
    50    48    49    1
    51    49    50   ar
    52    50    51   ar
    53    51    52   ar
    54    52    53   ar
    55    53    54   ar
    56    47    43    1
    57     6     1   ar
    58    54    49   ar
    59    12     7   ar
    60    21    17    1
    61    30    25   ar
    62    57    58    1
    63    39    40    1
    64    13    16    1
    65    31    34    1
@<TRIPOS>MOLECULE
*****
 60 65 0 0 0
SMALL
GASTEIGER

@<TRIPOS>ATOM
      1 C         -64.3752  -53.6207  -23.1751 C.ar    1  UNL1        0.0503
      2 C         -64.8320  -52.6904  -24.1207 C.ar    1  UNL1        0.0147
      3 C         -64.1280  -51.5073  -24.3565 C.ar    1  UNL1        0.0013
      4 C         -62.9499  -51.2258  -23.6455 C.ar    1  UNL1        0.0001
      5 C         -62.4896  -52.1547  -22.6986 C.ar    1  UNL1        0.0013
      6 C         -63.1983  -53.3348  -22.4580 C.ar    1  UNL1        0.0147
      7 C         -62.2054  -49.9662  -23.8886 C.ar    1  UNL1        0.0001
      8 C         -62.7559  -48.9592  -24.6989 C.ar    1  UNL1        0.0013
      9 C         -62.0762  -47.7546  -24.8944 C.ar    1  UNL1        0.0147
     10 C         -60.8205  -47.5393  -24.2969 C.ar    1  UNL1        0.0503
     11 C         -60.2685  -48.5483  -23.4948 C.ar    1  UNL1        0.0147
     12 C         -60.9514  -49.7504  -23.2928 C.ar    1  UNL1        0.0013
     13 N         -60.1340  -46.2805  -24.4128 N.am    1  UNL1       -0.2826
     14 C         -60.4235  -45.3043  -25.4228 C.2     1  UNL1        0.2442
     15 O         -60.5833  -45.6622  -26.6208 O.2     1  UNL1       -0.2730
     16 H         -59.4678  -46.0106  -23.6544 H       1  UNL1        0.1549
     17 C         -60.5006  -43.8429  -25.0682 C.3     1  UNL1        0.1521
     18 C         -60.8076  -43.6341  -23.5845 C.3     1  UNL1        0.0310
     19 C         -62.2730  -43.2110  -23.5094 C.3     1  UNL1        0.0237
     20 C         -62.6534  -42.7388  -24.9073 C.3     1  UNL1        0.0939
     21 N         -61.5951  -43.2066  -25.7890 N.am    1  UNL1       -0.2714
     22 C         -61.5995  -43.0485  -27.2223 C.2     1  UNL1        0.2482
     23 O         -60.5530  -43.3118  -27.8767 O.2     1  UNL1       -0.2727
     24 C         -62.8212  -42.5444  -27.9565 C.3     1  UNL1        0.1743
     25 C         -63.4352  -43.6528  -28.7864 C.ar    1  UNL1        0.0044
     26 C         -63.6572  -43.4824  -30.1666 C.ar    1  UNL1       -0.0022
     27 C         -64.2235  -44.5118  -30.9242 C.ar    1  UNL1       -0.0003
     28 C         -64.5702  -45.7203  -30.3158 C.ar    1  UNL1       -0.0000
     29 C         -64.3490  -45.9029  -28.9487 C.ar    1  UNL1       -0.0003
     30 C         -63.7821  -44.8770  -28.1864 C.ar    1  UNL1       -0.0022
     31 N         -63.8077  -42.0037  -27.0130 N.am    1  UNL1       -0.2606
     32 C         -64.8612  -41.1254  -27.4279 C.2     1  UNL1        0.4023
     33 O         -64.9940  -40.8203  -28.6452 O.2     1  UNL1       -0.2264
     34 H         -63.7126  -42.1978  -25.9904 H       1  UNL1        0.1535
     35 O         -65.7420  -40.6142  -26.4708 O.3     1  UNL1       -0.4306
     36 C         -65.3154  -40.2019  -25.1777 C.3     1  UNL1        0.2573
     37 C         -66.5704  -54.7950  -22.5802 C.2     1  UNL1        0.2442
     38 O         -67.1259  -53.7500  -22.1474 O.2     1  UNL1       -0.2730
     39 N         -65.1701  -54.7938  -22.9121 N.am    1  UNL1       -0.2826
     40 H         -64.6821  -55.7170  -22.9404 H       1  UNL1        0.1549
     41 C         -69.7492  -55.2571  -22.0179 C.2     1  UNL1        0.2482
     42 O         -70.9704  -55.2780  -22.3369 O.2     1  UNL1       -0.2727
     43 N         -68.7785  -55.8171  -22.9258 N.am    1  UNL1       -0.2714
     44 C         -69.1629  -56.3390  -24.2285 C.3     1  UNL1        0.0939
     45 C         -67.8772  -56.8304  -24.8775 C.3     1  UNL1        0.0237
     46 C         -66.8778  -56.9907  -23.7375 C.3     1  UNL1        0.0310
     47 C         -67.3738  -56.0719  -22.6187 C.3     1  UNL1        0.1521
     48 C         -69.3528  -54.6003  -20.7112 C.3     1  UNL1        0.1743
     49 C         -70.5253  -54.3702  -19.7702 C.ar    1  UNL1        0.0044
     50 C         -71.1156  -55.4862  -19.1488 C.ar    1  UNL1       -0.0022
     51 C         -72.2290  -55.3335  -18.3170 C.ar    1  UNL1       -0.0003
     52 C         -72.7685  -54.0654  -18.0946 C.ar    1  UNL1       -0.0000
     53 C         -72.2048  -52.9496  -18.7155 C.ar    1  UNL1       -0.0003
     54 C         -71.0994  -53.0974  -19.5592 C.ar    1  UNL1       -0.0022
     55 C         -67.5695  -54.9239  -18.9329 C.2     1  UNL1        0.4023
     56 O         -67.7863  -53.7702  -18.4689 O.2     1  UNL1       -0.2264
     57 N         -68.3380  -55.4155  -20.0370 N.am    1  UNL1       -0.2606
     58 H         -68.0833  -56.3490  -20.4333 H       1  UNL1        0.1535
     59 C         -66.2985  -55.7604  -16.9827 C.3     1  UNL1        0.2573
     60 O         -66.5758  -55.7346  -18.3777 O.3     1  UNL1       -0.4306
@<TRIPOS>BOND
     1    59    60    1
     2    60    55    1
     3    55    56    2
     4    55    57   am
     5    57    48    1
     6    48    41    1
     7    41    42    2
     8    41    43   am
     9    43    44    1
    10    44    45    1
    11    45    46    1
    12    46    47    1
    13    47    37    1
    14    37    38    2
    15    37    39   am
    16    39     1    1
    17     1     2   ar
    18     2     3   ar
    19     3     4   ar
    20     4     7    1
    21     7     8   ar
    22     8     9   ar
    23     9    10   ar
    24    10    13    1
    25    13    14   am
    26    14    15    2
    27    14    17    1
    28    17    18    1
    29    18    19    1
    30    19    20    1
    31    20    21    1
    32    21    22   am
    33    22    23    2
    34    22    24    1
    35    24    31    1
    36    31    32   am
    37    32    33    2
    38    32    35    1
    39    35    36    1
    40    24    25    1
    41    25    26   ar
    42    26    27   ar
    43    27    28   ar
    44    28    29   ar
    45    29    30   ar
    46    10    11   ar
    47    11    12   ar
    48     4     5   ar
    49     5     6   ar
    50    48    49    1
    51    49    50   ar
    52    50    51   ar
    53    51    52   ar
    54    52    53   ar
    55    53    54   ar
    56    47    43    1
    57     6     1   ar
    58    54    49   ar
    59    12     7   ar
    60    21    17    1
    61    30    25   ar
    62    57    58    1
    63    39    40    1
    64    13    16    1
    65    31    34    1
