@<TRIPOS>MOLECULE
*****
 35 40 0 0 0
SMALL
GASTEIGER

@<TRIPOS>ATOM
      1 C          62.5155   87.5277   12.0719 C.ar    1  UNL1        0.1534
      2 N          62.9268   87.2567   13.3359 N.ar    1  UNL1       -0.1329
      3 N          63.8243   88.0149   13.9626 N.ar    1  UNL1       -0.1468
      4 C          64.3855   89.1055   13.3780 C.ar    1  UNL1        0.1029
      5 C          63.9907   89.4611   12.0671 C.ar    1  UNL1        0.0221
      6 C          64.4793   90.6150   11.4182 C.ar    1  UNL1        0.0016
      7 C          64.0805   90.9175   10.1151 C.ar    1  UNL1        0.0001
      8 C          63.1873   90.0849    9.4431 C.ar    1  UNL1        0.0001
      9 C          62.6705   88.9542   10.0762 C.ar    1  UNL1        0.0029
     10 C          63.0489   88.6410   11.3963 C.ar    1  UNL1        0.0349
     11 C          62.4801   86.5324    9.1788 C.3     1  UNL1        0.0233
     12 C          61.9270   85.7525   10.3771 C.3     1  UNL1        0.0941
     13 C          60.7357   84.8771    9.9396 C.3     1  UNL1        0.1134
     14 N          59.9960   84.3931   11.1158 N.am    1  UNL1       -0.2726
     15 C          59.6307   83.0050   11.2416 C.2     1  UNL1        0.2491
     16 O          59.6548   82.4614   12.3796 O.2     1  UNL1       -0.2699
     17 C          59.6354   85.3221   12.1978 C.3     1  UNL1        0.1152
     18 C          60.1475   86.7375   11.9187 C.3     1  UNL1        0.1137
     19 N          61.5376   86.6724   11.4620 N.pl3   1  UNL1       -0.2900
     20 C          59.2181   82.1984   10.0699 C.ar    1  UNL1        0.0536
     21 C          57.9583   82.4033    9.4807 C.ar    1  UNL1        0.0049
     22 C          57.5674   81.6520    8.3681 C.ar    1  UNL1        0.0059
     23 C          58.4336   80.6979    7.8265 C.ar    1  UNL1        0.0301
     24 I          57.8422   79.5670    6.1475 I       1  UNL1       -0.0425
     25 C          59.6951   80.4994    8.3948 C.ar    1  UNL1        0.0059
     26 C          60.0892   81.2485    9.5076 C.ar    1  UNL1        0.0049
     27 C          65.4003   89.8549   14.1481 C.ar    1  UNL1        0.0194
     28 C          65.0339   90.6088   15.2724 C.ar    1  UNL1        0.0012
     29 C          65.9933   91.3423   15.9763 C.ar    1  UNL1       -0.0042
     30 C          67.3415   91.3474   15.5566 C.ar    1  UNL1       -0.0225
     31 C          67.6927   90.6074   14.4158 C.ar    1  UNL1       -0.0042
     32 C          66.7317   89.8749   13.7137 C.ar    1  UNL1        0.0012
     33 C          68.4439   92.1162   16.2657 C.3     1  UNL1        0.0224
     34 C          68.9310   93.4017   15.6106 C.3     1  UNL1        0.0047
     35 C          69.8095   92.1566   15.5933 C.3     1  UNL1        0.0047
@<TRIPOS>BOND
     1    11    12    1
     2    12    13    1
     3    13    14    1
     4    14    15   am
     5    15    16    2
     6    15    20    1
     7    20    21   ar
     8    21    22   ar
     9    22    23   ar
    10    23    24    1
    11    23    25   ar
    12    25    26   ar
    13    14    17    1
    14    17    18    1
    15    18    19    1
    16    19     1    1
    17     1     2   ar
    18     2     3   ar
    19     3     4   ar
    20     4    27    1
    21    27    28   ar
    22    28    29   ar
    23    29    30   ar
    24    30    33    1
    25    33    34    1
    26    34    35    1
    27    30    31   ar
    28    31    32   ar
    29     4     5   ar
    30     5     6   ar
    31     6     7   ar
    32     7     8   ar
    33     8     9   ar
    34     9    10   ar
    35    19    12    1
    36    10     1   ar
    37    26    20   ar
    38    32    27   ar
    39    10     5   ar
    40    35    33    1
@<TRIPOS>MOLECULE
*****
 35 40 0 0 0
SMALL
GASTEIGER

@<TRIPOS>ATOM
      1 C          62.1955   87.3226   11.9068 C.ar    1  UNL1        0.1534
      2 N          62.9230   88.1968   11.1674 N.ar    1  UNL1       -0.1329
      3 N          63.8385   88.9928   11.7165 N.ar    1  UNL1       -0.1468
      4 C          64.1019   88.9817   13.0493 C.ar    1  UNL1        0.1029
      5 C          63.3954   88.0819   13.8812 C.ar    1  UNL1        0.0221
      6 C          63.6582   87.9658   15.2627 C.ar    1  UNL1        0.0016
      7 C          62.9220   87.0804   16.0520 C.ar    1  UNL1        0.0001
      8 C          61.9230   86.2946   15.4804 C.ar    1  UNL1        0.0001
      9 C          61.6658   86.3734   14.1114 C.ar    1  UNL1        0.0029
     10 C          62.4085   87.2493   13.2960 C.ar    1  UNL1        0.0349
     11 C          62.3250   86.2679    9.0375 C.3     1  UNL1        0.0233
     12 C          61.6628   85.5330   10.2087 C.3     1  UNL1        0.0941
     13 C          60.4742   84.6899    9.7056 C.3     1  UNL1        0.1134
     14 N          59.6381   84.2566   10.8361 N.am    1  UNL1       -0.2726
     15 C          59.2157   82.8847   10.9621 C.2     1  UNL1        0.2491
     16 O          59.1416   82.3650   12.1091 O.2     1  UNL1       -0.2699
     17 C          59.2369   85.2201   11.8726 C.3     1  UNL1        0.1152
     18 C          59.8172   86.6109   11.6034 C.3     1  UNL1        0.1137
     19 N          61.2323   86.4885   11.2462 N.pl3   1  UNL1       -0.2900
     20 C          58.8567   82.0680    9.7798 C.ar    1  UNL1        0.0536
     21 C          57.6623   82.3222    9.0832 C.ar    1  UNL1        0.0049
     22 C          57.3230   81.5612    7.9603 C.ar    1  UNL1        0.0059
     23 C          58.1770   80.5479    7.5156 C.ar    1  UNL1        0.0301
     24 I          57.6638   79.4025    5.8208 I       1  UNL1       -0.0425
     25 C          59.3751   80.2995    8.1914 C.ar    1  UNL1        0.0059
     26 C          59.7174   81.0581    9.3148 C.ar    1  UNL1        0.0049
     27 C          65.1103   89.9337   13.5606 C.ar    1  UNL1        0.0194
     28 C          66.1109   90.4390   12.7179 C.ar    1  UNL1        0.0012
     29 C          67.0815   91.3127   13.2160 C.ar    1  UNL1       -0.0042
     30 C          67.0781   91.6868   14.5776 C.ar    1  UNL1       -0.0225
     31 C          66.0851   91.1564   15.4174 C.ar    1  UNL1       -0.0042
     32 C          65.1158   90.2830   14.9170 C.ar    1  UNL1        0.0012
     33 C          68.0953   92.6307   15.1968 C.3     1  UNL1        0.0224
     34 C          69.5532   92.1912   15.1849 C.3     1  UNL1        0.0047
     35 C          68.7651   92.1838   16.4891 C.3     1  UNL1        0.0047
@<TRIPOS>BOND
     1    11    12    1
     2    12    13    1
     3    13    14    1
     4    14    15   am
     5    15    16    2
     6    15    20    1
     7    20    21   ar
     8    21    22   ar
     9    22    23   ar
    10    23    24    1
    11    23    25   ar
    12    25    26   ar
    13    14    17    1
    14    17    18    1
    15    18    19    1
    16    19     1    1
    17     1     2   ar
    18     2     3   ar
    19     3     4   ar
    20     4    27    1
    21    27    28   ar
    22    28    29   ar
    23    29    30   ar
    24    30    33    1
    25    33    34    1
    26    34    35    1
    27    30    31   ar
    28    31    32   ar
    29     4     5   ar
    30     5     6   ar
    31     6     7   ar
    32     7     8   ar
    33     8     9   ar
    34     9    10   ar
    35    19    12    1
    36    10     1   ar
    37    26    20   ar
    38    32    27   ar
    39    10     5   ar
    40    35    33    1
@<TRIPOS>MOLECULE
*****
 35 40 0 0 0
SMALL
GASTEIGER

@<TRIPOS>ATOM
      1 C          62.7526   87.1773   12.6384 C.ar    1  UNL1        0.1534
      2 N          63.2087   87.0602   13.9106 N.ar    1  UNL1       -0.1329
      3 N          64.0544   87.9423   14.4399 N.ar    1  UNL1       -0.1468
      4 C          64.5147   89.0130   13.7417 C.ar    1  UNL1        0.1029
      5 C          64.0674   89.2109   12.4145 C.ar    1  UNL1        0.0221
      6 C          64.4491   90.3328   11.6484 C.ar    1  UNL1        0.0016
      7 C          64.0022   90.4784   10.3339 C.ar    1  UNL1        0.0001
      8 C          63.1660   89.5187    9.7663 C.ar    1  UNL1        0.0001
      9 C          62.7540   88.4161   10.5154 C.ar    1  UNL1        0.0029
     10 C          63.1818   88.2599   11.8482 C.ar    1  UNL1        0.0349
     11 C          63.4335   84.3969   11.5576 C.3     1  UNL1        0.0233
     12 C          62.1315   84.7571   12.2826 C.3     1  UNL1        0.0941
     13 C          60.9690   83.8956   11.7504 C.3     1  UNL1        0.1134
     14 N          59.6781   84.4517   12.1851 N.am    1  UNL1       -0.2726
     15 C          58.6656   83.6071   12.7663 C.2     1  UNL1        0.2491
     16 O          57.9475   84.0583   13.7001 O.2     1  UNL1       -0.2699
     17 C          59.4093   85.8917   12.0514 C.3     1  UNL1        0.1152
     18 C          60.6112   86.6367   11.4649 C.3     1  UNL1        0.1137
     19 N          61.8350   86.1943   12.1369 N.pl3   1  UNL1       -0.2900
     20 C          58.4379   82.2231   12.2907 C.ar    1  UNL1        0.0536
     21 C          58.0989   81.9856   10.9472 C.ar    1  UNL1        0.0049
     22 C          57.8927   80.6803   10.4901 C.ar    1  UNL1        0.0059
     23 C          58.0339   79.5999   11.3657 C.ar    1  UNL1        0.0301
     24 I          57.7240   77.6321   10.6734 I       1  UNL1       -0.0425
     25 C          58.3880   79.8250   12.6990 C.ar    1  UNL1        0.0059
     26 C          58.5944   81.1288   13.1598 C.ar    1  UNL1        0.0049
     27 C          65.4807   89.9090   14.4115 C.ar    1  UNL1        0.0194
     28 C          65.0798   90.7254   15.4790 C.ar    1  UNL1        0.0012
     29 C          65.9902   91.5951   16.0859 C.ar    1  UNL1       -0.0042
     30 C          67.3219   91.6759   15.6232 C.ar    1  UNL1       -0.0225
     31 C          67.7061   90.8706   14.5385 C.ar    1  UNL1       -0.0042
     32 C          66.7940   90.0019   13.9334 C.ar    1  UNL1        0.0012
     33 C          68.3719   92.5931   16.2276 C.3     1  UNL1        0.0224
     34 C          69.1062   93.5329   15.2808 C.3     1  UNL1        0.0047
     35 C          69.8258   92.3232   15.8646 C.3     1  UNL1        0.0047
@<TRIPOS>BOND
     1    11    12    1
     2    12    13    1
     3    13    14    1
     4    14    15   am
     5    15    16    2
     6    15    20    1
     7    20    21   ar
     8    21    22   ar
     9    22    23   ar
    10    23    24    1
    11    23    25   ar
    12    25    26   ar
    13    14    17    1
    14    17    18    1
    15    18    19    1
    16    19     1    1
    17     1     2   ar
    18     2     3   ar
    19     3     4   ar
    20     4    27    1
    21    27    28   ar
    22    28    29   ar
    23    29    30   ar
    24    30    33    1
    25    33    34    1
    26    34    35    1
    27    30    31   ar
    28    31    32   ar
    29     4     5   ar
    30     5     6   ar
    31     6     7   ar
    32     7     8   ar
    33     8     9   ar
    34     9    10   ar
    35    19    12    1
    36    10     1   ar
    37    26    20   ar
    38    32    27   ar
    39    10     5   ar
    40    35    33    1
@<TRIPOS>MOLECULE
*****
 35 40 0 0 0
SMALL
GASTEIGER

@<TRIPOS>ATOM
      1 C          62.1597   86.5953   12.5141 C.ar    1  UNL1        0.1534
      2 N          61.8178   85.7140   13.4870 N.ar    1  UNL1       -0.1329
      3 N          61.1894   84.5721   13.2142 N.ar    1  UNL1       -0.1468
      4 C          60.8501   84.2171   11.9474 C.ar    1  UNL1        0.1029
      5 C          61.1916   85.0782   10.8784 C.ar    1  UNL1        0.0221
      6 C          60.9313   84.7492    9.5311 C.ar    1  UNL1        0.0016
      7 C          61.2649   85.6379    8.5076 C.ar    1  UNL1        0.0001
      8 C          61.8671   86.8588    8.8065 C.ar    1  UNL1        0.0001
      9 C          62.1587   87.1918   10.1296 C.ar    1  UNL1        0.0029
     10 C          61.8439   86.3014   11.1745 C.ar    1  UNL1        0.0349
     11 C          63.5172   87.2101   15.1865 C.3     1  UNL1        0.0233
     12 C          63.9723   87.7591   13.8293 C.3     1  UNL1        0.0941
     13 C          64.6028   89.1552   14.0033 C.3     1  UNL1        0.1134
     14 N          64.7332   89.8248   12.6997 N.am    1  UNL1       -0.2726
     15 C          65.9682   90.4581   12.3123 C.2     1  UNL1        0.2491
     16 O          66.3370   90.4053   11.1072 O.2     1  UNL1       -0.2699
     17 C          63.6034   89.8386   11.7577 C.3     1  UNL1        0.1152
     18 C          62.3975   89.0769   12.3138 C.3     1  UNL1        0.1137
     19 N          62.8443   87.8024   12.8805 N.pl3   1  UNL1       -0.2900
     20 C          66.8149   91.1788   13.2907 C.ar    1  UNL1        0.0536
     21 C          66.3912   92.4114   13.8174 C.ar    1  UNL1        0.0049
     22 C          67.1815   93.0915   14.7491 C.ar    1  UNL1        0.0059
     23 C          68.3956   92.5430   15.1722 C.ar    1  UNL1        0.0301
     24 I          69.5850   93.5699   16.5788 I       1  UNL1       -0.0425
     25 C          68.8167   91.3095   14.6675 C.ar    1  UNL1        0.0059
     26 C          68.0294   90.6269   13.7353 C.ar    1  UNL1        0.0049
     27 C          60.1198   82.9458   11.7600 C.ar    1  UNL1        0.0194
     28 C          58.7222   82.8999   11.8657 C.ar    1  UNL1        0.0012
     29 C          58.0406   81.6882   11.7208 C.ar    1  UNL1       -0.0042
     30 C          58.7501   80.4910   11.4817 C.ar    1  UNL1       -0.0225
     31 C          60.1511   80.5451   11.4008 C.ar    1  UNL1       -0.0042
     32 C          60.8303   81.7578   11.5461 C.ar    1  UNL1        0.0012
     33 C          58.0856   79.1350   11.3116 C.3     1  UNL1        0.0224
     34 C          58.3691   78.0806   12.3730 C.3     1  UNL1        0.0047
     35 C          58.9876   77.9522   10.9863 C.3     1  UNL1        0.0047
@<TRIPOS>BOND
     1    11    12    1
     2    12    13    1
     3    13    14    1
     4    14    15   am
     5    15    16    2
     6    15    20    1
     7    20    21   ar
     8    21    22   ar
     9    22    23   ar
    10    23    24    1
    11    23    25   ar
    12    25    26   ar
    13    14    17    1
    14    17    18    1
    15    18    19    1
    16    19     1    1
    17     1     2   ar
    18     2     3   ar
    19     3     4   ar
    20     4    27    1
    21    27    28   ar
    22    28    29   ar
    23    29    30   ar
    24    30    33    1
    25    33    34    1
    26    34    35    1
    27    30    31   ar
    28    31    32   ar
    29     4     5   ar
    30     5     6   ar
    31     6     7   ar
    32     7     8   ar
    33     8     9   ar
    34     9    10   ar
    35    19    12    1
    36    10     1   ar
    37    26    20   ar
    38    32    27   ar
    39    10     5   ar
    40    35    33    1
@<TRIPOS>MOLECULE
*****
 35 40 0 0 0
SMALL
GASTEIGER

@<TRIPOS>ATOM
      1 C          62.0796   86.1451   13.0383 C.ar    1  UNL1        0.1534
      2 N          62.7939   85.1553   12.4464 N.ar    1  UNL1       -0.1329
      3 N          62.2508   83.9769   12.1469 N.ar    1  UNL1       -0.1468
      4 C          60.9502   83.6900   12.4150 C.ar    1  UNL1        0.1029
      5 C          60.1381   84.6809   13.0145 C.ar    1  UNL1        0.0221
      6 C          58.7636   84.4813   13.2641 C.ar    1  UNL1        0.0016
      7 C          58.0030   85.4779   13.8782 C.ar    1  UNL1        0.0001
      8 C          58.5934   86.6861   14.2445 C.ar    1  UNL1        0.0001
      9 C          59.9443   86.9148   13.9815 C.ar    1  UNL1        0.0029
     10 C          60.7243   85.9275   13.3487 C.ar    1  UNL1        0.0349
     11 C          63.5513   86.9171   15.6075 C.3     1  UNL1        0.0233
     12 C          63.9067   87.4343   14.2087 C.3     1  UNL1        0.0941
     13 C          64.4820   88.8618   14.2984 C.3     1  UNL1        0.1134
     14 N          64.5110   89.4874   12.9671 N.am    1  UNL1       -0.2726
     15 C          65.6933   90.1584   12.4893 C.2     1  UNL1        0.2491
     16 O          65.9980   90.0767   11.2680 O.2     1  UNL1       -0.2699
     17 C          63.3322   89.4172   12.0899 C.3     1  UNL1        0.1152
     18 C          62.1939   88.6255   12.7388 C.3     1  UNL1        0.1137
     19 N          62.7279   87.3934   13.3236 N.pl3   1  UNL1       -0.2900
     20 C          66.5586   90.9509   13.3932 C.ar    1  UNL1        0.0536
     21 C          67.7926   90.4322   13.8226 C.ar    1  UNL1        0.0049
     22 C          68.6183   91.1800   14.6677 C.ar    1  UNL1        0.0059
     23 C          68.2260   92.4558   15.0827 C.ar    1  UNL1        0.0301
     24 I          69.4740   93.5823   16.3561 I       1  UNL1       -0.0425
     25 C          67.0089   92.9870   14.6467 C.ar    1  UNL1        0.0059
     26 C          66.1804   92.2420   13.8021 C.ar    1  UNL1        0.0049
     27 C          60.4588   82.3376   12.0768 C.ar    1  UNL1        0.0194
     28 C          60.6283   81.2696   12.9697 C.ar    1  UNL1        0.0012
     29 C          60.1915   79.9862   12.6294 C.ar    1  UNL1       -0.0042
     30 C          59.5878   79.7433   11.3762 C.ar    1  UNL1       -0.0225
     31 C          59.4443   80.8157   10.4807 C.ar    1  UNL1       -0.0042
     32 C          59.8818   82.0980   10.8232 C.ar    1  UNL1        0.0012
     33 C          59.0857   78.3801   10.9305 C.3     1  UNL1        0.0224
     34 C          57.5969   78.2450   10.6406 C.3     1  UNL1        0.0047
     35 C          58.1893   77.6172   11.8964 C.3     1  UNL1        0.0047
@<TRIPOS>BOND
     1    11    12    1
     2    12    13    1
     3    13    14    1
     4    14    15   am
     5    15    16    2
     6    15    20    1
     7    20    21   ar
     8    21    22   ar
     9    22    23   ar
    10    23    24    1
    11    23    25   ar
    12    25    26   ar
    13    14    17    1
    14    17    18    1
    15    18    19    1
    16    19     1    1
    17     1     2   ar
    18     2     3   ar
    19     3     4   ar
    20     4    27    1
    21    27    28   ar
    22    28    29   ar
    23    29    30   ar
    24    30    33    1
    25    33    34    1
    26    34    35    1
    27    30    31   ar
    28    31    32   ar
    29     4     5   ar
    30     5     6   ar
    31     6     7   ar
    32     7     8   ar
    33     8     9   ar
    34     9    10   ar
    35    19    12    1
    36    10     1   ar
    37    26    20   ar
    38    32    27   ar
    39    10     5   ar
    40    35    33    1
