@<TRIPOS>MOLECULE
*****
 36 40 0 0 0
SMALL
GASTEIGER

@<TRIPOS>ATOM
      1 N          48.3656   12.7311  -25.5384 N.3     1  UNL1       -0.2679
      2 C          47.1213   11.9385  -25.8050 C.3     1  UNL1        0.0978
      3 C          45.8397   12.5598  -25.1794 C.3     1  UNL1        0.0224
      4 C          45.3414   13.8640  -25.8701 C.3     1  UNL1        0.0065
      5 C          46.0491   14.2007  -27.1973 C.3     1  UNL1        0.0277
      6 C          46.3402   12.9501  -27.9757 C.ar    1  UNL1       -0.0073
      7 C          46.1168   12.8643  -29.3552 C.ar    1  UNL1       -0.0015
      8 C          46.3723   11.6652  -30.0235 C.ar    1  UNL1        0.0203
      9 C          46.8478   10.5663  -29.3033 C.ar    1  UNL1        0.0985
     10 N          47.0737   10.6724  -27.9665 N.ar    1  UNL1       -0.2471
     11 C          46.8489   11.8355  -27.2936 C.ar    1  UNL1        0.0695
     12 C          48.4000   13.3285  -24.1709 C.3     1  UNL1        0.0886
     13 C          48.5971   19.5905  -26.1694 C.ar    1  UNL1       -0.0003
     14 C          49.3973   18.8312  -27.0254 C.ar    1  UNL1       -0.0003
     15 C          49.5247   17.4541  -26.8272 C.ar    1  UNL1       -0.0045
     16 C          48.8574   16.8263  -25.7635 C.ar    1  UNL1       -0.0234
     17 C          48.0263   17.5890  -24.9163 C.ar    1  UNL1       -0.0103
     18 C          47.9179   18.9743  -25.1154 C.ar    1  UNL1       -0.0032
     19 C          47.3423   16.9503  -23.7338 C.3     1  UNL1        0.0953
     20 N          47.1949   15.4978  -23.9036 N.3     1  UNL1       -0.2934
     21 C          48.4935   14.8742  -24.2079 C.3     1  UNL1        0.0748
     22 C          48.9585   15.3323  -25.6028 C.3     1  UNL1        0.0432
     23 H          46.8513   15.1322  -22.9869 H       1  UNL1        0.1236
     24 C          49.5954   11.9163  -25.7784 C.3     1  UNL1        0.0725
     25 C          50.1600   11.3697  -24.4565 C.3     1  UNL1        0.0188
     26 C          50.3165    9.8408  -24.4690 C.3     1  UNL1        0.0185
     27 C          49.8262    9.2022  -23.1528 C.3     1  UNL1        0.0686
     28 N          48.4683    9.6524  -22.8073 N.3     1  UNL1       -0.2985
     29 H          48.2801   10.5562  -23.3023 H       1  UNL1        0.1232
     30 C          48.2700    9.8398  -21.3566 C.3     1  UNL1        0.0568
     31 C          49.5947    9.7095  -20.5582 C.3     1  UNL1        0.0328
     32 C          49.5924   10.5520  -19.2671 C.3     1  UNL1        0.0699
     33 N          48.2397   10.6811  -18.7118 N.3     1  UNL1       -0.2974
     34 C          47.3459   11.4412  -19.6067 C.3     1  UNL1        0.0699
     35 C          47.6285   11.2112  -21.1085 C.3     1  UNL1        0.0328
     36 H          47.8440    9.7224  -18.5637 H       1  UNL1        0.1232
@<TRIPOS>BOND
     1    13    14   ar
     2    14    15   ar
     3    15    16   ar
     4    16    17   ar
     5    17    18   ar
     6    17    19    1
     7    19    20    1
     8    20    21    1
     9    21    12    1
    10    12     1    1
    11     1    24    1
    12    24    25    1
    13    25    26    1
    14    26    27    1
    15    27    28    1
    16    28    30    1
    17    30    31    1
    18    31    32    1
    19    32    33    1
    20    33    34    1
    21    34    35    1
    22     1     2    1
    23     2     3    1
    24     3     4    1
    25     4     5    1
    26     5     6    1
    27     6     7   ar
    28     7     8   ar
    29     8     9   ar
    30     9    10   ar
    31    10    11   ar
    32    21    22    1
    33    18    13   ar
    34    35    30    1
    35    11     2    1
    36    22    16    1
    37    11     6   ar
    38    20    23    1
    39    28    29    1
    40    33    36    1
@<TRIPOS>MOLECULE
*****
 36 40 0 0 0
SMALL
GASTEIGER

@<TRIPOS>ATOM
      1 N          48.0402   12.9044  -23.9675 N.3     1  UNL1       -0.2679
      2 C          49.0878   11.9525  -23.4732 C.3     1  UNL1        0.0978
      3 C          49.7941   11.1575  -24.6085 C.3     1  UNL1        0.0224
      4 C          50.7590   12.0007  -25.4942 C.3     1  UNL1        0.0065
      5 C          51.0425   13.4207  -24.9661 C.3     1  UNL1        0.0277
      6 C          51.1343   13.4212  -23.4674 C.ar    1  UNL1       -0.0073
      7 C          52.1331   14.1253  -22.7841 C.ar    1  UNL1       -0.0015
      8 C          52.1926   14.0628  -21.3904 C.ar    1  UNL1        0.0203
      9 C          51.2523   13.2961  -20.6973 C.ar    1  UNL1        0.0985
     10 N          50.2797   12.6311  -21.3766 N.ar    1  UNL1       -0.2471
     11 C          50.1889   12.6892  -22.7346 C.ar    1  UNL1        0.0695
     12 C          46.9520   12.2325  -24.7373 C.3     1  UNL1        0.0886
     13 C          46.0000   12.3417  -31.2432 C.ar    1  UNL1       -0.0003
     14 C          46.3728   11.0472  -30.8759 C.ar    1  UNL1       -0.0003
     15 C          46.6294   10.7459  -29.5360 C.ar    1  UNL1       -0.0045
     16 C          46.5228   11.7420  -28.5525 C.ar    1  UNL1       -0.0234
     17 C          46.1183   13.0425  -28.9201 C.ar    1  UNL1       -0.0103
     18 C          45.8779   13.3377  -30.2712 C.ar    1  UNL1       -0.0032
     19 C          46.0492   14.1443  -27.8928 C.3     1  UNL1        0.0953
     20 N          45.9007   13.6152  -26.5296 N.3     1  UNL1       -0.2934
     21 C          46.9576   12.6339  -26.2334 C.3     1  UNL1        0.0748
     22 C          46.7441   11.3835  -27.1066 C.3     1  UNL1        0.0432
     23 H          46.0095   14.4328  -25.8879 H       1  UNL1        0.1236
     24 C          47.4617   13.7103  -22.8494 C.3     1  UNL1        0.0725
     25 C          47.7965   15.2020  -23.0159 C.3     1  UNL1        0.0188
     26 C          46.6495   15.9956  -23.6615 C.3     1  UNL1        0.0185
     27 C          47.0279   16.5139  -25.0646 C.3     1  UNL1        0.0686
     28 N          48.1423   15.7451  -25.6416 N.3     1  UNL1       -0.2985
     29 H          48.6040   15.1999  -24.8755 H       1  UNL1        0.1232
     30 C          49.1478   16.5934  -26.3113 C.3     1  UNL1        0.0568
     31 C          48.5038   17.7838  -27.0712 C.3     1  UNL1        0.0328
     32 C          49.4370   19.0082  -27.1523 C.3     1  UNL1        0.0699
     33 N          50.8489   18.6071  -27.1803 N.3     1  UNL1       -0.2974
     34 C          51.2628   17.9559  -25.9225 C.3     1  UNL1        0.0699
     35 C          50.1512   17.1041  -25.2691 C.3     1  UNL1        0.0328
     36 H          50.9937   17.9413  -27.9762 H       1  UNL1        0.1232
@<TRIPOS>BOND
     1    13    14   ar
     2    14    15   ar
     3    15    16   ar
     4    16    17   ar
     5    17    18   ar
     6    17    19    1
     7    19    20    1
     8    20    21    1
     9    21    12    1
    10    12     1    1
    11     1    24    1
    12    24    25    1
    13    25    26    1
    14    26    27    1
    15    27    28    1
    16    28    30    1
    17    30    31    1
    18    31    32    1
    19    32    33    1
    20    33    34    1
    21    34    35    1
    22     1     2    1
    23     2     3    1
    24     3     4    1
    25     4     5    1
    26     5     6    1
    27     6     7   ar
    28     7     8   ar
    29     8     9   ar
    30     9    10   ar
    31    10    11   ar
    32    21    22    1
    33    18    13   ar
    34    35    30    1
    35    11     2    1
    36    22    16    1
    37    11     6   ar
    38    20    23    1
    39    28    29    1
    40    33    36    1
@<TRIPOS>MOLECULE
*****
 36 40 0 0 0
SMALL
GASTEIGER

@<TRIPOS>ATOM
      1 N          48.5215   12.7337  -25.7192 N.3     1  UNL1       -0.2679
      2 C          47.3145   11.8704  -25.9337 C.3     1  UNL1        0.0978
      3 C          46.0239   12.4253  -25.2655 C.3     1  UNL1        0.0224
      4 C          45.4285   13.6931  -25.9469 C.3     1  UNL1        0.0065
      5 C          46.0671   14.0563  -27.3018 C.3     1  UNL1        0.0277
      6 C          46.3991   12.8166  -28.0813 C.ar    1  UNL1       -0.0073
      7 C          46.1305   12.7055  -29.4509 C.ar    1  UNL1       -0.0015
      8 C          46.4282   11.5163  -30.1194 C.ar    1  UNL1        0.0203
      9 C          46.9905   10.4524  -29.4093 C.ar    1  UNL1        0.0985
     10 N          47.2589   10.5835  -28.0826 N.ar    1  UNL1       -0.2471
     11 C          46.9941   11.7385  -27.4104 C.ar    1  UNL1        0.0695
     12 C          48.6089   13.2882  -24.3361 C.3     1  UNL1        0.0886
     13 C          48.4886   19.6126  -26.1341 C.ar    1  UNL1       -0.0003
     14 C          49.2884   18.9137  -27.0405 C.ar    1  UNL1       -0.0003
     15 C          49.4770   17.5374  -26.8918 C.ar    1  UNL1       -0.0045
     16 C          48.8722   16.8500  -25.8277 C.ar    1  UNL1       -0.0234
     17 C          48.0411   17.5512  -24.9289 C.ar    1  UNL1       -0.0103
     18 C          47.8710   18.9364  -25.0789 C.ar    1  UNL1       -0.0032
     19 C          47.4240   16.8484  -23.7459 C.3     1  UNL1        0.0953
     20 N          47.3286   15.3971  -23.9583 N.3     1  UNL1       -0.2934
     21 C          48.6397   14.8368  -24.3256 C.3     1  UNL1        0.0748
     22 C          49.0380   15.3570  -25.7193 C.3     1  UNL1        0.0432
     23 H          47.0315   14.9892  -23.0431 H       1  UNL1        0.1236
     24 C          49.7815   12.0087  -26.0669 C.3     1  UNL1        0.0725
     25 C          50.0254   10.8358  -25.1028 C.3     1  UNL1        0.0188
     26 C          50.6195    9.6061  -25.8079 C.3     1  UNL1        0.0185
     27 C          50.7366    9.8183  -27.3317 C.3     1  UNL1        0.0686
     28 N          49.8061    8.9501  -28.0708 N.3     1  UNL1       -0.2985
     29 H          49.2552    8.3868  -27.3805 H       1  UNL1        0.1232
     30 C          50.4857    8.0390  -29.0127 C.3     1  UNL1        0.0568
     31 C          49.5936    7.6759  -30.2299 C.3     1  UNL1        0.0328
     32 C          50.4174    7.3704  -31.4966 C.3     1  UNL1        0.0699
     33 N          51.7253    6.7942  -31.1615 N.3     1  UNL1       -0.2974
     34 C          52.5794    7.7511  -30.4319 C.3     1  UNL1        0.0699
     35 C          51.7952    8.6854  -29.4831 C.3     1  UNL1        0.0328
     36 H          51.5761    5.9440  -30.5677 H       1  UNL1        0.1232
@<TRIPOS>BOND
     1    13    14   ar
     2    14    15   ar
     3    15    16   ar
     4    16    17   ar
     5    17    18   ar
     6    17    19    1
     7    19    20    1
     8    20    21    1
     9    21    12    1
    10    12     1    1
    11     1    24    1
    12    24    25    1
    13    25    26    1
    14    26    27    1
    15    27    28    1
    16    28    30    1
    17    30    31    1
    18    31    32    1
    19    32    33    1
    20    33    34    1
    21    34    35    1
    22     1     2    1
    23     2     3    1
    24     3     4    1
    25     4     5    1
    26     5     6    1
    27     6     7   ar
    28     7     8   ar
    29     8     9   ar
    30     9    10   ar
    31    10    11   ar
    32    21    22    1
    33    18    13   ar
    34    35    30    1
    35    11     2    1
    36    22    16    1
    37    11     6   ar
    38    20    23    1
    39    28    29    1
    40    33    36    1
@<TRIPOS>MOLECULE
*****
 36 40 0 0 0
SMALL
GASTEIGER

@<TRIPOS>ATOM
      1 N          49.0583   12.4055  -23.9837 N.3     1  UNL1       -0.2679
      2 C          50.2048   11.8000  -23.2310 C.3     1  UNL1        0.0978
      3 C          51.4374   12.7411  -23.1087 C.3     1  UNL1        0.0224
      4 C          51.2437   13.9502  -22.1460 C.3     1  UNL1        0.0065
      5 C          49.9617   13.8947  -21.2922 C.3     1  UNL1        0.0277
      6 C          49.6677   12.4849  -20.8671 C.ar    1  UNL1       -0.0073
      7 C          49.2677   12.1698  -19.5629 C.ar    1  UNL1       -0.0015
      8 C          49.0409   10.8374  -19.2123 C.ar    1  UNL1        0.0203
      9 C          49.2176    9.8362  -20.1708 C.ar    1  UNL1        0.0985
     10 N          49.5916   10.1621  -21.4370 N.ar    1  UNL1       -0.2471
     11 C          49.8026   11.4553  -21.8097 C.ar    1  UNL1        0.0695
     12 C          49.4350   12.8761  -25.3493 C.3     1  UNL1        0.0886
     13 C          49.4209   19.1524  -27.3122 C.ar    1  UNL1       -0.0003
     14 C          50.7047   18.8357  -26.8636 C.ar    1  UNL1       -0.0003
     15 C          50.9854   17.5500  -26.3946 C.ar    1  UNL1       -0.0045
     16 C          49.9791   16.5716  -26.3632 C.ar    1  UNL1       -0.0234
     17 C          48.6898   16.8836  -26.8433 C.ar    1  UNL1       -0.0103
     18 C          48.4150   18.1829  -27.2979 C.ar    1  UNL1       -0.0032
     19 C          47.5767   15.8688  -26.7697 C.3     1  UNL1        0.0953
     20 N          48.0914   14.4942  -26.6931 N.3     1  UNL1       -0.2934
     21 C          49.0519   14.3582  -25.5857 C.3     1  UNL1        0.0748
     22 C          50.3162   15.1750  -25.9114 C.3     1  UNL1        0.0432
     23 H          47.2643   13.8854  -26.4994 H       1  UNL1        0.1236
     24 C          47.8979   11.4666  -24.0615 C.3     1  UNL1        0.0725
     25 C          46.6292   12.1101  -23.4775 C.3     1  UNL1        0.0188
     26 C          45.6957   12.6663  -24.5645 C.3     1  UNL1        0.0185
     27 C          45.6946   11.7816  -25.8286 C.3     1  UNL1        0.0686
     28 N          46.2823   12.4848  -26.9801 N.3     1  UNL1       -0.2985
     29 H          45.8922   13.4564  -27.0127 H       1  UNL1        0.1232
     30 C          46.0216   11.8106  -28.2672 C.3     1  UNL1        0.0568
     31 C          45.9236   12.8123  -29.4488 C.3     1  UNL1        0.0328
     32 C          46.3611   12.1900  -30.7896 C.3     1  UNL1        0.0699
     33 N          46.0791   10.7499  -30.8315 N.3     1  UNL1       -0.2974
     34 C          46.8776   10.0021  -29.8411 C.3     1  UNL1        0.0699
     35 C          47.1278   10.7804  -28.5297 C.3     1  UNL1        0.0328
     36 H          45.0607   10.6008  -30.6355 H       1  UNL1        0.1232
@<TRIPOS>BOND
     1    13    14   ar
     2    14    15   ar
     3    15    16   ar
     4    16    17   ar
     5    17    18   ar
     6    17    19    1
     7    19    20    1
     8    20    21    1
     9    21    12    1
    10    12     1    1
    11     1    24    1
    12    24    25    1
    13    25    26    1
    14    26    27    1
    15    27    28    1
    16    28    30    1
    17    30    31    1
    18    31    32    1
    19    32    33    1
    20    33    34    1
    21    34    35    1
    22     1     2    1
    23     2     3    1
    24     3     4    1
    25     4     5    1
    26     5     6    1
    27     6     7   ar
    28     7     8   ar
    29     8     9   ar
    30     9    10   ar
    31    10    11   ar
    32    21    22    1
    33    18    13   ar
    34    35    30    1
    35    11     2    1
    36    22    16    1
    37    11     6   ar
    38    20    23    1
    39    28    29    1
    40    33    36    1
@<TRIPOS>MOLECULE
*****
 36 40 0 0 0
SMALL
GASTEIGER

@<TRIPOS>ATOM
      1 N          48.6575   12.8283  -22.1778 N.3     1  UNL1       -0.2679
      2 C          49.9858   12.2267  -21.8295 C.3     1  UNL1        0.0978
      3 C          50.1486   11.9077  -20.3157 C.3     1  UNL1        0.0224
      4 C          49.2981   10.7066  -19.8057 C.3     1  UNL1        0.0065
      5 C          48.6180    9.8816  -20.9158 C.3     1  UNL1        0.0277
      6 C          49.5119    9.7694  -22.1170 C.ar    1  UNL1       -0.0073
      7 C          49.6834    8.5627  -22.8059 C.ar    1  UNL1       -0.0015
      8 C          50.5542    8.5067  -23.8960 C.ar    1  UNL1        0.0203
      9 C          51.2434    9.6589  -24.2833 C.ar    1  UNL1        0.0985
     10 N          51.0528   10.8261  -23.6120 N.ar    1  UNL1       -0.2471
     11 C          50.1962   10.9120  -22.5561 C.ar    1  UNL1        0.0695
     12 C          48.6058   14.3042  -21.9605 C.3     1  UNL1        0.0886
     13 C          49.0992   19.0952  -26.4380 C.ar    1  UNL1       -0.0003
     14 C          47.8693   19.2252  -25.7898 C.ar    1  UNL1       -0.0003
     15 C          47.5129   18.3303  -24.7779 C.ar    1  UNL1       -0.0045
     16 C          48.3829   17.2911  -24.4119 C.ar    1  UNL1       -0.0234
     17 C          49.6374   17.1775  -25.0471 C.ar    1  UNL1       -0.0103
     18 C          49.9786   18.0729  -26.0729 C.ar    1  UNL1       -0.0032
     19 C          50.5673   16.0385  -24.7122 C.3     1  UNL1        0.0953
     20 N          50.2890   15.4754  -23.3834 N.3     1  UNL1       -0.2934
     21 C          48.8708   15.0988  -23.2635 C.3     1  UNL1        0.0748
     22 C          48.0073   16.3739  -23.2780 C.3     1  UNL1        0.0432
     23 H          50.8750   14.6136  -23.3053 H       1  UNL1        0.1236
     24 C          48.2573   12.4971  -23.5794 C.3     1  UNL1        0.0725
     25 C          46.7780   12.0825  -23.6458 C.3     1  UNL1        0.0188
     26 C          46.0065   12.8234  -24.7495 C.3     1  UNL1        0.0185
     27 C          45.8551   11.9631  -26.0214 C.3     1  UNL1        0.0686
     28 N          46.2504   12.7082  -27.2274 N.3     1  UNL1       -0.2985
     29 H          45.7107   13.6055  -27.2574 H       1  UNL1        0.1232
     30 C          46.0182   11.9568  -28.4766 C.3     1  UNL1        0.0568
     31 C          45.9844   12.8807  -29.7234 C.3     1  UNL1        0.0328
     32 C          46.4529   12.1626  -31.0045 C.3     1  UNL1        0.0699
     33 N          46.1385   10.7292  -30.9630 N.3     1  UNL1       -0.2974
     34 C          46.8847   10.0311  -29.8984 C.3     1  UNL1        0.0699
     35 C          47.1081   10.8882  -28.6321 C.3     1  UNL1        0.0328
     36 H          45.1108   10.6150  -30.7944 H       1  UNL1        0.1232
@<TRIPOS>BOND
     1    13    14   ar
     2    14    15   ar
     3    15    16   ar
     4    16    17   ar
     5    17    18   ar
     6    17    19    1
     7    19    20    1
     8    20    21    1
     9    21    12    1
    10    12     1    1
    11     1    24    1
    12    24    25    1
    13    25    26    1
    14    26    27    1
    15    27    28    1
    16    28    30    1
    17    30    31    1
    18    31    32    1
    19    32    33    1
    20    33    34    1
    21    34    35    1
    22     1     2    1
    23     2     3    1
    24     3     4    1
    25     4     5    1
    26     5     6    1
    27     6     7   ar
    28     7     8   ar
    29     8     9   ar
    30     9    10   ar
    31    10    11   ar
    32    21    22    1
    33    18    13   ar
    34    35    30    1
    35    11     2    1
    36    22    16    1
    37    11     6   ar
    38    20    23    1
    39    28    29    1
    40    33    36    1
@<TRIPOS>MOLECULE
*****
 36 40 0 0 0
SMALL
GASTEIGER

@<TRIPOS>ATOM
      1 N          49.1259   14.7164  -25.5975 N.3     1  UNL1       -0.2679
      2 C          48.4322   15.4615  -26.6981 C.3     1  UNL1        0.0978
      3 C          46.9764   14.9784  -26.9574 C.3     1  UNL1        0.0224
      4 C          45.9536   15.3595  -25.8461 C.3     1  UNL1        0.0065
      5 C          46.4872   16.3489  -24.7915 C.3     1  UNL1        0.0277
      6 C          47.3866   17.3690  -25.4280 C.ar    1  UNL1       -0.0073
      7 C          47.3108   18.7299  -25.1076 C.ar    1  UNL1       -0.0015
      8 C          48.1480   19.6403  -25.7556 C.ar    1  UNL1        0.0203
      9 C          49.0507   19.1780  -26.7169 C.ar    1  UNL1        0.0985
     10 N          49.1213   17.8507  -27.0043 N.ar    1  UNL1       -0.2471
     11 C          48.3281   16.9397  -26.3745 C.ar    1  UNL1        0.0695
     12 C          49.4340   13.2992  -25.9507 C.3     1  UNL1        0.0886
     13 C          48.0155    9.2720  -20.9492 C.ar    1  UNL1       -0.0003
     14 C          49.3393    9.0470  -21.3320 C.ar    1  UNL1       -0.0003
     15 C          49.9009    9.7842  -22.3775 C.ar    1  UNL1       -0.0045
     16 C          49.1379   10.7484  -23.0548 C.ar    1  UNL1       -0.0234
     17 C          47.8096   10.9955  -22.6490 C.ar    1  UNL1       -0.0103
     18 C          47.2507   10.2384  -21.6075 C.ar    1  UNL1       -0.0032
     19 C          46.9506   11.9858  -23.3944 C.3     1  UNL1        0.0953
     20 N          47.7586   12.9684  -24.1305 N.3     1  UNL1       -0.2934
     21 C          48.7297   12.2928  -25.0070 C.3     1  UNL1        0.0748
     22 C          49.7792   11.5749  -24.1382 C.3     1  UNL1        0.0432
     23 H          47.0886   13.5094  -24.7226 H       1  UNL1        0.1236
     24 C          50.3680   15.4219  -25.1574 C.3     1  UNL1        0.0725
     25 C          50.6493   15.1632  -23.6678 C.3     1  UNL1        0.0188
     26 C          49.4273   15.4447  -22.7790 C.3     1  UNL1        0.0185
     27 C          49.4490   14.6000  -21.4881 C.3     1  UNL1        0.0686
     28 N          50.6734   13.7889  -21.3941 N.3     1  UNL1       -0.2985
     29 H          50.8150   13.2912  -22.3048 H       1  UNL1        0.1232
     30 C          50.6327   12.8004  -20.2986 C.3     1  UNL1        0.0568
     31 C          51.8089   12.9762  -19.3011 C.3     1  UNL1        0.0328
     32 C          51.4478   12.5175  -17.8743 C.3     1  UNL1        0.0699
     33 N          50.4655   11.4268  -17.8925 N.3     1  UNL1       -0.2974
     34 C          49.1666   11.8630  -18.4405 C.3     1  UNL1        0.0699
     35 C          49.2891   12.9140  -19.5667 C.3     1  UNL1        0.0328
     36 H          50.8417   10.6452  -18.4801 H       1  UNL1        0.1232
@<TRIPOS>BOND
     1    13    14   ar
     2    14    15   ar
     3    15    16   ar
     4    16    17   ar
     5    17    18   ar
     6    17    19    1
     7    19    20    1
     8    20    21    1
     9    21    12    1
    10    12     1    1
    11     1    24    1
    12    24    25    1
    13    25    26    1
    14    26    27    1
    15    27    28    1
    16    28    30    1
    17    30    31    1
    18    31    32    1
    19    32    33    1
    20    33    34    1
    21    34    35    1
    22     1     2    1
    23     2     3    1
    24     3     4    1
    25     4     5    1
    26     5     6    1
    27     6     7   ar
    28     7     8   ar
    29     8     9   ar
    30     9    10   ar
    31    10    11   ar
    32    21    22    1
    33    18    13   ar
    34    35    30    1
    35    11     2    1
    36    22    16    1
    37    11     6   ar
    38    20    23    1
    39    28    29    1
    40    33    36    1
@<TRIPOS>MOLECULE
*****
 36 40 0 0 0
SMALL
GASTEIGER

@<TRIPOS>ATOM
      1 N          48.7405   14.0429  -23.8364 N.3     1  UNL1       -0.2679
      2 C          49.1625   15.4005  -23.3604 C.3     1  UNL1        0.0978
      3 C          50.5263   15.8699  -23.9432 C.3     1  UNL1        0.0224
      4 C          50.4979   16.2400  -25.4560 C.3     1  UNL1        0.0065
      5 C          49.0884   16.3107  -26.0755 C.3     1  UNL1        0.0277
      6 C          48.1071   16.8890  -25.0971 C.ar    1  UNL1       -0.0073
      7 C          47.1550   17.8433  -25.4752 C.ar    1  UNL1       -0.0015
      8 C          46.2892   18.3735  -24.5165 C.ar    1  UNL1        0.0203
      9 C          46.3869   17.9428  -23.1909 C.ar    1  UNL1        0.0985
     10 N          47.3075   17.0037  -22.8446 N.ar    1  UNL1       -0.2471
     11 C          48.1524   16.4579  -23.7634 C.ar    1  UNL1        0.0695
     12 C          49.7906   12.9998  -23.6430 C.3     1  UNL1        0.0886
     13 C          52.3571    9.4836  -28.5720 C.ar    1  UNL1       -0.0003
     14 C          53.0595   10.6867  -28.4789 C.ar    1  UNL1       -0.0003
     15 C          52.7187   11.6227  -27.4993 C.ar    1  UNL1       -0.0045
     16 C          51.6647   11.3648  -26.6087 C.ar    1  UNL1       -0.0234
     17 C          50.9741   10.1370  -26.6846 C.ar    1  UNL1       -0.0103
     18 C          51.3148    9.2105  -27.6825 C.ar    1  UNL1       -0.0032
     19 C          49.8027    9.8575  -25.7768 C.3     1  UNL1        0.0953
     20 N          49.8445   10.6784  -24.5583 N.3     1  UNL1       -0.2934
     21 C          49.9678   12.1062  -24.8958 C.3     1  UNL1        0.0748
     22 C          51.3521   12.3590  -25.5214 C.3     1  UNL1        0.0432
     23 H          48.9319   10.5237  -24.0732 H       1  UNL1        0.1236
     24 C          47.4596   13.6127  -23.1973 C.3     1  UNL1        0.0725
     25 C          46.5297   12.9446  -24.2238 C.3     1  UNL1        0.0188
     26 C          45.9309   13.9504  -25.2199 C.3     1  UNL1        0.0185
     27 C          46.3709   13.6551  -26.6690 C.3     1  UNL1        0.0686
     28 N          46.7436   12.2421  -26.8428 N.3     1  UNL1       -0.2985
     29 H          47.7857   12.1607  -26.7748 H       1  UNL1        0.1232
     30 C          46.2927   11.6765  -28.1296 C.3     1  UNL1        0.0568
     31 C          46.0784   12.7687  -29.2115 C.3     1  UNL1        0.0328
     32 C          46.3143   12.2401  -30.6404 C.3     1  UNL1        0.0699
     33 N          45.9763   10.8156  -30.7493 N.3     1  UNL1       -0.2974
     34 C          46.8690    9.9724  -29.9310 C.3     1  UNL1        0.0699
     35 C          47.3164   10.6401  -28.6111 C.3     1  UNL1        0.0328
     36 H          44.9873   10.6794  -30.4313 H       1  UNL1        0.1232
@<TRIPOS>BOND
     1    13    14   ar
     2    14    15   ar
     3    15    16   ar
     4    16    17   ar
     5    17    18   ar
     6    17    19    1
     7    19    20    1
     8    20    21    1
     9    21    12    1
    10    12     1    1
    11     1    24    1
    12    24    25    1
    13    25    26    1
    14    26    27    1
    15    27    28    1
    16    28    30    1
    17    30    31    1
    18    31    32    1
    19    32    33    1
    20    33    34    1
    21    34    35    1
    22     1     2    1
    23     2     3    1
    24     3     4    1
    25     4     5    1
    26     5     6    1
    27     6     7   ar
    28     7     8   ar
    29     8     9   ar
    30     9    10   ar
    31    10    11   ar
    32    21    22    1
    33    18    13   ar
    34    35    30    1
    35    11     2    1
    36    22    16    1
    37    11     6   ar
    38    20    23    1
    39    28    29    1
    40    33    36    1
@<TRIPOS>MOLECULE
*****
 36 40 0 0 0
SMALL
GASTEIGER

@<TRIPOS>ATOM
      1 N          49.3317   12.6604  -23.5786 N.3     1  UNL1       -0.2679
      2 C          50.5323   12.1873  -22.8154 C.3     1  UNL1        0.0978
      3 C          51.5869   13.3016  -22.5581 C.3     1  UNL1        0.0224
      4 C          51.1588   14.3791  -21.5179 C.3     1  UNL1        0.0065
      5 C          49.8714   14.0464  -20.7387 C.3     1  UNL1        0.0277
      6 C          49.7979   12.5772  -20.4375 C.ar    1  UNL1       -0.0073
      7 C          49.4049   12.0941  -19.1835 C.ar    1  UNL1       -0.0015
      8 C          49.3878   10.7180  -18.9472 C.ar    1  UNL1        0.0203
      9 C          49.7645    9.8419  -19.9684 C.ar    1  UNL1        0.0985
     10 N          50.1286   10.3282  -21.1851 N.ar    1  UNL1       -0.2471
     11 C          50.1375   11.6651  -21.4471 C.ar    1  UNL1        0.0695
     12 C          49.6830   13.4236  -24.8124 C.3     1  UNL1        0.0886
     13 C          48.1943   19.7239  -25.9680 C.ar    1  UNL1       -0.0003
     14 C          49.0010   19.2650  -27.0113 C.ar    1  UNL1       -0.0003
     15 C          49.4560   17.9441  -27.0158 C.ar    1  UNL1       -0.0045
     16 C          49.1133   17.0727  -25.9698 C.ar    1  UNL1       -0.0234
     17 C          48.2747   17.5284  -24.9309 C.ar    1  UNL1       -0.0103
     18 C          47.8360   18.8618  -24.9286 C.ar    1  UNL1       -0.0032
     19 C          47.9364   16.6306  -23.7675 C.3     1  UNL1        0.0953
     20 N          48.0869   15.2090  -24.1094 N.3     1  UNL1       -0.2934
     21 C          49.4284   14.9434  -24.6548 C.3     1  UNL1        0.0748
     22 C          49.5629   15.6364  -26.0234 C.3     1  UNL1        0.0432
     23 H          47.9761   14.6822  -23.2137 H       1  UNL1        0.1236
     24 C          48.4152   11.5281  -23.9137 C.3     1  UNL1        0.0725
     25 C          47.2984   11.3953  -22.8649 C.3     1  UNL1        0.0188
     26 C          46.2765   12.5408  -22.9428 C.3     1  UNL1        0.0185
     27 C          45.6553   12.6618  -24.3500 C.3     1  UNL1        0.0686
     28 N          45.6240   14.0600  -24.8079 N.3     1  UNL1       -0.2985
     29 H          44.8251   14.5477  -24.3376 H       1  UNL1        0.1232
     30 C          45.4811   14.1888  -26.2715 C.3     1  UNL1        0.0568
     31 C          45.6446   15.6552  -26.7535 C.3     1  UNL1        0.0328
     32 C          46.2024   15.7476  -28.1877 C.3     1  UNL1        0.0699
     33 N          45.7921   14.5952  -28.9995 N.3     1  UNL1       -0.2974
     34 C          46.3700   13.3333  -28.4983 C.3     1  UNL1        0.0699
     35 C          46.5091   13.2816  -26.9601 C.3     1  UNL1        0.0328
     36 H          44.7469   14.5261  -28.9812 H       1  UNL1        0.1232
@<TRIPOS>BOND
     1    13    14   ar
     2    14    15   ar
     3    15    16   ar
     4    16    17   ar
     5    17    18   ar
     6    17    19    1
     7    19    20    1
     8    20    21    1
     9    21    12    1
    10    12     1    1
    11     1    24    1
    12    24    25    1
    13    25    26    1
    14    26    27    1
    15    27    28    1
    16    28    30    1
    17    30    31    1
    18    31    32    1
    19    32    33    1
    20    33    34    1
    21    34    35    1
    22     1     2    1
    23     2     3    1
    24     3     4    1
    25     4     5    1
    26     5     6    1
    27     6     7   ar
    28     7     8   ar
    29     8     9   ar
    30     9    10   ar
    31    10    11   ar
    32    21    22    1
    33    18    13   ar
    34    35    30    1
    35    11     2    1
    36    22    16    1
    37    11     6   ar
    38    20    23    1
    39    28    29    1
    40    33    36    1
@<TRIPOS>MOLECULE
*****
 36 40 0 0 0
SMALL
GASTEIGER

@<TRIPOS>ATOM
      1 N          48.0924   12.9607  -25.3430 N.3     1  UNL1       -0.2679
      2 C          46.8635   12.1680  -25.6737 C.3     1  UNL1        0.0978
      3 C          45.5458   12.8171  -25.1616 C.3     1  UNL1        0.0224
      4 C          45.1098   14.1018  -25.9268 C.3     1  UNL1        0.0065
      5 C          45.9138   14.3917  -27.2094 C.3     1  UNL1        0.0277
      6 C          46.2491   13.1153  -27.9255 C.ar    1  UNL1       -0.0073
      7 C          46.1246   12.9871  -29.3141 C.ar    1  UNL1       -0.0015
      8 C          46.4170   11.7658  -29.9246 C.ar    1  UNL1        0.0203
      9 C          46.8300   10.6873  -29.1381 C.ar    1  UNL1        0.0985
     10 N          46.9602   10.8344  -27.7925 N.ar    1  UNL1       -0.2471
     11 C          46.6979   12.0196  -27.1741 C.ar    1  UNL1        0.0695
     12 C          48.0176   13.6326  -24.0122 C.3     1  UNL1        0.0886
     13 C          48.5097   19.7753  -26.3079 C.ar    1  UNL1       -0.0003
     14 C          49.3085   18.9462  -27.0979 C.ar    1  UNL1       -0.0003
     15 C          49.3786   17.5772  -26.8280 C.ar    1  UNL1       -0.0045
     16 C          48.6547   17.0277  -25.7582 C.ar    1  UNL1       -0.0234
     17 C          47.8254   17.8608  -24.9782 C.ar    1  UNL1       -0.0103
     18 C          47.7745   19.2372  -25.2488 C.ar    1  UNL1       -0.0032
     19 C          47.0805   17.3068  -23.7898 C.3     1  UNL1        0.0953
     20 N          46.8852   15.8537  -23.8930 N.3     1  UNL1       -0.2934
     21 C          48.1691   15.1703  -24.1219 C.3     1  UNL1        0.0748
     22 C          48.6955   15.5410  -25.5209 C.3     1  UNL1        0.0432
     23 H          46.4990   15.5470  -22.9717 H       1  UNL1        0.1236
     24 C          49.3255   12.1204  -25.4301 C.3     1  UNL1        0.0725
     25 C          49.1921   10.8562  -24.5647 C.3     1  UNL1        0.0188
     26 C          50.2128   10.8168  -23.4163 C.3     1  UNL1        0.0185
     27 C          49.5248   10.7076  -22.0395 C.3     1  UNL1        0.0686
     28 N          49.5288   11.9971  -21.3302 N.3     1  UNL1       -0.2985
     29 H          49.3114   12.7570  -22.0176 H       1  UNL1        0.1232
     30 C          50.8145   12.2914  -20.6673 C.3     1  UNL1        0.0568
     31 C          51.4658   13.5972  -21.1965 C.3     1  UNL1        0.0328
     32 C          52.3383   14.2953  -20.1344 C.3     1  UNL1        0.0699
     33 N          52.9371   13.3260  -19.2087 N.3     1  UNL1       -0.2974
     34 C          51.9166   12.6337  -18.3982 C.3     1  UNL1        0.0699
     35 C          50.5915   12.3808  -19.1520 C.3     1  UNL1        0.0328
     36 H          53.4739   12.6180  -19.7639 H       1  UNL1        0.1232
@<TRIPOS>BOND
     1    13    14   ar
     2    14    15   ar
     3    15    16   ar
     4    16    17   ar
     5    17    18   ar
     6    17    19    1
     7    19    20    1
     8    20    21    1
     9    21    12    1
    10    12     1    1
    11     1    24    1
    12    24    25    1
    13    25    26    1
    14    26    27    1
    15    27    28    1
    16    28    30    1
    17    30    31    1
    18    31    32    1
    19    32    33    1
    20    33    34    1
    21    34    35    1
    22     1     2    1
    23     2     3    1
    24     3     4    1
    25     4     5    1
    26     5     6    1
    27     6     7   ar
    28     7     8   ar
    29     8     9   ar
    30     9    10   ar
    31    10    11   ar
    32    21    22    1
    33    18    13   ar
    34    35    30    1
    35    11     2    1
    36    22    16    1
    37    11     6   ar
    38    20    23    1
    39    28    29    1
    40    33    36    1
