@<TRIPOS>MOLECULE
*****
 47 52 0 0 0
SMALL
GASTEIGER

@<TRIPOS>ATOM
      1 C          58.1700   84.7495    9.2600 C.ar    1  UNL1        0.0702
      2 C          58.3561   83.4801    8.7008 C.ar    1  UNL1        0.0191
      3 C          58.4047   82.3492    9.5173 C.ar    1  UNL1        0.0356
      4 C          58.2765   82.4906   10.9104 C.ar    1  UNL1        0.1318
      5 N          58.1220   83.7409   11.4309 N.ar    1  UNL1       -0.2279
      6 C          58.0741   84.8560   10.6561 C.ar    1  UNL1        0.1149
      7 N          58.3121   81.3436   11.7919 N.pl3   1  UNL1       -0.2932
      8 C          58.2120   79.9805   11.2530 C.3     1  UNL1        0.0923
      9 C          59.4746   79.1790   11.5972 C.3     1  UNL1        0.0252
     10 C          60.0354   79.4757   13.0195 C.3     1  UNL1        0.0472
     11 C          58.9947   80.2024   13.9023 C.3     1  UNL1        0.0252
     12 C          58.5036   81.5057   13.2439 C.3     1  UNL1        0.0923
     13 C          61.3703   80.2548   13.0015 C.3     1  UNL1        0.2054
     14 O          61.6349   80.8102   11.7100 O.3     1  UNL1       -0.4755
     15 C          61.7216   82.1784   11.3919 C.ar    1  UNL1        0.1388
     16 C          61.5597   83.0992   12.4326 C.ar    1  UNL1        0.0369
     17 C          61.6347   84.4709   12.1866 C.ar    1  UNL1        0.0033
     18 C          61.8653   84.9402   10.8925 C.ar    1  UNL1        0.0066
     19 C          62.0243   84.0384    9.8271 C.ar    1  UNL1        0.0785
     20 C          61.9715   82.6568   10.0868 C.ar    1  UNL1        0.0433
     21 C          62.2587   84.5468    8.4548 C.2     1  UNL1        0.3381
     22 O          61.3884   84.3656    7.5623 O.2     1  UNL1       -0.2451
     23 O          63.4382   85.2068    8.1123 O.3     1  UNL1       -0.4771
     24 H          64.2142   85.3047    8.7544 H       1  UNL1        0.2954
     25 C          58.6980   87.1865    8.7666 C.2     1  UNL1        0.2839
     26 O          59.0073   87.4314    9.9633 O.2     1  UNL1       -0.2665
     27 N          58.1507   85.9073    8.4065 N.am    1  UNL1       -0.2766
     28 H          57.6357   85.8339    7.5000 H       1  UNL1        0.1553
     29 C          61.4509   88.2377    7.5081 C.3     1  UNL1        0.0345
     30 C          60.0592   88.6922    7.1847 C.ar    1  UNL1        0.0202
     31 C          58.8593   88.2308    7.7373 C.ar    1  UNL1        0.1946
     32 O          57.8373   88.8719    7.1986 O.2     1  UNL1       -0.4492
     33 C          58.3128   89.7262    6.3258 C.ar    1  UNL1        0.1452
     34 C          57.5914   90.6085    5.5292 C.ar    1  UNL1        0.0375
     35 C          58.3071   91.4450    4.6552 C.ar    1  UNL1        0.0031
     36 C          59.7255   91.3877    4.5903 C.ar    1  UNL1        0.0002
     37 C          60.4218   90.4746    5.4182 C.ar    1  UNL1        0.0028
     38 C          59.6793   89.6592    6.2737 C.ar    1  UNL1        0.0337
     39 C          60.4709   92.2765    3.6632 C.ar    1  UNL1       -0.0000
     40 C          61.8300   92.0455    3.3896 C.ar    1  UNL1       -0.0003
     41 C          62.5310   92.8812    2.5162 C.ar    1  UNL1       -0.0043
     42 C          61.8883   93.9686    1.8969 C.ar    1  UNL1       -0.0225
     43 C          60.5301   94.1992    2.1709 C.ar    1  UNL1       -0.0043
     44 C          59.8289   93.3626    3.0436 C.ar    1  UNL1       -0.0003
     45 C          62.6373   94.8843    0.9467 C.3     1  UNL1        0.0224
     46 C          62.1983   94.6534   -0.5041 C.3     1  UNL1        0.0047
     47 C          64.1538   94.7166    1.0977 C.3     1  UNL1        0.0047
@<TRIPOS>BOND
     1    29    30    1
     2    30    31   ar
     3    31    25    1
     4    25    26    2
     5    25    27   am
     6    27     1    1
     7     1     2   ar
     8     2     3   ar
     9     3     4   ar
    10     4     7    1
    11     7     8    1
    12     8     9    1
    13     9    10    1
    14    10    13    1
    15    13    14    1
    16    14    15    1
    17    15    16   ar
    18    16    17   ar
    19    17    18   ar
    20    18    19   ar
    21    19    21    1
    22    21    22    2
    23    21    23    1
    24    19    20   ar
    25    10    11    1
    26    11    12    1
    27     4     5   ar
    28     5     6   ar
    29    31    32   ar
    30    32    33   ar
    31    33    34   ar
    32    34    35   ar
    33    35    36   ar
    34    36    39    1
    35    39    40   ar
    36    40    41   ar
    37    41    42   ar
    38    42    45    1
    39    45    46    1
    40    45    47    1
    41    42    43   ar
    42    43    44   ar
    43    36    37   ar
    44    37    38   ar
    45    38    30   ar
    46     6     1   ar
    47    38    33   ar
    48    12     7    1
    49    44    39   ar
    50    20    15   ar
    51    27    28    1
    52    23    24    1
@<TRIPOS>MOLECULE
*****
 47 52 0 0 0
SMALL
GASTEIGER

@<TRIPOS>ATOM
      1 C          58.3565   84.7440    9.3205 C.ar    1  UNL1        0.0702
      2 C          57.7955   84.8341   10.5996 C.ar    1  UNL1        0.0191
      3 C          57.8079   83.7314   11.4552 C.ar    1  UNL1        0.0356
      4 C          58.3786   82.5213   11.0226 C.ar    1  UNL1        0.1318
      5 N          58.8950   82.4534    9.7629 N.ar    1  UNL1       -0.2279
      6 C          58.8919   83.5127    8.9121 C.ar    1  UNL1        0.1149
      7 N          58.4204   81.3572   11.8810 N.pl3   1  UNL1       -0.2932
      8 C          58.3635   80.0038   11.3123 C.3     1  UNL1        0.0923
      9 C          59.6360   79.2235   11.6689 C.3     1  UNL1        0.0252
     10 C          60.1576   79.5027   13.1095 C.3     1  UNL1        0.0472
     11 C          59.0811   80.1874   13.9828 C.3     1  UNL1        0.0252
     12 C          58.5755   81.4930   13.3401 C.3     1  UNL1        0.0923
     13 C          61.4746   80.3115   13.1381 C.3     1  UNL1        0.2054
     14 O          61.9136   80.6439   11.8178 O.3     1  UNL1       -0.4755
     15 C          62.2342   81.9298   11.3439 C.ar    1  UNL1        0.1388
     16 C          63.1187   82.0227   10.2640 C.ar    1  UNL1        0.0369
     17 C          63.4782   83.2670    9.7443 C.ar    1  UNL1        0.0033
     18 C          62.9626   84.4369   10.3044 C.ar    1  UNL1        0.0066
     19 C          62.0782   84.3736   11.3940 C.ar    1  UNL1        0.0785
     20 C          61.7015   83.1151   11.8970 C.ar    1  UNL1        0.0433
     21 C          61.5441   85.6220   11.9881 C.2     1  UNL1        0.3381
     22 O          62.2408   86.6715   11.9723 O.2     1  UNL1       -0.2451
     23 O          60.2882   85.6640   12.5922 O.3     1  UNL1       -0.4771
     24 H          59.7172   84.8384   12.7205 H       1  UNL1        0.2954
     25 C          58.7254   87.2067    8.8108 C.2     1  UNL1        0.2839
     26 O          58.9232   87.4964   10.0211 O.2     1  UNL1       -0.2665
     27 N          58.3099   85.8815    8.4413 N.am    1  UNL1       -0.2766
     28 H          57.8721   85.7511    7.5011 H       1  UNL1        0.1553
     29 C          61.4750   88.3090    7.5893 C.3     1  UNL1        0.0345
     30 C          60.0790   88.7263    7.2357 C.ar    1  UNL1        0.0202
     31 C          58.8805   88.2427    7.7722 C.ar    1  UNL1        0.1946
     32 O          57.8535   88.8529    7.2077 O.2     1  UNL1       -0.4492
     33 C          58.3244   89.7083    6.3334 C.ar    1  UNL1        0.1452
     34 C          57.5968   90.5638    5.5136 C.ar    1  UNL1        0.0375
     35 C          58.3083   91.4071    4.6426 C.ar    1  UNL1        0.0031
     36 C          59.7286   91.3830    4.6038 C.ar    1  UNL1        0.0002
     37 C          60.4312   90.4965    5.4548 C.ar    1  UNL1        0.0028
     38 C          59.6928   89.6734    6.3066 C.ar    1  UNL1        0.0337
     39 C          60.4694   92.2788    3.6796 C.ar    1  UNL1       -0.0000
     40 C          59.8363   93.3944    3.1050 C.ar    1  UNL1       -0.0003
     41 C          60.5337   94.2379    2.2363 C.ar    1  UNL1       -0.0043
     42 C          61.8811   93.9840    1.9214 C.ar    1  UNL1       -0.0225
     43 C          62.5132   92.8688    2.4957 C.ar    1  UNL1       -0.0043
     44 C          61.8158   92.0259    3.3653 C.ar    1  UNL1       -0.0003
     45 C          62.6504   94.8913    0.9795 C.3     1  UNL1        0.0224
     46 C          62.3114   94.5835   -0.4838 C.3     1  UNL1        0.0047
     47 C          64.1602   94.7941    1.2284 C.3     1  UNL1        0.0047
@<TRIPOS>BOND
     1    29    30    1
     2    30    31   ar
     3    31    25    1
     4    25    26    2
     5    25    27   am
     6    27     1    1
     7     1     2   ar
     8     2     3   ar
     9     3     4   ar
    10     4     7    1
    11     7     8    1
    12     8     9    1
    13     9    10    1
    14    10    13    1
    15    13    14    1
    16    14    15    1
    17    15    16   ar
    18    16    17   ar
    19    17    18   ar
    20    18    19   ar
    21    19    21    1
    22    21    22    2
    23    21    23    1
    24    19    20   ar
    25    10    11    1
    26    11    12    1
    27     4     5   ar
    28     5     6   ar
    29    31    32   ar
    30    32    33   ar
    31    33    34   ar
    32    34    35   ar
    33    35    36   ar
    34    36    39    1
    35    39    40   ar
    36    40    41   ar
    37    41    42   ar
    38    42    45    1
    39    45    46    1
    40    45    47    1
    41    42    43   ar
    42    43    44   ar
    43    36    37   ar
    44    37    38   ar
    45    38    30   ar
    46     6     1   ar
    47    38    33   ar
    48    12     7    1
    49    44    39   ar
    50    20    15   ar
    51    27    28    1
    52    23    24    1
