@<TRIPOS>MOLECULE
*****
 49 54 0 0 0
SMALL
GASTEIGER

@<TRIPOS>ATOM
      1 O          63.6645   89.1394   15.1522 O.2     1  UNL1       -0.2701
      2 C          63.6970   88.5642   14.0302 C.2     1  UNL1        0.2483
      3 N          63.9480   89.3293   12.8390 N.am    1  UNL1       -0.2945
      4 H          64.0582   88.8215   11.9339 H       1  UNL1        0.1501
      5 C          63.3779   87.1231   13.9501 C.ar    1  UNL1        0.0808
      6 C          62.1513   86.7258   13.3939 C.ar    1  UNL1        0.0080
      7 C          61.8612   85.3727   13.2080 C.ar    1  UNL1        0.0148
      8 C          62.7849   84.3897   13.5914 C.ar    1  UNL1        0.0502
      9 C          63.9966   84.7828   14.1817 C.ar    1  UNL1        0.0443
     10 C          64.2915   86.1369   14.3672 C.ar    1  UNL1        0.1457
     11 F          65.4546   86.4737   14.9796 F       1  UNL1       -0.2040
     12 N          62.5107   82.9982   13.3448 N.pl3   1  UNL1       -0.3040
     13 C          61.4151   82.3395   14.0748 C.3     1  UNL1        0.1122
     14 C          61.0909   80.9675   13.4744 C.3     1  UNL1        0.1122
     15 N          61.0846   81.0592   12.0073 N.pl3   1  UNL1       -0.3041
     16 C          62.2388   81.6502   11.3100 C.3     1  UNL1        0.1122
     17 C          63.2368   82.2619   12.3003 C.3     1  UNL1        0.1122
     18 C          59.9251   80.6629   11.2502 C.ar    1  UNL1        0.0479
     19 C          59.1162   79.6033   11.6919 C.ar    1  UNL1        0.0145
     20 C          57.9926   79.2204   10.9576 C.ar    1  UNL1        0.0012
     21 C          57.6562   79.8973    9.7834 C.ar    1  UNL1        0.0039
     22 C          58.4320   80.9826    9.3417 C.ar    1  UNL1        0.0726
     23 C          59.5780   81.3457   10.0719 C.ar    1  UNL1        0.0184
     24 C          58.0987   81.6845    8.0491 C.3     1  UNL1        0.4186
     25 F          57.3015   82.7810    8.3194 F       1  UNL1       -0.1659
     26 F          57.4206   80.8337    7.1933 F       1  UNL1       -0.1659
     27 F          59.2507   82.1110    7.4110 F       1  UNL1       -0.1659
     28 C          63.6652   90.7670   12.7658 C.3     1  UNL1        0.1535
     29 C          64.9103   91.5528   13.0848 C.2     1  UNL1        0.2443
     30 O          65.1519   92.6062   12.4347 O.2     1  UNL1       -0.2730
     31 N          65.8465   91.0778   14.0678 N.am    1  UNL1       -0.2825
     32 H          65.8003   90.0724   14.3480 H       1  UNL1        0.1549
     33 C          66.9118   91.8745   14.6136 C.ar    1  UNL1        0.0535
     34 C          68.1703   91.8580   13.9968 C.ar    1  UNL1        0.0353
     35 C          69.2154   92.6114   14.5368 C.ar    1  UNL1        0.1002
     36 N          69.0163   93.3434   15.6645 N.ar    1  UNL1       -0.2422
     37 C          67.8132   93.3641   16.2965 C.ar    1  UNL1        0.1002
     38 C          66.7409   92.6258   15.7890 C.ar    1  UNL1        0.0353
     39 C          63.1321   91.1400   11.3699 C.3     1  UNL1        0.0569
     40 C          61.8586   90.4060   11.0562 C.ar    1  UNL1       -0.0017
     41 C          60.5763   90.7752   11.4510 C.ar    1  UNL1        0.0681
     42 N          59.6825   89.8198   11.1078 N.ar    1  UNL1       -0.3523
     43 C          60.3902   88.8442   10.5125 C.ar    1  UNL1        0.0563
     44 C          59.9098   87.6271   10.0306 C.ar    1  UNL1        0.0170
     45 C          60.8388   86.7219    9.4864 C.ar    1  UNL1        0.0015
     46 C          62.2124   87.0468    9.4416 C.ar    1  UNL1        0.0001
     47 C          62.6689   88.2828    9.9347 C.ar    1  UNL1        0.0012
     48 C          61.7233   89.1632   10.4640 C.ar    1  UNL1        0.0131
     49 H          58.6555   89.8286   11.2966 H       1  UNL1        0.1660
@<TRIPOS>BOND
     1     1     2    2
     2     2     3   am
     3     3    28    1
     4    28    39    1
     5    39    40    1
     6    40    41   ar
     7    41    42   ar
     8    42    43   ar
     9    43    44   ar
    10    44    45   ar
    11    45    46   ar
    12    46    47   ar
    13    47    48   ar
    14    28    29    1
    15    29    30    2
    16    29    31   am
    17    31    33    1
    18    33    34   ar
    19    34    35   ar
    20    35    36   ar
    21    36    37   ar
    22    37    38   ar
    23     2     5    1
    24     5     6   ar
    25     6     7   ar
    26     7     8   ar
    27     8    12    1
    28    12    13    1
    29    13    14    1
    30    14    15    1
    31    15    18    1
    32    18    19   ar
    33    19    20   ar
    34    20    21   ar
    35    21    22   ar
    36    22    24    1
    37    24    25    1
    38    24    26    1
    39    24    27    1
    40    22    23   ar
    41    15    16    1
    42    16    17    1
    43     8     9   ar
    44     9    10   ar
    45    10    11    1
    46    48    40   ar
    47    38    33   ar
    48    10     5   ar
    49    48    43   ar
    50    17    12    1
    51    23    18   ar
    52     3     4    1
    53    42    49    1
    54    31    32    1
@<TRIPOS>MOLECULE
*****
 49 54 0 0 0
SMALL
GASTEIGER

@<TRIPOS>ATOM
      1 O          63.6225   90.2417   10.5523 O.2     1  UNL1       -0.2701
      2 C          62.9120   90.0053   11.5672 C.2     1  UNL1        0.2483
      3 N          63.3104   90.5072   12.8544 N.am    1  UNL1       -0.2945
      4 H          62.6639   90.3756   13.6630 H       1  UNL1        0.1501
      5 C          61.7288   89.1300   11.4301 C.ar    1  UNL1        0.0808
      6 C          61.4163   88.5977   10.1688 C.ar    1  UNL1        0.0080
      7 C          60.3687   87.6863   10.0226 C.ar    1  UNL1        0.0148
      8 C          59.6015   87.3031   11.1322 C.ar    1  UNL1        0.0502
      9 C          59.8881   87.8618   12.3879 C.ar    1  UNL1        0.0443
     10 C          60.9379   88.7730   12.5384 C.ar    1  UNL1        0.1457
     11 F          61.1555   89.3220   13.7600 F       1  UNL1       -0.2040
     12 N          58.5606   86.3186   10.9917 N.pl3   1  UNL1       -0.3040
     13 C          58.4636   85.5462    9.7422 C.3     1  UNL1        0.1122
     14 C          57.4991   84.3648    9.8907 C.3     1  UNL1        0.1122
     15 N          57.7251   83.7018   11.1830 N.pl3   1  UNL1       -0.3041
     16 C          57.7315   84.5007   12.4197 C.3     1  UNL1        0.1122
     17 C          57.6677   86.0021   12.1154 C.3     1  UNL1        0.1122
     18 C          58.0319   82.2958   11.2450 C.ar    1  UNL1        0.0479
     19 C          57.9626   81.5017   10.0889 C.ar    1  UNL1        0.0145
     20 C          58.2606   80.1394   10.1502 C.ar    1  UNL1        0.0012
     21 C          58.6431   79.5574   11.3605 C.ar    1  UNL1        0.0039
     22 C          58.7524   80.3405   12.5223 C.ar    1  UNL1        0.0726
     23 C          58.4247   81.7068   12.4591 C.ar    1  UNL1        0.0184
     24 C          59.1187   79.7055   13.8404 C.3     1  UNL1        0.4186
     25 F          58.4239   80.3341   14.8568 F       1  UNL1       -0.1659
     26 F          60.4767   79.8278   14.0795 F       1  UNL1       -0.1659
     27 F          58.7995   78.3587   13.8419 F       1  UNL1       -0.1659
     28 C          64.7085   90.8259   13.1644 C.3     1  UNL1        0.1535
     29 C          65.1807   91.9639   12.2977 C.2     1  UNL1        0.2443
     30 O          64.9039   93.1466   12.6369 O.2     1  UNL1       -0.2730
     31 N          65.8785   91.7085   11.0663 N.am    1  UNL1       -0.2825
     32 H          65.8097   90.7531   10.6492 H       1  UNL1        0.1549
     33 C          66.5806   92.7149   10.3170 C.ar    1  UNL1        0.0535
     34 C          67.9250   92.5091    9.9780 C.ar    1  UNL1        0.0353
     35 C          68.6188   93.4940    9.2709 C.ar    1  UNL1        0.1002
     36 N          67.9970   94.6530    8.9283 N.ar    1  UNL1       -0.2422
     37 C          66.7004   94.8902    9.2599 C.ar    1  UNL1        0.1002
     38 C          65.9698   93.9310    9.9659 C.ar    1  UNL1        0.0353
     39 C          64.8614   91.1810   14.6553 C.3     1  UNL1        0.0569
     40 C          64.0460   90.2636   15.5228 C.ar    1  UNL1       -0.0017
     41 C          63.3746   90.6145   16.6900 C.ar    1  UNL1        0.0681
     42 N          62.8536   89.5167   17.2840 N.ar    1  UNL1       -0.3523
     43 C          63.2016   88.4740   16.5103 C.ar    1  UNL1        0.0563
     44 C          62.9335   87.1252   16.7413 C.ar    1  UNL1        0.0170
     45 C          63.4387   86.1871   15.8229 C.ar    1  UNL1        0.0015
     46 C          64.1968   86.6121   14.7099 C.ar    1  UNL1        0.0001
     47 C          64.4514   87.9800   14.5013 C.ar    1  UNL1        0.0012
     48 C          63.9328   88.8883   15.4263 C.ar    1  UNL1        0.0131
     49 H          62.3164   89.4863   18.1790 H       1  UNL1        0.1660
@<TRIPOS>BOND
     1     1     2    2
     2     2     3   am
     3     3    28    1
     4    28    39    1
     5    39    40    1
     6    40    41   ar
     7    41    42   ar
     8    42    43   ar
     9    43    44   ar
    10    44    45   ar
    11    45    46   ar
    12    46    47   ar
    13    47    48   ar
    14    28    29    1
    15    29    30    2
    16    29    31   am
    17    31    33    1
    18    33    34   ar
    19    34    35   ar
    20    35    36   ar
    21    36    37   ar
    22    37    38   ar
    23     2     5    1
    24     5     6   ar
    25     6     7   ar
    26     7     8   ar
    27     8    12    1
    28    12    13    1
    29    13    14    1
    30    14    15    1
    31    15    18    1
    32    18    19   ar
    33    19    20   ar
    34    20    21   ar
    35    21    22   ar
    36    22    24    1
    37    24    25    1
    38    24    26    1
    39    24    27    1
    40    22    23   ar
    41    15    16    1
    42    16    17    1
    43     8     9   ar
    44     9    10   ar
    45    10    11    1
    46    48    40   ar
    47    38    33   ar
    48    10     5   ar
    49    48    43   ar
    50    17    12    1
    51    23    18   ar
    52     3     4    1
    53    42    49    1
    54    31    32    1
@<TRIPOS>MOLECULE
*****
 49 54 0 0 0
SMALL
GASTEIGER

@<TRIPOS>ATOM
      1 O          64.2172   89.0484   15.5128 O.2     1  UNL1       -0.2701
      2 C          64.1629   88.5697   14.3472 C.2     1  UNL1        0.2483
      3 N          64.3243   89.4334   13.2089 N.am    1  UNL1       -0.2945
      4 H          64.3641   89.0039   12.2586 H       1  UNL1        0.1501
      5 C          63.8356   87.1391   14.1705 C.ar    1  UNL1        0.0808
      6 C          62.6102   86.7871   13.5821 C.ar    1  UNL1        0.0080
      7 C          62.3131   85.4511   13.3059 C.ar    1  UNL1        0.0148
      8 C          63.2284   84.4391   13.6292 C.ar    1  UNL1        0.0502
      9 C          64.4388   84.7846   14.2512 C.ar    1  UNL1        0.0443
     10 C          64.7406   86.1217   14.5271 C.ar    1  UNL1        0.1457
     11 F          65.9019   86.4100   15.1671 F       1  UNL1       -0.2040
     12 N          62.9474   83.0686   13.2899 N.pl3   1  UNL1       -0.3040
     13 C          61.9485   82.3229   14.0732 C.3     1  UNL1        0.1122
     14 C          61.5782   81.0018   13.3909 C.3     1  UNL1        0.1122
     15 N          61.4079   81.2219   11.9476 N.pl3   1  UNL1       -0.3041
     16 C          62.4695   81.8987   11.1842 C.3     1  UNL1        0.1122
     17 C          63.5629   82.4441   12.1104 C.3     1  UNL1        0.1122
     18 C          60.1771   80.8666   11.2892 C.ar    1  UNL1        0.0479
     19 C          59.3626   79.8468   11.8076 C.ar    1  UNL1        0.0145
     20 C          58.1698   79.5037   11.1690 C.ar    1  UNL1        0.0012
     21 C          57.7699   80.1816   10.0155 C.ar    1  UNL1        0.0039
     22 C          58.5525   81.2285    9.4993 C.ar    1  UNL1        0.0726
     23 C          59.7664   81.5509   10.1324 C.ar    1  UNL1        0.0184
     24 C          58.1474   81.9301    8.2272 C.3     1  UNL1        0.4186
     25 F          57.3212   82.9940    8.5378 F       1  UNL1       -0.1659
     26 F          57.4701   81.0632    7.3870 F       1  UNL1       -0.1659
     27 F          59.2592   82.4047    7.5530 F       1  UNL1       -0.1659
     28 C          64.0397   90.8709   13.2788 C.3     1  UNL1        0.1535
     29 C          65.2092   91.6532   12.7405 C.2     1  UNL1        0.2443
     30 O          66.2376   91.7870   13.4582 O.2     1  UNL1       -0.2730
     31 N          65.1338   92.2963   11.4563 N.am    1  UNL1       -0.2825
     32 H          64.1897   92.4488   11.0356 H       1  UNL1        0.1549
     33 C          66.2699   92.8375   10.7608 C.ar    1  UNL1        0.0535
     34 C          67.3774   92.0167   10.5068 C.ar    1  UNL1        0.0353
     35 C          68.4935   92.5438    9.8528 C.ar    1  UNL1        0.1002
     36 N          68.5112   93.8507    9.4799 N.ar    1  UNL1       -0.2422
     37 C          67.4609   94.6765    9.7298 C.ar    1  UNL1        0.1002
     38 C          66.3245   94.1893   10.3806 C.ar    1  UNL1        0.0353
     39 C          62.7576   91.2042   12.4932 C.3     1  UNL1        0.0569
     40 C          62.3228   90.0467   11.6387 C.ar    1  UNL1       -0.0017
     41 C          62.8467   89.6958   10.3982 C.ar    1  UNL1        0.0681
     42 N          62.1339   88.6838    9.8530 N.ar    1  UNL1       -0.3523
     43 C          61.1561   88.4016   10.7311 C.ar    1  UNL1        0.0563
     44 C          60.1377   87.4602   10.5863 C.ar    1  UNL1        0.0170
     45 C          59.1804   87.3630   11.6123 C.ar    1  UNL1        0.0015
     46 C          59.2578   88.2030   12.7449 C.ar    1  UNL1        0.0001
     47 C          60.2970   89.1437   12.8649 C.ar    1  UNL1        0.0012
     48 C          61.2355   89.2138   11.8335 C.ar    1  UNL1        0.0131
     49 H          62.2955   88.2360    8.9236 H       1  UNL1        0.1660
@<TRIPOS>BOND
     1     1     2    2
     2     2     3   am
     3     3    28    1
     4    28    39    1
     5    39    40    1
     6    40    41   ar
     7    41    42   ar
     8    42    43   ar
     9    43    44   ar
    10    44    45   ar
    11    45    46   ar
    12    46    47   ar
    13    47    48   ar
    14    28    29    1
    15    29    30    2
    16    29    31   am
    17    31    33    1
    18    33    34   ar
    19    34    35   ar
    20    35    36   ar
    21    36    37   ar
    22    37    38   ar
    23     2     5    1
    24     5     6   ar
    25     6     7   ar
    26     7     8   ar
    27     8    12    1
    28    12    13    1
    29    13    14    1
    30    14    15    1
    31    15    18    1
    32    18    19   ar
    33    19    20   ar
    34    20    21   ar
    35    21    22   ar
    36    22    24    1
    37    24    25    1
    38    24    26    1
    39    24    27    1
    40    22    23   ar
    41    15    16    1
    42    16    17    1
    43     8     9   ar
    44     9    10   ar
    45    10    11    1
    46    48    40   ar
    47    38    33   ar
    48    10     5   ar
    49    48    43   ar
    50    17    12    1
    51    23    18   ar
    52     3     4    1
    53    42    49    1
    54    31    32    1
@<TRIPOS>MOLECULE
*****
 49 54 0 0 0
SMALL
GASTEIGER

@<TRIPOS>ATOM
      1 O          64.0816   91.0341   11.4217 O.2     1  UNL1       -0.2701
      2 C          63.0106   90.4523   11.7461 C.2     1  UNL1        0.2483
      3 N          62.4706   90.6281   13.0671 N.am    1  UNL1       -0.2945
      4 H          61.5397   90.2097   13.2852 H       1  UNL1        0.1501
      5 C          62.3798   89.5185   10.7895 C.ar    1  UNL1        0.0808
      6 C          62.9824   88.2722   10.5544 C.ar    1  UNL1        0.0080
      7 C          62.3606   87.3259    9.7376 C.ar    1  UNL1        0.0148
      8 C          61.1324   87.6144    9.1252 C.ar    1  UNL1        0.0502
      9 C          60.5457   88.8735    9.3288 C.ar    1  UNL1        0.0443
     10 C          61.1643   89.8227   10.1481 C.ar    1  UNL1        0.1457
     11 F          60.5860   91.0425   10.2854 F       1  UNL1       -0.2040
     12 N          60.4631   86.6169    8.3318 N.pl3   1  UNL1       -0.3040
     13 C          61.2049   85.4190    7.9051 C.3     1  UNL1        0.1122
     14 C          60.2628   84.3543    7.3334 C.3     1  UNL1        0.1122
     15 N          59.0644   84.2500    8.1781 N.pl3   1  UNL1       -0.3041
     16 C          58.3021   85.4644    8.5131 C.3     1  UNL1        0.1122
     17 C          59.0275   86.7286    8.0373 C.3     1  UNL1        0.1122
     18 C          58.6797   82.9886    8.7573 C.ar    1  UNL1        0.0479
     19 C          58.1025   81.9871    7.9598 C.ar    1  UNL1        0.0145
     20 C          57.7305   80.7649    8.5221 C.ar    1  UNL1        0.0012
     21 C          57.9418   80.5232    9.8811 C.ar    1  UNL1        0.0039
     22 C          58.5496   81.4984   10.6902 C.ar    1  UNL1        0.0726
     23 C          58.8971   82.7376   10.1229 C.ar    1  UNL1        0.0184
     24 C          58.7352   81.2585   12.1676 C.3     1  UNL1        0.4186
     25 F          58.3409   79.9690   12.4721 F       1  UNL1       -0.1659
     26 F          57.9744   82.1490   12.9053 F       1  UNL1       -0.1659
     27 F          60.0616   81.4214   12.5284 F       1  UNL1       -0.1659
     28 C          63.3137   91.0074   14.2062 C.3     1  UNL1        0.1535
     29 C          63.1701   89.9942   15.3118 C.2     1  UNL1        0.2443
     30 O          62.8599   90.3907   16.4681 O.2     1  UNL1       -0.2730
     31 N          63.4471   88.6032   15.0734 N.am    1  UNL1       -0.2825
     32 H          64.0043   88.3490   14.2270 H       1  UNL1        0.1549
     33 C          63.0949   87.5465   15.9828 C.ar    1  UNL1        0.0535
     34 C          62.6994   86.3021   15.4731 C.ar    1  UNL1        0.0353
     35 C          62.3331   85.2795   16.3514 C.ar    1  UNL1        0.1002
     36 N          62.3444   85.4965   17.6931 N.ar    1  UNL1       -0.2422
     37 C          62.7039   86.6982   18.2168 C.ar    1  UNL1        0.1002
     38 C          63.0785   87.7475   17.3736 C.ar    1  UNL1        0.0353
     39 C          64.7857   91.1275   13.7695 C.3     1  UNL1        0.0569
     40 C          65.6206   91.7827   14.8337 C.ar    1  UNL1       -0.0017
     41 C          65.1499   92.3775   16.0004 C.ar    1  UNL1        0.0681
     42 N          66.1613   92.9822   16.6642 N.ar    1  UNL1       -0.3523
     43 C          67.2641   92.7871   15.9207 C.ar    1  UNL1        0.0563
     44 C          68.5482   93.2684   16.1732 C.ar    1  UNL1        0.0170
     45 C          69.5536   92.9877   15.2303 C.ar    1  UNL1        0.0015
     46 C          69.2557   92.2456   14.0663 C.ar    1  UNL1        0.0001
     47 C          67.9509   91.7718   13.8376 C.ar    1  UNL1        0.0012
     48 C          66.9750   92.0612   14.7933 C.ar    1  UNL1        0.0131
     49 H          66.0899   93.5177   17.5578 H       1  UNL1        0.1660
@<TRIPOS>BOND
     1     1     2    2
     2     2     3   am
     3     3    28    1
     4    28    39    1
     5    39    40    1
     6    40    41   ar
     7    41    42   ar
     8    42    43   ar
     9    43    44   ar
    10    44    45   ar
    11    45    46   ar
    12    46    47   ar
    13    47    48   ar
    14    28    29    1
    15    29    30    2
    16    29    31   am
    17    31    33    1
    18    33    34   ar
    19    34    35   ar
    20    35    36   ar
    21    36    37   ar
    22    37    38   ar
    23     2     5    1
    24     5     6   ar
    25     6     7   ar
    26     7     8   ar
    27     8    12    1
    28    12    13    1
    29    13    14    1
    30    14    15    1
    31    15    18    1
    32    18    19   ar
    33    19    20   ar
    34    20    21   ar
    35    21    22   ar
    36    22    24    1
    37    24    25    1
    38    24    26    1
    39    24    27    1
    40    22    23   ar
    41    15    16    1
    42    16    17    1
    43     8     9   ar
    44     9    10   ar
    45    10    11    1
    46    48    40   ar
    47    38    33   ar
    48    10     5   ar
    49    48    43   ar
    50    17    12    1
    51    23    18   ar
    52     3     4    1
    53    42    49    1
    54    31    32    1
@<TRIPOS>MOLECULE
*****
 49 54 0 0 0
SMALL
GASTEIGER

@<TRIPOS>ATOM
      1 O          63.5921   90.5485   10.1187 O.2     1  UNL1       -0.2701
      2 C          62.6120   90.0354   10.7245 C.2     1  UNL1        0.2483
      3 N          62.2794   90.4755   12.0523 N.am    1  UNL1       -0.2945
      4 H          61.4136   90.1018   12.4995 H       1  UNL1        0.1501
      5 C          61.8800   88.9173   10.0929 C.ar    1  UNL1        0.0808
      6 C          62.4897   87.6541   10.0255 C.ar    1  UNL1        0.0080
      7 C          61.7887   86.5530    9.5301 C.ar    1  UNL1        0.0148
      8 C          60.4700   86.6973    9.0754 C.ar    1  UNL1        0.0502
      9 C          59.8705   87.9664    9.1073 C.ar    1  UNL1        0.0443
     10 C          60.5686   89.0709    9.6050 C.ar    1  UNL1        0.1457
     11 F          59.9689   90.2878    9.5796 F       1  UNL1       -0.2040
     12 N          59.7278   85.5507    8.6207 N.pl3   1  UNL1       -0.3040
     13 C          60.4565   84.3592    8.1553 C.3     1  UNL1        0.1122
     14 C          59.5176   83.1589    7.9947 C.3     1  UNL1        0.1122
     15 N          58.5991   83.0933    9.1404 N.pl3   1  UNL1       -0.3041
     16 C          57.8251   84.2863    9.5220 C.3     1  UNL1        0.1122
     17 C          58.2617   85.5166    8.7178 C.3     1  UNL1        0.1122
     18 C          58.5161   81.9049    9.9500 C.ar    1  UNL1        0.0479
     19 C          57.8181   80.7775    9.4876 C.ar    1  UNL1        0.0145
     20 C          57.7387   79.6262   10.2729 C.ar    1  UNL1        0.0012
     21 C          58.3647   79.5818   11.5203 C.ar    1  UNL1        0.0039
     22 C          59.0974   80.6863   11.9874 C.ar    1  UNL1        0.0726
     23 C          59.1507   81.8525   11.2029 C.ar    1  UNL1        0.0184
     24 C          59.7341   80.6585   13.3543 C.3     1  UNL1        0.4186
     25 F          58.7966   80.2500   14.2845 F       1  UNL1       -0.1659
     26 F          60.1965   81.9160   13.7022 F       1  UNL1       -0.1659
     27 F          60.8053   79.7822   13.3791 F       1  UNL1       -0.1659
     28 C          63.2738   91.0912   12.9379 C.3     1  UNL1        0.1535
     29 C          63.3838   90.3007   14.2156 C.2     1  UNL1        0.2443
     30 O          63.2603   90.9004   15.3182 O.2     1  UNL1       -0.2730
     31 N          63.6915   88.8961   14.1858 N.am    1  UNL1       -0.2825
     32 H          64.1043   88.4999   13.3116 H       1  UNL1        0.1549
     33 C          63.5642   88.0215   15.3199 C.ar    1  UNL1        0.0535
     34 C          63.9447   86.6778   15.1999 C.ar    1  UNL1        0.0353
     35 C          63.8007   85.8180   16.2914 C.ar    1  UNL1        0.1002
     36 N          63.2785   86.2791   17.4584 N.ar    1  UNL1       -0.2422
     37 C          62.8821   87.5715   17.5993 C.ar    1  UNL1        0.1002
     38 C          63.0099   88.4651   16.5328 C.ar    1  UNL1        0.0353
     39 C          64.6412   91.1763   12.2344 C.3     1  UNL1        0.0569
     40 C          65.4614   92.3170   12.7684 C.ar    1  UNL1       -0.0017
     41 C          65.6877   93.5358   12.1362 C.ar    1  UNL1        0.0681
     42 N          66.5759   94.2752   12.8389 N.ar    1  UNL1       -0.3523
     43 C          66.9234   93.5292   13.9016 C.ar    1  UNL1        0.0563
     44 C          67.8533   93.8498   14.8901 C.ar    1  UNL1        0.0170
     45 C          68.1048   92.8949   15.8918 C.ar    1  UNL1        0.0015
     46 C          67.4335   91.6525   15.8807 C.ar    1  UNL1        0.0001
     47 C          66.4995   91.3560   14.8711 C.ar    1  UNL1        0.0012
     48 C          66.2665   92.3251   13.8933 C.ar    1  UNL1        0.0131
     49 H          66.9388   95.2214   12.5868 H       1  UNL1        0.1660
@<TRIPOS>BOND
     1     1     2    2
     2     2     3   am
     3     3    28    1
     4    28    39    1
     5    39    40    1
     6    40    41   ar
     7    41    42   ar
     8    42    43   ar
     9    43    44   ar
    10    44    45   ar
    11    45    46   ar
    12    46    47   ar
    13    47    48   ar
    14    28    29    1
    15    29    30    2
    16    29    31   am
    17    31    33    1
    18    33    34   ar
    19    34    35   ar
    20    35    36   ar
    21    36    37   ar
    22    37    38   ar
    23     2     5    1
    24     5     6   ar
    25     6     7   ar
    26     7     8   ar
    27     8    12    1
    28    12    13    1
    29    13    14    1
    30    14    15    1
    31    15    18    1
    32    18    19   ar
    33    19    20   ar
    34    20    21   ar
    35    21    22   ar
    36    22    24    1
    37    24    25    1
    38    24    26    1
    39    24    27    1
    40    22    23   ar
    41    15    16    1
    42    16    17    1
    43     8     9   ar
    44     9    10   ar
    45    10    11    1
    46    48    40   ar
    47    38    33   ar
    48    10     5   ar
    49    48    43   ar
    50    17    12    1
    51    23    18   ar
    52     3     4    1
    53    42    49    1
    54    31    32    1
@<TRIPOS>MOLECULE
*****
 49 54 0 0 0
SMALL
GASTEIGER

@<TRIPOS>ATOM
      1 O          60.7088   85.8596    7.9958 O.2     1  UNL1       -0.2701
      2 C          60.8289   85.9709    9.2464 C.2     1  UNL1        0.2483
      3 N          60.1977   85.0151   10.1155 N.am    1  UNL1       -0.2945
      4 H          60.3828   85.0747   11.1408 H       1  UNL1        0.1501
      5 C          61.5384   87.1435    9.8003 C.ar    1  UNL1        0.0808
      6 C          61.4116   88.3847    9.1561 C.ar    1  UNL1        0.0080
      7 C          61.9826   89.5328    9.7086 C.ar    1  UNL1        0.0148
      8 C          62.7072   89.4588   10.9070 C.ar    1  UNL1        0.0502
      9 C          62.8668   88.2128   11.5340 C.ar    1  UNL1        0.0443
     10 C          62.2943   87.0614   10.9849 C.ar    1  UNL1        0.1457
     11 F          62.5073   85.8702   11.5987 F       1  UNL1       -0.2040
     12 N          63.2445   90.6520   11.5070 N.pl3   1  UNL1       -0.3040
     13 C          63.4265   90.7050   12.9669 C.3     1  UNL1        0.1122
     14 C          64.2684   91.9168   13.3800 C.3     1  UNL1        0.1122
     15 N          65.4074   92.0630   12.4625 N.pl3   1  UNL1       -0.3041
     16 C          65.1727   92.0892   11.0092 C.3     1  UNL1        0.1122
     17 C          63.7114   91.7687   10.6733 C.3     1  UNL1        0.1122
     18 C          66.7576   92.0882   12.9636 C.ar    1  UNL1        0.0479
     19 C          67.8290   91.7103   12.1382 C.ar    1  UNL1        0.0145
     20 C          69.1371   91.7355   12.6248 C.ar    1  UNL1        0.0012
     21 C          69.3921   92.1499   13.9337 C.ar    1  UNL1        0.0039
     22 C          68.3384   92.5652   14.7657 C.ar    1  UNL1        0.0726
     23 C          67.0203   92.5116   14.2777 C.ar    1  UNL1        0.0184
     24 C          68.6056   92.9675   16.1944 C.3     1  UNL1        0.4186
     25 F          67.4684   92.7479   16.9491 F       1  UNL1       -0.1659
     26 F          68.9441   94.3077   16.2682 F       1  UNL1       -0.1659
     27 F          69.6487   92.2287   16.7255 F       1  UNL1       -0.1659
     28 C          59.0272   84.2374    9.6942 C.3     1  UNL1        0.1535
     29 C          59.1807   82.8025   10.1266 C.2     1  UNL1        0.2443
     30 O          60.1959   82.1557    9.7502 O.2     1  UNL1       -0.2730
     31 N          58.1557   82.1552   10.9005 N.am    1  UNL1       -0.2825
     32 H          57.2050   82.5878   10.9201 H       1  UNL1        0.1549
     33 C          58.3282   80.8920   11.5654 C.ar    1  UNL1        0.0535
     34 C          58.7788   80.8678   12.8925 C.ar    1  UNL1        0.0353
     35 C          58.9710   79.6427   13.5355 C.ar    1  UNL1        0.1002
     36 N          58.7379   78.4800   12.8713 N.ar    1  UNL1       -0.2422
     37 C          58.3194   78.4706   11.5782 C.ar    1  UNL1        0.1002
     38 C          58.1136   79.6738   10.8983 C.ar    1  UNL1        0.0353
     39 C          57.7387   84.8446   10.2799 C.3     1  UNL1        0.0569
     40 C          57.9543   85.3361   11.6838 C.ar    1  UNL1       -0.0017
     41 C          57.5960   84.6724   12.8532 C.ar    1  UNL1        0.0681
     42 N          57.8178   85.4596   13.9305 N.ar    1  UNL1       -0.3523
     43 C          58.2996   86.6195   13.4515 C.ar    1  UNL1        0.0563
     44 C          58.6314   87.7608   14.1807 C.ar    1  UNL1        0.0170
     45 C          59.0723   88.8913   13.4693 C.ar    1  UNL1        0.0015
     46 C          59.1654   88.8587   12.0605 C.ar    1  UNL1        0.0001
     47 C          58.8245   87.6929   11.3505 C.ar    1  UNL1        0.0012
     48 C          58.3953   86.5849   12.0836 C.ar    1  UNL1        0.0131
     49 H          57.6237   85.2215   14.9285 H       1  UNL1        0.1660
@<TRIPOS>BOND
     1     1     2    2
     2     2     3   am
     3     3    28    1
     4    28    39    1
     5    39    40    1
     6    40    41   ar
     7    41    42   ar
     8    42    43   ar
     9    43    44   ar
    10    44    45   ar
    11    45    46   ar
    12    46    47   ar
    13    47    48   ar
    14    28    29    1
    15    29    30    2
    16    29    31   am
    17    31    33    1
    18    33    34   ar
    19    34    35   ar
    20    35    36   ar
    21    36    37   ar
    22    37    38   ar
    23     2     5    1
    24     5     6   ar
    25     6     7   ar
    26     7     8   ar
    27     8    12    1
    28    12    13    1
    29    13    14    1
    30    14    15    1
    31    15    18    1
    32    18    19   ar
    33    19    20   ar
    34    20    21   ar
    35    21    22   ar
    36    22    24    1
    37    24    25    1
    38    24    26    1
    39    24    27    1
    40    22    23   ar
    41    15    16    1
    42    16    17    1
    43     8     9   ar
    44     9    10   ar
    45    10    11    1
    46    48    40   ar
    47    38    33   ar
    48    10     5   ar
    49    48    43   ar
    50    17    12    1
    51    23    18   ar
    52     3     4    1
    53    42    49    1
    54    31    32    1
@<TRIPOS>MOLECULE
*****
 49 54 0 0 0
SMALL
GASTEIGER

@<TRIPOS>ATOM
      1 O          64.1492   88.1990   15.9068 O.2     1  UNL1       -0.2701
      2 C          64.1992   87.8941   14.6840 C.2     1  UNL1        0.2483
      3 N          64.4159   88.9178   13.6978 N.am    1  UNL1       -0.2945
      4 H          64.5417   88.6323   12.7019 H       1  UNL1        0.1501
      5 C          63.9353   86.4973   14.2786 C.ar    1  UNL1        0.0808
      6 C          64.1844   85.4623   15.1943 C.ar    1  UNL1        0.0080
      7 C          63.8500   84.1431   14.8828 C.ar    1  UNL1        0.0148
      8 C          63.2764   83.8304   13.6419 C.ar    1  UNL1        0.0502
      9 C          63.0602   84.8580   12.7099 C.ar    1  UNL1        0.0443
     10 C          63.3916   86.1806   13.0194 C.ar    1  UNL1        0.1457
     11 F          63.2061   87.1379   12.0758 F       1  UNL1       -0.2040
     12 N          62.8770   82.4797   13.3448 N.pl3   1  UNL1       -0.3040
     13 C          61.7596   81.8783   14.0911 C.3     1  UNL1        0.1122
     14 C          61.2981   80.5682   13.4439 C.3     1  UNL1        0.1122
     15 N          61.2417   80.7312   11.9842 N.pl3   1  UNL1       -0.3041
     16 C          62.4131   81.2589   11.2649 C.3     1  UNL1        0.1122
     17 C          63.4971   81.7379   12.2377 C.3     1  UNL1        0.1122
     18 C          60.0242   80.4684   11.2608 C.ar    1  UNL1        0.0479
     19 C          59.1537   79.4499   11.6812 C.ar    1  UNL1        0.0145
     20 C          57.9739   79.1964   10.9797 C.ar    1  UNL1        0.0012
     21 C          57.6431   79.9633    9.8606 C.ar    1  UNL1        0.0039
     22 C          58.4827   81.0100    9.4430 C.ar    1  UNL1        0.0726
     23 C          59.6830   81.2423   10.1384 C.ar    1  UNL1        0.0184
     24 C          58.1520   81.8084    8.2070 C.3     1  UNL1        0.4186
     25 F          57.5301   80.9855    7.2867 F       1  UNL1       -0.1659
     26 F          59.3029   82.3294    7.6410 F       1  UNL1       -0.1659
     27 F          57.3070   82.8609    8.5140 F       1  UNL1       -0.1659
     28 C          64.0777   90.3228   13.9503 C.3     1  UNL1        0.1535
     29 C          65.1593   91.2180   13.4041 C.2     1  UNL1        0.2443
     30 O          66.2711   91.2659   13.9976 O.2     1  UNL1       -0.2730
     31 N          64.9109   92.0578   12.2632 N.am    1  UNL1       -0.2825
     32 H          63.9186   92.2469   11.9965 H       1  UNL1        0.1549
     33 C          65.9413   92.7395   11.5278 C.ar    1  UNL1        0.0535
     34 C          65.9056   94.1371   11.4263 C.ar    1  UNL1        0.0353
     35 C          66.8907   94.8027   10.6929 C.ar    1  UNL1        0.1002
     36 N          67.8691   94.0965   10.0673 N.ar    1  UNL1       -0.2422
     37 C          67.9191   92.7397   10.1308 C.ar    1  UNL1        0.1002
     38 C          66.9540   92.0349   10.8547 C.ar    1  UNL1        0.0353
     39 C          62.7168   90.6705   13.3186 C.3     1  UNL1        0.0569
     40 C          61.6685   89.6578   13.6856 C.ar    1  UNL1       -0.0017
     41 C          61.3773   89.2010   14.9674 C.ar    1  UNL1        0.0681
     42 N          60.4708   88.1984   14.9174 N.ar    1  UNL1       -0.3523
     43 C          60.1973   88.0081   13.6152 C.ar    1  UNL1        0.0563
     44 C          59.3531   87.0458   13.0620 C.ar    1  UNL1        0.0170
     45 C          59.2501   86.9882   11.6603 C.ar    1  UNL1        0.0015
     46 C          59.9889   87.8794   10.8514 C.ar    1  UNL1        0.0001
     47 C          60.8327   88.8409   11.4369 C.ar    1  UNL1        0.0012
     48 C          60.9107   88.8780   12.8305 C.ar    1  UNL1        0.0131
     49 H          60.0869   87.6625   15.7273 H       1  UNL1        0.1660
@<TRIPOS>BOND
     1     1     2    2
     2     2     3   am
     3     3    28    1
     4    28    39    1
     5    39    40    1
     6    40    41   ar
     7    41    42   ar
     8    42    43   ar
     9    43    44   ar
    10    44    45   ar
    11    45    46   ar
    12    46    47   ar
    13    47    48   ar
    14    28    29    1
    15    29    30    2
    16    29    31   am
    17    31    33    1
    18    33    34   ar
    19    34    35   ar
    20    35    36   ar
    21    36    37   ar
    22    37    38   ar
    23     2     5    1
    24     5     6   ar
    25     6     7   ar
    26     7     8   ar
    27     8    12    1
    28    12    13    1
    29    13    14    1
    30    14    15    1
    31    15    18    1
    32    18    19   ar
    33    19    20   ar
    34    20    21   ar
    35    21    22   ar
    36    22    24    1
    37    24    25    1
    38    24    26    1
    39    24    27    1
    40    22    23   ar
    41    15    16    1
    42    16    17    1
    43     8     9   ar
    44     9    10   ar
    45    10    11    1
    46    48    40   ar
    47    38    33   ar
    48    10     5   ar
    49    48    43   ar
    50    17    12    1
    51    23    18   ar
    52     3     4    1
    53    42    49    1
    54    31    32    1
@<TRIPOS>MOLECULE
*****
 49 54 0 0 0
SMALL
GASTEIGER

@<TRIPOS>ATOM
      1 O          59.5903   85.8495   10.8590 O.2     1  UNL1       -0.2701
      2 C          59.9495   86.6381    9.9425 C.2     1  UNL1        0.2483
      3 N          59.5616   86.3809    8.5821 N.am    1  UNL1       -0.2945
      4 H          59.7942   87.0916    7.8542 H       1  UNL1        0.1501
      5 C          60.8489   87.7639   10.2724 C.ar    1  UNL1        0.0808
      6 C          60.5857   89.0302    9.7257 C.ar    1  UNL1        0.0080
      7 C          61.3519   90.1368   10.0968 C.ar    1  UNL1        0.0148
      8 C          62.4081   89.9952   11.0084 C.ar    1  UNL1        0.0502
      9 C          62.6969   88.7235   11.5285 C.ar    1  UNL1        0.0443
     10 C          61.9302   87.6135   11.1610 C.ar    1  UNL1        0.1457
     11 F          62.2681   86.3949   11.6531 F       1  UNL1       -0.2040
     12 N          63.1591   91.1464   11.4361 N.pl3   1  UNL1       -0.3040
     13 C          63.3484   91.3888   12.8758 C.3     1  UNL1        0.1122
     14 C          64.4020   92.4731   13.1247 C.3     1  UNL1        0.1122
     15 N          65.5480   92.2636   12.2283 N.pl3   1  UNL1       -0.3041
     16 C          65.3217   92.1088   10.7817 C.3     1  UNL1        0.1122
     17 C          63.8261   92.0159   10.4568 C.3     1  UNL1        0.1122
     18 C          66.8792   92.1158   12.7580 C.ar    1  UNL1        0.0479
     19 C          67.9172   91.6306   11.9460 C.ar    1  UNL1        0.0145
     20 C          69.2070   91.4882   12.4602 C.ar    1  UNL1        0.0012
     21 C          69.4786   91.8400   13.7840 C.ar    1  UNL1        0.0039
     22 C          68.4626   92.3601   14.6038 C.ar    1  UNL1        0.0726
     23 C          67.1594   92.4756   14.0873 C.ar    1  UNL1        0.0184
     24 C          68.7420   92.6958   16.0474 C.3     1  UNL1        0.4186
     25 F          67.5804   92.5471   16.7820 F       1  UNL1       -0.1659
     26 F          69.1873   94.0011   16.1668 F       1  UNL1       -0.1659
     27 F          69.7142   91.8586   16.5667 F       1  UNL1       -0.1659
     28 C          59.2251   85.0323    8.1126 C.3     1  UNL1        0.1535
     29 C          60.3967   84.1084    8.3206 C.2     1  UNL1        0.2443
     30 O          60.8626   83.4795    7.3316 O.2     1  UNL1       -0.2730
     31 N          60.9364   83.8917    9.6359 N.am    1  UNL1       -0.2825
     32 H          60.3490   84.1529   10.4595 H       1  UNL1        0.1549
     33 C          62.1927   83.2407    9.8916 C.ar    1  UNL1        0.0535
     34 C          62.2101   81.8734   10.1997 C.ar    1  UNL1        0.0353
     35 C          63.4255   81.2412   10.4726 C.ar    1  UNL1        0.1002
     36 N          64.5833   81.9530   10.4556 N.ar    1  UNL1       -0.2422
     37 C          64.5965   83.2839   10.1799 C.ar    1  UNL1        0.1002
     38 C          63.4032   83.9547    9.9002 C.ar    1  UNL1        0.0353
     39 C          57.9800   84.5019    8.8477 C.3     1  UNL1        0.0569
     40 C          58.0275   83.0070    8.9963 C.ar    1  UNL1       -0.0017
     41 C          57.7284   82.0712    8.0108 C.ar    1  UNL1        0.0681
     42 N          57.7477   80.8203    8.5251 N.ar    1  UNL1       -0.3523
     43 C          58.0424   80.9583    9.8293 C.ar    1  UNL1        0.0563
     44 C          58.1265   79.9482   10.7870 C.ar    1  UNL1        0.0170
     45 C          58.3991   80.3218   12.1154 C.ar    1  UNL1        0.0015
     46 C          58.5740   81.6814   12.4548 C.ar    1  UNL1        0.0001
     47 C          58.4843   82.6797   11.4675 C.ar    1  UNL1        0.0012
     48 C          58.2180   82.2787   10.1569 C.ar    1  UNL1        0.0131
     49 H          57.5440   79.9322    8.0151 H       1  UNL1        0.1660
@<TRIPOS>BOND
     1     1     2    2
     2     2     3   am
     3     3    28    1
     4    28    39    1
     5    39    40    1
     6    40    41   ar
     7    41    42   ar
     8    42    43   ar
     9    43    44   ar
    10    44    45   ar
    11    45    46   ar
    12    46    47   ar
    13    47    48   ar
    14    28    29    1
    15    29    30    2
    16    29    31   am
    17    31    33    1
    18    33    34   ar
    19    34    35   ar
    20    35    36   ar
    21    36    37   ar
    22    37    38   ar
    23     2     5    1
    24     5     6   ar
    25     6     7   ar
    26     7     8   ar
    27     8    12    1
    28    12    13    1
    29    13    14    1
    30    14    15    1
    31    15    18    1
    32    18    19   ar
    33    19    20   ar
    34    20    21   ar
    35    21    22   ar
    36    22    24    1
    37    24    25    1
    38    24    26    1
    39    24    27    1
    40    22    23   ar
    41    15    16    1
    42    16    17    1
    43     8     9   ar
    44     9    10   ar
    45    10    11    1
    46    48    40   ar
    47    38    33   ar
    48    10     5   ar
    49    48    43   ar
    50    17    12    1
    51    23    18   ar
    52     3     4    1
    53    42    49    1
    54    31    32    1
@<TRIPOS>MOLECULE
*****
 49 54 0 0 0
SMALL
GASTEIGER

@<TRIPOS>ATOM
      1 O          63.2320   91.1218   10.9060 O.2     1  UNL1       -0.2701
      2 C          62.9365   90.0673   11.5316 C.2     1  UNL1        0.2483
      3 N          63.3124   89.9230   12.9120 N.am    1  UNL1       -0.2945
      4 H          62.9814   89.0820   13.4338 H       1  UNL1        0.1501
      5 C          62.2922   88.9541   10.8031 C.ar    1  UNL1        0.0808
      6 C          62.5020   87.6377   11.2446 C.ar    1  UNL1        0.0080
      7 C          61.8279   86.5720   10.6450 C.ar    1  UNL1        0.0148
      8 C          60.9445   86.8001    9.5801 C.ar    1  UNL1        0.0502
      9 C          60.7609   88.1111    9.1125 C.ar    1  UNL1        0.0443
     10 C          61.4323   89.1810    9.7120 C.ar    1  UNL1        0.1457
     11 F          61.2600   90.4271    9.2034 F       1  UNL1       -0.2040
     12 N          60.2049   85.7087    9.0021 N.pl3   1  UNL1       -0.3040
     13 C          60.9269   84.5065    8.5543 C.3     1  UNL1        0.1122
     14 C          59.9604   83.3578    8.2470 C.3     1  UNL1        0.1122
     15 N          58.9308   83.2850    9.2936 N.pl3   1  UNL1       -0.3041
     16 C          58.1721   84.4944    9.6536 C.3     1  UNL1        0.1122
     17 C          58.7361   85.7368    8.9544 C.3     1  UNL1        0.1122
     18 C          58.7195   82.0681   10.0346 C.ar    1  UNL1        0.0479
     19 C          57.9063   81.0497    9.5113 C.ar    1  UNL1        0.0145
     20 C          57.7026   79.8706   10.2301 C.ar    1  UNL1        0.0012
     21 C          58.3172   79.6887   11.4708 C.ar    1  UNL1        0.0039
     22 C          59.1624   80.6803   11.9972 C.ar    1  UNL1        0.0726
     23 C          59.3417   81.8770   11.2801 C.ar    1  UNL1        0.0184
     24 C          59.7891   80.5070   13.3581 C.3     1  UNL1        0.4186
     25 F          60.7918   79.5587   13.2797 F       1  UNL1       -0.1659
     26 F          58.8445   80.0897   14.2799 F       1  UNL1       -0.1659
     27 F          60.3308   81.7000   13.8045 F       1  UNL1       -0.1659
     28 C          64.4348   90.6681   13.4927 C.3     1  UNL1        0.1535
     29 C          64.8398   91.7887   12.5709 C.2     1  UNL1        0.2443
     30 O          64.2985   92.9195   12.7084 O.2     1  UNL1       -0.2730
     31 N          65.7790   91.5603   11.5060 N.am    1  UNL1       -0.2825
     32 H          65.9586   90.5747   11.2094 H       1  UNL1        0.1549
     33 C          66.4094   92.6097   10.7517 C.ar    1  UNL1        0.0535
     34 C          65.7267   93.8167   10.5470 C.ar    1  UNL1        0.0353
     35 C          66.3246   94.8306    9.7948 C.ar    1  UNL1        0.1002
     36 N          67.5553   94.6403    9.2504 N.ar    1  UNL1       -0.2422
     37 C          68.2337   93.4740    9.4146 C.ar    1  UNL1        0.1002
     38 C          67.6724   92.4346   10.1608 C.ar    1  UNL1        0.0353
     39 C          64.0547   91.2186   14.8800 C.3     1  UNL1        0.0569
     40 C          65.2320   91.8664   15.5532 C.ar    1  UNL1       -0.0017
     41 C          65.1942   92.6575   16.6973 C.ar    1  UNL1        0.0681
     42 N          66.4150   93.1825   16.9497 N.ar    1  UNL1       -0.3523
     43 C          67.2202   92.7418   15.9678 C.ar    1  UNL1        0.0563
     44 C          68.5646   93.0569   15.7736 C.ar    1  UNL1        0.0170
     45 C          69.2093   92.5227   14.6433 C.ar    1  UNL1        0.0015
     46 C          68.5028   91.6994   13.7391 C.ar    1  UNL1        0.0001
     47 C          67.1467   91.3974   13.9605 C.ar    1  UNL1        0.0012
     48 C          66.5348   91.9374   15.0934 C.ar    1  UNL1        0.0131
     49 H          66.6689   93.8247   17.7330 H       1  UNL1        0.1660
@<TRIPOS>BOND
     1     1     2    2
     2     2     3   am
     3     3    28    1
     4    28    39    1
     5    39    40    1
     6    40    41   ar
     7    41    42   ar
     8    42    43   ar
     9    43    44   ar
    10    44    45   ar
    11    45    46   ar
    12    46    47   ar
    13    47    48   ar
    14    28    29    1
    15    29    30    2
    16    29    31   am
    17    31    33    1
    18    33    34   ar
    19    34    35   ar
    20    35    36   ar
    21    36    37   ar
    22    37    38   ar
    23     2     5    1
    24     5     6   ar
    25     6     7   ar
    26     7     8   ar
    27     8    12    1
    28    12    13    1
    29    13    14    1
    30    14    15    1
    31    15    18    1
    32    18    19   ar
    33    19    20   ar
    34    20    21   ar
    35    21    22   ar
    36    22    24    1
    37    24    25    1
    38    24    26    1
    39    24    27    1
    40    22    23   ar
    41    15    16    1
    42    16    17    1
    43     8     9   ar
    44     9    10   ar
    45    10    11    1
    46    48    40   ar
    47    38    33   ar
    48    10     5   ar
    49    48    43   ar
    50    17    12    1
    51    23    18   ar
    52     3     4    1
    53    42    49    1
    54    31    32    1
