@<TRIPOS>MOLECULE
*****
 52 57 0 0 0
SMALL
GASTEIGER

@<TRIPOS>ATOM
      1 C          59.8598   87.9418    7.5803 C.ar    1  UNL1        0.0502
      2 C          59.2215   86.7053    7.7579 C.ar    1  UNL1        0.0148
      3 C          59.2035   86.0928    9.0132 C.ar    1  UNL1        0.0080
      4 C          59.8335   86.6969   10.1154 C.ar    1  UNL1        0.0808
      5 C          60.4651   87.9452    9.9375 C.ar    1  UNL1        0.1457
      6 F          61.0344   88.6019   10.9789 F       1  UNL1       -0.2040
      7 C          60.4785   88.5552    8.6791 C.ar    1  UNL1        0.0443
      8 N          60.1539   90.2288    4.0670 N.pl3   1  UNL1       -0.2897
      9 C          59.0930   90.5371    5.0336 C.3     1  UNL1        0.1136
     10 C          58.6889   89.2719    5.7912 C.3     1  UNL1        0.1123
     11 N          59.8828   88.5783    6.2888 N.pl3   1  UNL1       -0.3040
     12 C          60.9464   88.2703    5.3258 C.3     1  UNL1        0.1123
     13 C          61.3487   89.5368    4.5694 C.3     1  UNL1        0.1136
     14 C          61.4615   91.6037    0.8943 C.ar    1  UNL1        0.0941
     15 N          61.3429   90.9445    2.0809 N.ar    1  UNL1       -0.2326
     16 C          60.1963   90.9327    2.8117 C.ar    1  UNL1        0.1314
     17 C          59.0834   91.6395    2.3461 C.ar    1  UNL1        0.0343
     18 C          59.1567   92.3133    1.1286 C.ar    1  UNL1        0.0080
     19 C          60.3373   92.2895    0.3639 C.ar    1  UNL1        0.0875
     20 C          60.3977   93.0355   -0.9553 C.3     1  UNL1        0.4197
     21 F          61.5185   93.8451   -1.0315 F       1  UNL1       -0.1658
     22 F          60.4449   92.1278   -1.9972 F       1  UNL1       -0.1658
     23 F          59.2843   93.8428   -1.1016 F       1  UNL1       -0.1658
     24 C          62.7780   91.5283    0.1624 C.3     1  UNL1        0.1876
     25 C          64.5245   93.0325    0.1634 C.3     1  UNL1        0.1747
     26 O          63.8010   92.1094    0.9460 O.3     1  UNL1       -0.3447
     27 C          59.7967   86.0199   11.4344 C.2     1  UNL1        0.2483
     28 O          59.1358   86.5406   12.3745 O.2     1  UNL1       -0.2701
     29 N          60.4645   84.7645   11.6452 N.am    1  UNL1       -0.2945
     30 H          60.7912   84.2371   10.8054 H       1  UNL1        0.1501
     31 C          60.5676   84.1468   12.9766 C.3     1  UNL1        0.1535
     32 C          60.3426   82.6528   12.9173 C.2     1  UNL1        0.2443
     33 O          61.0685   81.8780   13.5993 O.2     1  UNL1       -0.2730
     34 N          59.2204   82.1344   12.1852 N.am    1  UNL1       -0.2825
     35 H          58.5064   82.8167   11.8427 H       1  UNL1        0.1549
     36 C          58.9219   80.7337   12.0671 C.ar    1  UNL1        0.0535
     37 C          59.2976   79.8168   13.0627 C.ar    1  UNL1        0.0353
     38 C          58.9999   78.4616   12.8979 C.ar    1  UNL1        0.1002
     39 N          58.3631   78.0341   11.7756 N.ar    1  UNL1       -0.2422
     40 C          58.0036   78.8970   10.7888 C.ar    1  UNL1        0.1002
     41 C          58.2839   80.2597   10.9130 C.ar    1  UNL1        0.0353
     42 C          61.9227   84.4693   13.6405 C.3     1  UNL1        0.0569
     43 C          61.8369   85.6076   14.6186 C.ar    1  UNL1       -0.0017
     44 C          60.9542   85.7128   15.6892 C.ar    1  UNL1        0.0681
     45 N          61.1147   86.8988   16.3189 N.ar    1  UNL1       -0.3523
     46 C          62.0886   87.5442   15.6539 C.ar    1  UNL1        0.0563
     47 C          62.5971   88.8141   15.9234 C.ar    1  UNL1        0.0170
     48 C          63.6152   89.3063   15.0865 C.ar    1  UNL1        0.0015
     49 C          64.0976   88.5271   14.0116 C.ar    1  UNL1        0.0001
     50 C          63.5668   87.2484   13.7639 C.ar    1  UNL1        0.0012
     51 C          62.5558   86.7879   14.6093 C.ar    1  UNL1        0.0131
     52 H          60.5815   87.2430   17.1482 H       1  UNL1        0.1660
@<TRIPOS>BOND
     1    25    26    1
     2    26    24    1
     3    24    14    1
     4    14    15   ar
     5    15    16   ar
     6    16     8    1
     7     8     9    1
     8     9    10    1
     9    10    11    1
    10    11     1    1
    11     1     2   ar
    12     2     3   ar
    13     3     4   ar
    14     4    27    1
    15    27    28    2
    16    27    29   am
    17    29    31    1
    18    31    42    1
    19    42    43    1
    20    43    44   ar
    21    44    45   ar
    22    45    46   ar
    23    46    47   ar
    24    47    48   ar
    25    48    49   ar
    26    49    50   ar
    27    50    51   ar
    28    31    32    1
    29    32    33    2
    30    32    34   am
    31    34    36    1
    32    36    37   ar
    33    37    38   ar
    34    38    39   ar
    35    39    40   ar
    36    40    41   ar
    37     4     5   ar
    38     5     6    1
    39     5     7   ar
    40    11    12    1
    41    12    13    1
    42    16    17   ar
    43    17    18   ar
    44    18    19   ar
    45    19    20    1
    46    20    21    1
    47    20    22    1
    48    20    23    1
    49    19    14   ar
    50    13     8    1
    51     7     1   ar
    52    51    43   ar
    53    41    36   ar
    54    51    46   ar
    55    29    30    1
    56    45    52    1
    57    34    35    1
@<TRIPOS>MOLECULE
*****
 52 57 0 0 0
SMALL
GASTEIGER

@<TRIPOS>ATOM
      1 C          59.8925   88.1330    7.6936 C.ar    1  UNL1        0.0502
      2 C          60.3848   88.8352    8.8037 C.ar    1  UNL1        0.0148
      3 C          60.3760   88.2492   10.0717 C.ar    1  UNL1        0.0080
      4 C          59.8640   86.9534   10.2597 C.ar    1  UNL1        0.0808
      5 C          59.3798   86.2447    9.1407 C.ar    1  UNL1        0.1457
      6 F          58.9319   84.9693    9.2538 F       1  UNL1       -0.2040
      7 C          59.3927   86.8351    7.8731 C.ar    1  UNL1        0.0443
      8 N          60.1203   90.3238    4.1147 N.pl3   1  UNL1       -0.2897
      9 C          59.0469   90.6249    5.0698 C.3     1  UNL1        0.1136
     10 C          58.6830   89.3698    5.8637 C.3     1  UNL1        0.1123
     11 N          59.8979   88.7315    6.3838 N.pl3   1  UNL1       -0.3040
     12 C          60.9740   88.4308    5.4324 C.3     1  UNL1        0.1123
     13 C          61.3360   89.6872    4.6397 C.3     1  UNL1        0.1136
     14 C          61.3936   91.6587    0.9111 C.ar    1  UNL1        0.0941
     15 N          61.2937   91.0305    2.1161 N.ar    1  UNL1       -0.2326
     16 C          60.1428   90.9914    2.8392 C.ar    1  UNL1        0.1314
     17 C          59.0047   91.6360    2.3452 C.ar    1  UNL1        0.0343
     18 C          59.0590   92.2759    1.1086 C.ar    1  UNL1        0.0080
     19 C          60.2457   92.2798    0.3529 C.ar    1  UNL1        0.0875
     20 C          60.2849   92.9884   -0.9876 C.3     1  UNL1        0.4197
     21 F          61.3686   93.8456   -1.0788 F       1  UNL1       -0.1658
     22 F          60.3833   92.0532   -2.0012 F       1  UNL1       -0.1658
     23 F          59.1375   93.7394   -1.1673 F       1  UNL1       -0.1658
     24 C          62.7180   91.6178    0.1907 C.3     1  UNL1        0.1876
     25 C          64.8930   92.2656    0.5934 C.3     1  UNL1        0.1747
     26 O          63.7770   91.5888    1.1265 O.3     1  UNL1       -0.3447
     27 C          59.8685   86.3603   11.6191 C.2     1  UNL1        0.2483
     28 O          59.2134   85.3030   11.8307 O.2     1  UNL1       -0.2701
     29 N          60.6376   86.9451   12.6834 N.am    1  UNL1       -0.2945
     30 H          61.3548   87.6612   12.4324 H       1  UNL1        0.1501
     31 C          60.5445   86.4655   14.0712 C.3     1  UNL1        0.1535
     32 C          60.9805   85.0229   14.1932 C.2     1  UNL1        0.2443
     33 O          60.5717   84.3198   15.1581 O.2     1  UNL1       -0.2730
     34 N          61.7531   84.4253   13.1396 N.am    1  UNL1       -0.2825
     35 H          61.8599   84.9635   12.2499 H       1  UNL1        0.1549
     36 C          62.2167   83.0653   13.1617 C.ar    1  UNL1        0.0535
     37 C          63.5869   82.7566   13.1409 C.ar    1  UNL1        0.0353
     38 C          63.9912   81.4192   13.1478 C.ar    1  UNL1        0.1002
     39 N          63.0636   80.4257   13.1613 N.ar    1  UNL1       -0.2422
     40 C          61.7314   80.6956   13.1641 C.ar    1  UNL1        0.1002
     41 C          61.2846   82.0190   13.1558 C.ar    1  UNL1        0.0353
     42 C          61.3537   87.3638   15.0300 C.3     1  UNL1        0.0569
     43 C          62.5035   88.0545   14.3514 C.ar    1  UNL1       -0.0017
     44 C          63.0434   87.7347   13.1095 C.ar    1  UNL1        0.0681
     45 N          64.1087   88.5230   12.8403 N.ar    1  UNL1       -0.3523
     46 C          64.2478   89.3356   13.9022 C.ar    1  UNL1        0.0563
     47 C          65.2194   90.3171   14.0932 C.ar    1  UNL1        0.0170
     48 C          65.1874   91.0497   15.2939 C.ar    1  UNL1        0.0015
     49 C          64.1958   90.7886   16.2655 C.ar    1  UNL1        0.0001
     50 C          63.2270   89.7931   16.0454 C.ar    1  UNL1        0.0012
     51 C          63.2858   89.0809   14.8461 C.ar    1  UNL1        0.0131
     52 H          64.7051   88.4963   11.9835 H       1  UNL1        0.1660
@<TRIPOS>BOND
     1    25    26    1
     2    26    24    1
     3    24    14    1
     4    14    15   ar
     5    15    16   ar
     6    16     8    1
     7     8     9    1
     8     9    10    1
     9    10    11    1
    10    11     1    1
    11     1     2   ar
    12     2     3   ar
    13     3     4   ar
    14     4    27    1
    15    27    28    2
    16    27    29   am
    17    29    31    1
    18    31    42    1
    19    42    43    1
    20    43    44   ar
    21    44    45   ar
    22    45    46   ar
    23    46    47   ar
    24    47    48   ar
    25    48    49   ar
    26    49    50   ar
    27    50    51   ar
    28    31    32    1
    29    32    33    2
    30    32    34   am
    31    34    36    1
    32    36    37   ar
    33    37    38   ar
    34    38    39   ar
    35    39    40   ar
    36    40    41   ar
    37     4     5   ar
    38     5     6    1
    39     5     7   ar
    40    11    12    1
    41    12    13    1
    42    16    17   ar
    43    17    18   ar
    44    18    19   ar
    45    19    20    1
    46    20    21    1
    47    20    22    1
    48    20    23    1
    49    19    14   ar
    50    13     8    1
    51     7     1   ar
    52    51    43   ar
    53    41    36   ar
    54    51    46   ar
    55    29    30    1
    56    45    52    1
    57    34    35    1
@<TRIPOS>MOLECULE
*****
 52 57 0 0 0
SMALL
GASTEIGER

@<TRIPOS>ATOM
      1 C          59.7183   88.1105    7.6268 C.ar    1  UNL1        0.0502
      2 C          59.9469   88.8596    8.7906 C.ar    1  UNL1        0.0148
      3 C          59.8464   88.2602   10.0484 C.ar    1  UNL1        0.0080
      4 C          59.5035   86.9022   10.1706 C.ar    1  UNL1        0.0808
      5 C          59.2851   86.1479    8.9991 C.ar    1  UNL1        0.1457
      6 F          59.0126   84.8204    9.0561 F       1  UNL1       -0.2040
      7 C          59.3889   86.7523    7.7423 C.ar    1  UNL1        0.0443
      8 N          60.2026   90.3394    4.0973 N.pl3   1  UNL1       -0.2897
      9 C          59.0567   90.6230    4.9699 C.3     1  UNL1        0.1136
     10 C          58.6430   89.3572    5.7214 C.3     1  UNL1        0.1123
     11 N          59.8194   88.7224    6.3272 N.pl3   1  UNL1       -0.3040
     12 C          60.9677   88.4392    5.4583 C.3     1  UNL1        0.1123
     13 C          61.3795   89.7062    4.7079 C.3     1  UNL1        0.1136
     14 C          59.2458   91.8448    0.8593 C.ar    1  UNL1        0.0941
     15 N          59.2099   91.2249    2.0722 N.ar    1  UNL1       -0.2326
     16 C          60.3176   91.0201    2.8338 C.ar    1  UNL1        0.1314
     17 C          61.5615   91.4438    2.3562 C.ar    1  UNL1        0.0343
     18 C          61.6404   92.0973    1.1281 C.ar    1  UNL1        0.0080
     19 C          60.4828   92.3351    0.3648 C.ar    1  UNL1        0.0875
     20 C          60.5922   93.0421   -0.9727 C.3     1  UNL1        0.4197
     21 F          61.7169   93.8476   -1.0321 F       1  UNL1       -0.1658
     22 F          60.6747   92.1041   -1.9852 F       1  UNL1       -0.1658
     23 F          59.4866   93.8461   -1.1824 F       1  UNL1       -0.1658
     24 C          57.9484   92.0342    0.1140 C.3     1  UNL1        0.1876
     25 C          57.1430   91.0812   -1.8240 C.3     1  UNL1        0.1747
     26 O          57.5639   90.8222   -0.5035 O.3     1  UNL1       -0.3447
     27 C          59.4045   86.2963   11.5207 C.2     1  UNL1        0.2483
     28 O          58.3712   85.6397   11.8256 O.2     1  UNL1       -0.2701
     29 N          60.4800   86.4095   12.4677 N.am    1  UNL1       -0.2945
     30 H          61.4077   86.7365   12.1176 H       1  UNL1        0.1501
     31 C          60.3501   85.9472   13.8584 C.3     1  UNL1        0.1535
     32 C          61.3065   84.8162   14.1619 C.2     1  UNL1        0.2443
     33 O          61.6874   84.6132   15.3477 O.2     1  UNL1       -0.2730
     34 N          61.6735   83.9001   13.1179 N.am    1  UNL1       -0.2825
     35 H          61.1473   83.9544   12.2163 H       1  UNL1        0.1549
     36 C          62.5749   82.7965   13.3039 C.ar    1  UNL1        0.0535
     37 C          63.7635   82.6867   12.5633 C.ar    1  UNL1        0.0353
     38 C          64.6021   81.5878   12.7667 C.ar    1  UNL1        0.1002
     39 N          64.2619   80.6266   13.6657 N.ar    1  UNL1       -0.2422
     40 C          63.1097   80.6988   14.3832 C.ar    1  UNL1        0.1002
     41 C          62.2423   81.7797   14.2091 C.ar    1  UNL1        0.0353
     42 C          60.5438   87.1089   14.8555 C.3     1  UNL1        0.0569
     43 C          61.9636   87.5997   14.9107 C.ar    1  UNL1       -0.0017
     44 C          62.8355   87.4880   15.9894 C.ar    1  UNL1        0.0681
     45 N          64.0112   88.0957   15.7114 N.ar    1  UNL1       -0.3523
     46 C          63.8883   88.5924   14.4682 C.ar    1  UNL1        0.0563
     47 C          64.8389   89.3165   13.7501 C.ar    1  UNL1        0.0170
     48 C          64.4942   89.7548   12.4584 C.ar    1  UNL1        0.0015
     49 C          63.2220   89.4621   11.9190 C.ar    1  UNL1        0.0001
     50 C          62.2829   88.7283   12.6658 C.ar    1  UNL1        0.0012
     51 C          62.6523   88.3094   13.9452 C.ar    1  UNL1        0.0131
     52 H          64.8406   88.1695   16.3416 H       1  UNL1        0.1660
@<TRIPOS>BOND
     1    25    26    1
     2    26    24    1
     3    24    14    1
     4    14    15   ar
     5    15    16   ar
     6    16     8    1
     7     8     9    1
     8     9    10    1
     9    10    11    1
    10    11     1    1
    11     1     2   ar
    12     2     3   ar
    13     3     4   ar
    14     4    27    1
    15    27    28    2
    16    27    29   am
    17    29    31    1
    18    31    42    1
    19    42    43    1
    20    43    44   ar
    21    44    45   ar
    22    45    46   ar
    23    46    47   ar
    24    47    48   ar
    25    48    49   ar
    26    49    50   ar
    27    50    51   ar
    28    31    32    1
    29    32    33    2
    30    32    34   am
    31    34    36    1
    32    36    37   ar
    33    37    38   ar
    34    38    39   ar
    35    39    40   ar
    36    40    41   ar
    37     4     5   ar
    38     5     6    1
    39     5     7   ar
    40    11    12    1
    41    12    13    1
    42    16    17   ar
    43    17    18   ar
    44    18    19   ar
    45    19    20    1
    46    20    21    1
    47    20    22    1
    48    20    23    1
    49    19    14   ar
    50    13     8    1
    51     7     1   ar
    52    51    43   ar
    53    41    36   ar
    54    51    46   ar
    55    29    30    1
    56    45    52    1
    57    34    35    1
@<TRIPOS>MOLECULE
*****
 52 57 0 0 0
SMALL
GASTEIGER

@<TRIPOS>ATOM
      1 C          60.2291   88.2287    7.6679 C.ar    1  UNL1        0.0502
      2 C          59.4153   87.1663    8.0886 C.ar    1  UNL1        0.0148
      3 C          59.5813   86.6084    9.3584 C.ar    1  UNL1        0.0080
      4 C          60.5723   87.0920   10.2306 C.ar    1  UNL1        0.0808
      5 C          61.3820   88.1675    9.8103 C.ar    1  UNL1        0.1457
      6 F          62.3113   88.7139   10.6335 F       1  UNL1       -0.2040
      7 C          61.2104   88.7238    8.5388 C.ar    1  UNL1        0.0443
      8 N          59.8497   90.4019    4.0911 N.pl3   1  UNL1       -0.2897
      9 C          58.7547   90.4370    5.0681 C.3     1  UNL1        0.1136
     10 C          58.7205   89.1329    5.8658 C.3     1  UNL1        0.1123
     11 N          60.0637   88.8079    6.3599 N.pl3   1  UNL1       -0.3040
     12 C          61.1614   88.7739    5.3865 C.3     1  UNL1        0.1123
     13 C          61.1935   90.0788    4.5901 C.3     1  UNL1        0.1136
     14 C          60.6770   92.2495    0.9978 C.ar    1  UNL1        0.0941
     15 N          60.7609   91.6034    2.1946 N.ar    1  UNL1       -0.2326
     16 C          59.6850   91.0522    2.8172 C.ar    1  UNL1        0.1314
     17 C          58.4240   91.1603    2.2231 C.ar    1  UNL1        0.0343
     18 C          58.2965   91.7982    0.9909 C.ar    1  UNL1        0.0080
     19 C          59.4224   92.3339    0.3391 C.ar    1  UNL1        0.0875
     20 C          59.2602   93.0305   -0.9985 C.3     1  UNL1        0.4197
     21 F          60.3415   93.8479   -1.2811 F       1  UNL1       -0.1658
     22 F          59.1555   92.0847   -2.0016 F       1  UNL1       -0.1658
     23 F          58.1249   93.8204   -0.9937 F       1  UNL1       -0.1658
     24 C          61.9431   92.8028    0.3933 C.3     1  UNL1        0.1876
     25 C          63.9686   92.2727   -0.5704 C.3     1  UNL1        0.1747
     26 O          62.8170   91.7463    0.0497 O.3     1  UNL1       -0.3447
     27 C          60.7231   86.4771   11.5718 C.2     1  UNL1        0.2483
     28 O          59.9198   86.7995   12.4897 O.2     1  UNL1       -0.2701
     29 N          61.7389   85.4931   11.8291 N.am    1  UNL1       -0.2945
     30 H          62.2244   85.0653   11.0097 H       1  UNL1        0.1501
     31 C          62.0045   84.9778   13.1814 C.3     1  UNL1        0.1535
     32 C          62.5684   86.0499   14.0861 C.2     1  UNL1        0.2443
     33 O          62.9868   85.7477   15.2376 O.2     1  UNL1       -0.2730
     34 N          62.7436   87.3831   13.5801 N.am    1  UNL1       -0.2825
     35 H          62.6176   87.5338   12.5534 H       1  UNL1        0.1549
     36 C          63.2684   88.4706   14.3591 C.ar    1  UNL1        0.0535
     37 C          62.6733   88.8597   15.5706 C.ar    1  UNL1        0.0353
     38 C          63.2088   89.9333   16.2868 C.ar    1  UNL1        0.1002
     39 N          64.2897   90.6031   15.8063 N.ar    1  UNL1       -0.2422
     40 C          64.8747   90.2590   14.6286 C.ar    1  UNL1        0.1002
     41 C          64.3697   89.1930   13.8805 C.ar    1  UNL1        0.0353
     42 C          60.7379   84.3507   13.8008 C.3     1  UNL1        0.0569
     43 C          60.3535   83.0505   13.1518 C.ar    1  UNL1       -0.0017
     44 C          60.9596   81.8144   13.3542 C.ar    1  UNL1        0.0681
     45 N          60.3968   80.8764   12.5591 N.ar    1  UNL1       -0.3523
     46 C          59.4429   81.5097   11.8546 C.ar    1  UNL1        0.0563
     47 C          58.5987   80.9594   10.8912 C.ar    1  UNL1        0.0170
     48 C          57.6732   81.8126   10.2628 C.ar    1  UNL1        0.0015
     49 C          57.6122   83.1810   10.6079 C.ar    1  UNL1        0.0001
     50 C          58.4755   83.7088   11.5847 C.ar    1  UNL1        0.0012
     51 C          59.3849   82.8387   12.1888 C.ar    1  UNL1        0.0131
     52 H          60.6595   79.8674   12.5010 H       1  UNL1        0.1660
@<TRIPOS>BOND
     1    25    26    1
     2    26    24    1
     3    24    14    1
     4    14    15   ar
     5    15    16   ar
     6    16     8    1
     7     8     9    1
     8     9    10    1
     9    10    11    1
    10    11     1    1
    11     1     2   ar
    12     2     3   ar
    13     3     4   ar
    14     4    27    1
    15    27    28    2
    16    27    29   am
    17    29    31    1
    18    31    42    1
    19    42    43    1
    20    43    44   ar
    21    44    45   ar
    22    45    46   ar
    23    46    47   ar
    24    47    48   ar
    25    48    49   ar
    26    49    50   ar
    27    50    51   ar
    28    31    32    1
    29    32    33    2
    30    32    34   am
    31    34    36    1
    32    36    37   ar
    33    37    38   ar
    34    38    39   ar
    35    39    40   ar
    36    40    41   ar
    37     4     5   ar
    38     5     6    1
    39     5     7   ar
    40    11    12    1
    41    12    13    1
    42    16    17   ar
    43    17    18   ar
    44    18    19   ar
    45    19    20    1
    46    20    21    1
    47    20    22    1
    48    20    23    1
    49    19    14   ar
    50    13     8    1
    51     7     1   ar
    52    51    43   ar
    53    41    36   ar
    54    51    46   ar
    55    29    30    1
    56    45    52    1
    57    34    35    1
@<TRIPOS>MOLECULE
*****
 52 57 0 0 0
SMALL
GASTEIGER

@<TRIPOS>ATOM
      1 C          60.0438   87.9424    7.6699 C.ar    1  UNL1        0.0502
      2 C          60.8412   88.4745    8.6941 C.ar    1  UNL1        0.0148
      3 C          60.8895   87.8565    9.9459 C.ar    1  UNL1        0.0080
      4 C          60.1326   86.7003   10.2049 C.ar    1  UNL1        0.0808
      5 C          59.3403   86.1605    9.1706 C.ar    1  UNL1        0.1457
      6 F          58.6387   85.0129    9.3459 F       1  UNL1       -0.2040
      7 C          59.2970   86.7819    7.9186 C.ar    1  UNL1        0.0443
      8 N          60.0811   90.2354    4.1484 N.pl3   1  UNL1       -0.2897
      9 C          59.0195   90.4612    5.1368 C.3     1  UNL1        0.1136
     10 C          58.7334   89.1700    5.9044 C.3     1  UNL1        0.1123
     11 N          59.9889   88.5750    6.3774 N.pl3   1  UNL1       -0.3040
     12 C          61.0532   88.3498    5.3925 C.3     1  UNL1        0.1123
     13 C          61.3375   89.6421    4.6263 C.3     1  UNL1        0.1136
     14 C          61.2099   91.7077    0.9508 C.ar    1  UNL1        0.0941
     15 N          61.1692   91.0442    2.1403 N.ar    1  UNL1       -0.2326
     16 C          60.0409   90.9368    2.8916 C.ar    1  UNL1        0.1314
     17 C          58.8638   91.5451    2.4453 C.ar    1  UNL1        0.0343
     18 C          58.8577   92.2192    1.2258 C.ar    1  UNL1        0.0080
     19 C          60.0222   92.2938    0.4400 C.ar    1  UNL1        0.0875
     20 C          59.9953   93.0386   -0.8811 C.3     1  UNL1        0.4197
     21 F          61.1094   93.8467   -1.0327 F       1  UNL1       -0.1658
     22 F          59.9718   92.1298   -1.9229 F       1  UNL1       -0.1658
     23 F          58.8755   93.8471   -0.9535 F       1  UNL1       -0.1658
     24 C          62.5148   91.7425    0.1954 C.3     1  UNL1        0.1876
     25 C          64.5190   92.8793    0.1357 C.3     1  UNL1        0.1747
     26 O          63.5107   92.3692    0.9788 O.3     1  UNL1       -0.3447
     27 C          60.2057   86.0689   11.5449 C.2     1  UNL1        0.2483
     28 O          59.4362   86.4748   12.4586 O.2     1  UNL1       -0.2701
     29 N          61.1057   84.9787   11.8056 N.am    1  UNL1       -0.2945
     30 H          61.5471   84.5025   10.9879 H       1  UNL1        0.1501
     31 C          61.3038   84.4337   13.1577 C.3     1  UNL1        0.1535
     32 C          61.9220   85.4548   14.0857 C.2     1  UNL1        0.2443
     33 O          62.2757   85.1173   15.2491 O.2     1  UNL1       -0.2730
     34 N          62.2214   86.7703   13.5921 N.am    1  UNL1       -0.2825
     35 H          62.1425   86.9328   12.5625 H       1  UNL1        0.1549
     36 C          62.8061   87.8102   14.3932 C.ar    1  UNL1        0.0535
     37 C          62.2115   88.2344   15.5931 C.ar    1  UNL1        0.0353
     38 C          62.8075   89.2599   16.3315 C.ar    1  UNL1        0.1002
     39 N          63.9470   89.8503   15.8836 N.ar    1  UNL1       -0.2422
     40 C          64.5340   89.4716   14.7176 C.ar    1  UNL1        0.1002
     41 C          63.9699   88.4515   13.9480 C.ar    1  UNL1        0.0353
     42 C          59.9823   83.8928   13.7430 C.3     1  UNL1        0.0569
     43 C          59.4061   82.7630   12.9360 C.ar    1  UNL1       -0.0017
     44 C          58.1811   82.7593   12.2761 C.ar    1  UNL1        0.0681
     45 N          57.9564   81.5547   11.7039 N.ar    1  UNL1       -0.3523
     46 C          59.0271   80.7972   11.9991 C.ar    1  UNL1        0.0563
     47 C          59.2478   79.4690   11.6373 C.ar    1  UNL1        0.0170
     48 C          60.4412   78.8599   12.0664 C.ar    1  UNL1        0.0015
     49 C          61.3772   79.5837   12.8380 C.ar    1  UNL1        0.0001
     50 C          61.1288   80.9232   13.1872 C.ar    1  UNL1        0.0012
     51 C          59.9351   81.4998   12.7496 C.ar    1  UNL1        0.0131
     52 H          57.1157   81.2719   11.1528 H       1  UNL1        0.1660
@<TRIPOS>BOND
     1    25    26    1
     2    26    24    1
     3    24    14    1
     4    14    15   ar
     5    15    16   ar
     6    16     8    1
     7     8     9    1
     8     9    10    1
     9    10    11    1
    10    11     1    1
    11     1     2   ar
    12     2     3   ar
    13     3     4   ar
    14     4    27    1
    15    27    28    2
    16    27    29   am
    17    29    31    1
    18    31    42    1
    19    42    43    1
    20    43    44   ar
    21    44    45   ar
    22    45    46   ar
    23    46    47   ar
    24    47    48   ar
    25    48    49   ar
    26    49    50   ar
    27    50    51   ar
    28    31    32    1
    29    32    33    2
    30    32    34   am
    31    34    36    1
    32    36    37   ar
    33    37    38   ar
    34    38    39   ar
    35    39    40   ar
    36    40    41   ar
    37     4     5   ar
    38     5     6    1
    39     5     7   ar
    40    11    12    1
    41    12    13    1
    42    16    17   ar
    43    17    18   ar
    44    18    19   ar
    45    19    20    1
    46    20    21    1
    47    20    22    1
    48    20    23    1
    49    19    14   ar
    50    13     8    1
    51     7     1   ar
    52    51    43   ar
    53    41    36   ar
    54    51    46   ar
    55    29    30    1
    56    45    52    1
    57    34    35    1
@<TRIPOS>MOLECULE
*****
 52 57 0 0 0
SMALL
GASTEIGER

@<TRIPOS>ATOM
      1 C          59.8182   87.9998    7.6116 C.ar    1  UNL1        0.0502
      2 C          59.0503   86.8455    7.8253 C.ar    1  UNL1        0.0148
      3 C          59.0216   86.2382    9.0830 C.ar    1  UNL1        0.0080
      4 C          59.7692   86.7645   10.1510 C.ar    1  UNL1        0.0808
      5 C          60.5318   87.9314    9.9373 C.ar    1  UNL1        0.1457
      6 F          61.2225   88.5170   10.9472 F       1  UNL1       -0.2040
      7 C          60.5555   88.5366    8.6768 C.ar    1  UNL1        0.0443
      8 N          60.1770   90.2555    4.0841 N.pl3   1  UNL1       -0.2897
      9 C          59.1567   90.6298    5.0709 C.3     1  UNL1        0.1136
     10 C          58.6929   89.3933    5.8416 C.3     1  UNL1        0.1123
     11 N          59.8528   88.6303    6.3174 N.pl3   1  UNL1       -0.3040
     12 C          60.8759   88.2562    5.3342 C.3     1  UNL1        0.1123
     13 C          61.3381   89.4941    4.5648 C.3     1  UNL1        0.1136
     14 C          61.5371   91.6482    0.9414 C.ar    1  UNL1        0.0941
     15 N          61.4028   90.9935    2.1288 N.ar    1  UNL1       -0.2326
     16 C          60.2358   90.9522    2.8255 C.ar    1  UNL1        0.1314
     17 C          59.1169   91.6226    2.3220 C.ar    1  UNL1        0.0343
     18 C          59.2063   92.2903    1.1023 C.ar    1  UNL1        0.0080
     19 C          60.4094   92.2967    0.3730 C.ar    1  UNL1        0.0875
     20 C          60.4869   93.0357   -0.9493 C.3     1  UNL1        0.4197
     21 F          61.6097   93.8432   -1.0161 F       1  UNL1       -0.1658
     22 F          60.5454   92.1223   -1.9857 F       1  UNL1       -0.1658
     23 F          59.3765   93.8437   -1.1134 F       1  UNL1       -0.1658
     24 C          62.8764   91.6073    0.2493 C.3     1  UNL1        0.1876
     25 C          64.2242   93.4024    0.7725 C.3     1  UNL1        0.1747
     26 O          63.8854   92.0786    1.1199 O.3     1  UNL1       -0.3447
     27 C          59.7175   86.0954   11.4736 C.2     1  UNL1        0.2483
     28 O          59.5764   86.7971   12.5126 O.2     1  UNL1       -0.2701
     29 N          59.7831   84.6638   11.5862 N.am    1  UNL1       -0.2945
     30 H          59.6522   84.0983   10.7183 H       1  UNL1        0.1501
     31 C          59.8820   83.9849   12.8877 C.3     1  UNL1        0.1535
     32 C          59.8834   82.4808   12.7336 C.2     1  UNL1        0.2443
     33 O          60.4352   81.7576   13.6082 O.2     1  UNL1       -0.2730
     34 N          59.1440   81.8786   11.6590 N.am    1  UNL1       -0.2825
     35 H          58.5025   82.4920   11.1068 H       1  UNL1        0.1549
     36 C          59.0840   80.4619   11.4262 C.ar    1  UNL1        0.0535
     37 C          60.2090   79.6402   11.6065 C.ar    1  UNL1        0.0353
     38 C          60.1082   78.2699   11.3530 C.ar    1  UNL1        0.1002
     39 N          58.9327   77.7400   10.9227 N.ar    1  UNL1       -0.2422
     40 C          57.8334   78.5143   10.7233 C.ar    1  UNL1        0.1002
     41 C          57.8919   79.8891   10.9632 C.ar    1  UNL1        0.0353
     42 C          61.1252   84.4548   13.6718 C.3     1  UNL1        0.0569
     43 C          62.3540   83.6491   13.3546 C.ar    1  UNL1       -0.0017
     44 C          63.2897   83.1740   14.2684 C.ar    1  UNL1        0.0681
     45 N          64.2990   82.5432   13.6263 N.ar    1  UNL1       -0.3523
     46 C          64.0102   82.6182   12.3155 C.ar    1  UNL1        0.0563
     47 C          64.7654   82.1206   11.2543 C.ar    1  UNL1        0.0170
     48 C          64.2794   82.3223    9.9495 C.ar    1  UNL1        0.0015
     49 C          63.0630   83.0081    9.7367 C.ar    1  UNL1        0.0001
     50 C          62.3212   83.4982   10.8264 C.ar    1  UNL1        0.0012
     51 C          62.8298   83.2855   12.1089 C.ar    1  UNL1        0.0131
     52 H          65.1358   82.0973   14.0639 H       1  UNL1        0.1660
@<TRIPOS>BOND
     1    25    26    1
     2    26    24    1
     3    24    14    1
     4    14    15   ar
     5    15    16   ar
     6    16     8    1
     7     8     9    1
     8     9    10    1
     9    10    11    1
    10    11     1    1
    11     1     2   ar
    12     2     3   ar
    13     3     4   ar
    14     4    27    1
    15    27    28    2
    16    27    29   am
    17    29    31    1
    18    31    42    1
    19    42    43    1
    20    43    44   ar
    21    44    45   ar
    22    45    46   ar
    23    46    47   ar
    24    47    48   ar
    25    48    49   ar
    26    49    50   ar
    27    50    51   ar
    28    31    32    1
    29    32    33    2
    30    32    34   am
    31    34    36    1
    32    36    37   ar
    33    37    38   ar
    34    38    39   ar
    35    39    40   ar
    36    40    41   ar
    37     4     5   ar
    38     5     6    1
    39     5     7   ar
    40    11    12    1
    41    12    13    1
    42    16    17   ar
    43    17    18   ar
    44    18    19   ar
    45    19    20    1
    46    20    21    1
    47    20    22    1
    48    20    23    1
    49    19    14   ar
    50    13     8    1
    51     7     1   ar
    52    51    43   ar
    53    41    36   ar
    54    51    46   ar
    55    29    30    1
    56    45    52    1
    57    34    35    1
