@<TRIPOS>MOLECULE
*****
 47 52 0 0 0
SMALL
GASTEIGER

@<TRIPOS>ATOM
      1 C         -67.6098  -55.1076  -25.9252 C.ar    1  UNL1        0.0675
      2 C         -66.5260  -54.3730  -25.4218 C.ar    1  UNL1        0.0219
      3 C         -65.5354  -53.8814  -26.2853 C.ar    1  UNL1        0.0702
      4 C         -65.6763  -54.1015  -27.6587 C.ar    1  UNL1        0.1149
      5 N         -66.7458  -54.7870  -28.1371 N.ar    1  UNL1       -0.2278
      6 C         -67.7148  -55.2871  -27.3230 C.ar    1  UNL1        0.1345
      7 N         -68.8559  -55.9263  -27.9175 N.pl3   1  UNL1       -0.2932
      8 C         -69.3079  -57.2341  -27.4204 C.3     1  UNL1        0.0923
      9 C         -70.8292  -57.2288  -27.2585 C.3     1  UNL1        0.0252
     10 C         -71.5572  -56.9042  -28.5910 C.3     1  UNL1        0.0472
     11 C         -70.6849  -56.0757  -29.5712 C.3     1  UNL1        0.0252
     12 C         -69.6982  -55.1569  -28.8423 C.3     1  UNL1        0.0923
     13 C         -72.8996  -56.2039  -28.3231 C.3     1  UNL1        0.2054
     14 O         -73.7350  -56.2972  -29.4756 O.3     1  UNL1       -0.4755
     15 C         -74.0393  -55.2233  -30.3246 C.ar    1  UNL1        0.1388
     16 C         -74.5906  -54.0194  -29.8499 C.ar    1  UNL1        0.0369
     17 C         -74.8719  -52.9791  -30.7372 C.ar    1  UNL1        0.0033
     18 C         -74.6137  -53.1272  -32.1020 C.ar    1  UNL1        0.0066
     19 C         -74.0729  -54.3270  -32.5974 C.ar    1  UNL1        0.0785
     20 C         -73.7813  -55.3656  -31.6936 C.ar    1  UNL1        0.0433
     21 C         -73.7873  -54.5010  -34.0428 C.2     1  UNL1        0.3381
     22 O         -72.6366  -54.8548  -34.4142 O.2     1  UNL1       -0.2451
     23 O         -74.7662  -54.2979  -35.0150 O.3     1  UNL1       -0.4771
     24 H         -75.7339  -54.1142  -34.7850 H       1  UNL1        0.2954
     25 N         -64.4163  -53.1208  -25.7984 N.am    1  UNL1       -0.2766
     26 C         -64.2517  -52.7217  -24.4280 C.2     1  UNL1        0.2839
     27 O         -64.9606  -53.2432  -23.5257 O.2     1  UNL1       -0.2665
     28 H         -63.6357  -52.9220  -26.4644 H       1  UNL1        0.1553
     29 C         -63.2207  -51.7280  -24.0732 C.ar    1  UNL1        0.1946
     30 O         -62.0609  -52.0587  -23.5337 O.2     1  UNL1       -0.4492
     31 C         -61.3762  -50.9573  -23.3441 C.ar    1  UNL1        0.1452
     32 C         -60.1019  -50.8389  -22.8006 C.ar    1  UNL1        0.0375
     33 C         -59.5488  -49.5515  -22.6890 C.ar    1  UNL1        0.0031
     34 C         -60.2735  -48.4074  -23.1196 C.ar    1  UNL1        0.0002
     35 C         -61.5687  -48.5719  -23.6669 C.ar    1  UNL1        0.0028
     36 C         -62.0869  -49.8644  -23.7625 C.ar    1  UNL1        0.0337
     37 C         -63.2918  -50.3407  -24.2429 C.ar    1  UNL1        0.0202
     38 C         -64.4244  -49.5453  -24.8188 C.3     1  UNL1        0.0345
     39 C         -59.6789  -47.0522  -22.9969 C.ar    1  UNL1        0.0000
     40 C         -58.2815  -46.8803  -23.0053 C.ar    1  UNL1        0.0000
     41 C         -57.7243  -45.6029  -22.8906 C.ar    1  UNL1        0.0000
     42 C         -58.5527  -44.4854  -22.7655 C.ar    1  UNL1        0.0000
     43 C         -59.9403  -44.6428  -22.7555 C.ar    1  UNL1        0.0000
     44 C         -60.5029  -45.9176  -22.8709 C.ar    1  UNL1        0.0000
     45 C         -68.1854  -56.8124  -24.0513 C.3     1  UNL1        0.0774
     46 C         -68.5754  -55.6979  -24.9736 C.2     1  UNL1        0.1762
     47 O         -69.7308  -55.2041  -24.8773 O.2     1  UNL1       -0.2912
@<TRIPOS>BOND
     1    45    46    1
     2    46    47    2
     3    46     1    1
     4     1     2   ar
     5     2     3   ar
     6     3    25    1
     7    25    26   am
     8    26    27    2
     9    26    29    1
    10    29    30   ar
    11    30    31   ar
    12    31    32   ar
    13    32    33   ar
    14    33    34   ar
    15    34    39    1
    16    39    40   ar
    17    40    41   ar
    18    41    42   ar
    19    42    43   ar
    20    43    44   ar
    21    34    35   ar
    22    35    36   ar
    23    36    37   ar
    24    37    38    1
    25     3     4   ar
    26     4     5   ar
    27     5     6   ar
    28     6     7    1
    29     7     8    1
    30     8     9    1
    31     9    10    1
    32    10    13    1
    33    13    14    1
    34    14    15    1
    35    15    16   ar
    36    16    17   ar
    37    17    18   ar
    38    18    19   ar
    39    19    21    1
    40    21    22    2
    41    21    23    1
    42    19    20   ar
    43    10    11    1
    44    11    12    1
    45     6     1   ar
    46    12     7    1
    47    37    29   ar
    48    20    15   ar
    49    36    31   ar
    50    44    39   ar
    51    25    28    1
    52    23    24    1
@<TRIPOS>MOLECULE
*****
 47 52 0 0 0
SMALL
GASTEIGER

@<TRIPOS>ATOM
      1 C         -67.5379  -55.0753  -25.9334 C.ar    1  UNL1        0.0675
      2 C         -66.4573  -54.3344  -25.4322 C.ar    1  UNL1        0.0219
      3 C         -65.4558  -53.8622  -26.2941 C.ar    1  UNL1        0.0702
      4 C         -65.5825  -54.1081  -27.6646 C.ar    1  UNL1        0.1149
      5 N         -66.6490  -54.7995  -28.1415 N.ar    1  UNL1       -0.2278
      6 C         -67.6283  -55.2811  -27.3285 C.ar    1  UNL1        0.1345
      7 N         -68.7649  -55.9282  -27.9231 N.pl3   1  UNL1       -0.2932
      8 C         -69.2140  -57.2344  -27.4193 C.3     1  UNL1        0.0923
      9 C         -70.7359  -57.2336  -27.2631 C.3     1  UNL1        0.0252
     10 C         -71.4602  -56.9202  -28.6004 C.3     1  UNL1        0.0472
     11 C         -70.5872  -56.0948  -29.5825 C.3     1  UNL1        0.0252
     12 C         -69.6065  -55.1678  -28.8559 C.3     1  UNL1        0.0923
     13 C         -72.8060  -56.2229  -28.3418 C.3     1  UNL1        0.2054
     14 O         -72.7161  -55.4113  -27.1723 O.3     1  UNL1       -0.4755
     15 C         -73.3669  -55.6886  -25.9613 C.ar    1  UNL1        0.1388
     16 C         -74.7524  -55.9195  -25.8855 C.ar    1  UNL1        0.0369
     17 C         -75.3509  -56.1951  -24.6549 C.ar    1  UNL1        0.0033
     18 C         -74.5809  -56.2385  -23.4902 C.ar    1  UNL1        0.0066
     19 C         -73.1961  -55.9998  -23.5439 C.ar    1  UNL1        0.0785
     20 C         -72.5998  -55.7347  -24.7908 C.ar    1  UNL1        0.0433
     21 C         -72.3612  -56.0464  -22.3185 C.2     1  UNL1        0.3381
     22 O         -72.8299  -56.5472  -21.2617 O.2     1  UNL1       -0.2451
     23 O         -71.0536  -55.5619  -22.3011 O.3     1  UNL1       -0.4771
     24 H         -70.5790  -55.2423  -23.1352 H       1  UNL1        0.2954
     25 N         -64.3398  -53.0957  -25.8097 N.am    1  UNL1       -0.2766
     26 C         -64.1858  -52.6762  -24.4441 C.2     1  UNL1        0.2839
     27 O         -64.9027  -53.1830  -23.5399 O.2     1  UNL1       -0.2665
     28 H         -63.5534  -52.9081  -26.4722 H       1  UNL1        0.1553
     29 C         -63.1563  -51.6784  -24.0961 C.ar    1  UNL1        0.1946
     30 O         -61.9882  -52.0054  -23.5725 O.2     1  UNL1       -0.4492
     31 C         -61.3077  -50.9012  -23.3847 C.ar    1  UNL1        0.1452
     32 C         -60.0276  -50.7785  -22.8559 C.ar    1  UNL1        0.0375
     33 C         -59.4806  -49.4885  -22.7435 C.ar    1  UNL1        0.0031
     34 C         -60.2171  -48.3462  -23.1587 C.ar    1  UNL1        0.0002
     35 C         -61.5178  -48.5152  -23.6914 C.ar    1  UNL1        0.0028
     36 C         -62.0296  -49.8101  -23.7882 C.ar    1  UNL1        0.0337
     37 C         -63.2374  -50.2907  -24.2568 C.ar    1  UNL1        0.0202
     38 C         -64.3815  -49.4986  -24.8145 C.3     1  UNL1        0.0345
     39 C         -59.6288  -46.9883  -23.0353 C.ar    1  UNL1        0.0000
     40 C         -58.2462  -46.8234  -22.8268 C.ar    1  UNL1        0.0000
     41 C         -57.6949  -45.5435  -22.7120 C.ar    1  UNL1        0.0000
     42 C         -58.5146  -44.4164  -22.8027 C.ar    1  UNL1        0.0000
     43 C         -59.8877  -44.5667  -23.0090 C.ar    1  UNL1        0.0000
     44 C         -60.4442  -45.8441  -23.1255 C.ar    1  UNL1        0.0000
     45 C         -68.2538  -56.9352  -24.2669 C.3     1  UNL1        0.0774
     46 C         -68.5156  -55.6444  -24.9813 C.2     1  UNL1        0.1762
     47 O         -69.5585  -54.9946  -24.7018 O.2     1  UNL1       -0.2912
@<TRIPOS>BOND
     1    45    46    1
     2    46    47    2
     3    46     1    1
     4     1     2   ar
     5     2     3   ar
     6     3    25    1
     7    25    26   am
     8    26    27    2
     9    26    29    1
    10    29    30   ar
    11    30    31   ar
    12    31    32   ar
    13    32    33   ar
    14    33    34   ar
    15    34    39    1
    16    39    40   ar
    17    40    41   ar
    18    41    42   ar
    19    42    43   ar
    20    43    44   ar
    21    34    35   ar
    22    35    36   ar
    23    36    37   ar
    24    37    38    1
    25     3     4   ar
    26     4     5   ar
    27     5     6   ar
    28     6     7    1
    29     7     8    1
    30     8     9    1
    31     9    10    1
    32    10    13    1
    33    13    14    1
    34    14    15    1
    35    15    16   ar
    36    16    17   ar
    37    17    18   ar
    38    18    19   ar
    39    19    21    1
    40    21    22    2
    41    21    23    1
    42    19    20   ar
    43    10    11    1
    44    11    12    1
    45     6     1   ar
    46    12     7    1
    47    37    29   ar
    48    20    15   ar
    49    36    31   ar
    50    44    39   ar
    51    25    28    1
    52    23    24    1
@<TRIPOS>MOLECULE
*****
 47 52 0 0 0
SMALL
GASTEIGER

@<TRIPOS>ATOM
      1 C         -61.3853  -42.8910  -22.7000 C.ar    1  UNL1        0.0675
      2 C         -61.8844  -41.7115  -22.1277 C.ar    1  UNL1        0.0219
      3 C         -62.8793  -40.9679  -22.7803 C.ar    1  UNL1        0.0702
      4 C         -63.3915  -41.4516  -23.9880 C.ar    1  UNL1        0.1149
      5 N         -62.9227  -42.6107  -24.5165 N.ar    1  UNL1       -0.2278
      6 C         -61.9491  -43.3457  -23.9133 C.ar    1  UNL1        0.1345
      7 N         -61.5705  -44.6031  -24.4961 N.pl3   1  UNL1       -0.2932
      8 C         -62.3220  -45.8227  -24.1653 C.3     1  UNL1        0.0923
      9 C         -62.6055  -46.6182  -25.4411 C.3     1  UNL1        0.0252
     10 C         -61.3017  -47.0037  -26.1909 C.3     1  UNL1        0.0472
     11 C         -60.1243  -46.0375  -25.8938 C.3     1  UNL1        0.0252
     12 C         -60.5992  -44.6106  -25.5976 C.3     1  UNL1        0.0923
     13 C         -61.5542  -47.1141  -27.7036 C.3     1  UNL1        0.2054
     14 O         -61.9692  -45.8510  -28.2204 O.3     1  UNL1       -0.4755
     15 C         -61.4007  -45.2255  -29.3396 C.ar    1  UNL1        0.1388
     16 C         -60.0300  -45.3194  -29.6408 C.ar    1  UNL1        0.0369
     17 C         -59.5149  -44.6803  -30.7699 C.ar    1  UNL1        0.0033
     18 C         -60.3541  -43.9391  -31.6051 C.ar    1  UNL1        0.0066
     19 C         -61.7252  -43.8244  -31.3148 C.ar    1  UNL1        0.0785
     20 C         -62.2376  -44.4823  -30.1811 C.ar    1  UNL1        0.0433
     21 C         -62.6330  -43.0457  -32.1926 C.2     1  UNL1        0.3381
     22 O         -63.5251  -42.3180  -31.6808 O.2     1  UNL1       -0.2451
     23 O         -62.5209  -43.0812  -33.5822 O.3     1  UNL1       -0.4771
     24 H         -61.7666  -43.5597  -34.0568 H       1  UNL1        0.2954
     25 N         -63.4136  -39.7584  -22.2151 N.am    1  UNL1       -0.2766
     26 C         -63.3353  -39.4204  -20.8209 C.2     1  UNL1        0.2839
     27 O         -62.5605  -40.0559  -20.0564 O.2     1  UNL1       -0.2665
     28 H         -63.8044  -39.0452  -22.8716 H       1  UNL1        0.1553
     29 C         -64.1350  -38.2987  -20.2930 C.ar    1  UNL1        0.1946
     30 O         -63.5965  -37.2591  -19.6809 O.2     1  UNL1       -0.4492
     31 C         -64.5660  -36.4462  -19.3391 C.ar    1  UNL1        0.1452
     32 C         -64.4528  -35.2297  -18.6752 C.ar    1  UNL1        0.0375
     33 C         -65.6310  -34.5117  -18.4072 C.ar    1  UNL1        0.0031
     34 C         -66.8985  -35.0172  -18.8042 C.ar    1  UNL1        0.0002
     35 C         -66.9697  -36.2605  -19.4777 C.ar    1  UNL1        0.0028
     36 C         -65.7800  -36.9464  -19.7271 C.ar    1  UNL1        0.0337
     37 C         -65.5255  -38.1523  -20.3520 C.ar    1  UNL1        0.0202
     38 C         -66.5208  -39.0947  -20.9591 C.3     1  UNL1        0.0345
     39 C         -68.1366  -34.2497  -18.5158 C.ar    1  UNL1        0.0000
     40 C         -68.1024  -33.1301  -17.6627 C.ar    1  UNL1        0.0000
     41 C         -69.2696  -32.4087  -17.3936 C.ar    1  UNL1        0.0000
     42 C         -70.4814  -32.7955  -17.9703 C.ar    1  UNL1        0.0000
     43 C         -70.5286  -33.9044  -18.8179 C.ar    1  UNL1        0.0000
     44 C         -69.3643  -34.6289  -19.0913 C.ar    1  UNL1        0.0000
     45 C         -58.8400  -43.3293  -22.4194 C.3     1  UNL1        0.0774
     46 C         -60.2645  -43.5885  -22.0340 C.2     1  UNL1        0.1762
     47 O         -60.5026  -44.3608  -21.0671 O.2     1  UNL1       -0.2912
@<TRIPOS>BOND
     1    45    46    1
     2    46    47    2
     3    46     1    1
     4     1     2   ar
     5     2     3   ar
     6     3    25    1
     7    25    26   am
     8    26    27    2
     9    26    29    1
    10    29    30   ar
    11    30    31   ar
    12    31    32   ar
    13    32    33   ar
    14    33    34   ar
    15    34    39    1
    16    39    40   ar
    17    40    41   ar
    18    41    42   ar
    19    42    43   ar
    20    43    44   ar
    21    34    35   ar
    22    35    36   ar
    23    36    37   ar
    24    37    38    1
    25     3     4   ar
    26     4     5   ar
    27     5     6   ar
    28     6     7    1
    29     7     8    1
    30     8     9    1
    31     9    10    1
    32    10    13    1
    33    13    14    1
    34    14    15    1
    35    15    16   ar
    36    16    17   ar
    37    17    18   ar
    38    18    19   ar
    39    19    21    1
    40    21    22    2
    41    21    23    1
    42    19    20   ar
    43    10    11    1
    44    11    12    1
    45     6     1   ar
    46    12     7    1
    47    37    29   ar
    48    20    15   ar
    49    36    31   ar
    50    44    39   ar
    51    25    28    1
    52    23    24    1
@<TRIPOS>MOLECULE
*****
 47 52 0 0 0
SMALL
GASTEIGER

@<TRIPOS>ATOM
      1 C         -67.2300  -54.9985  -25.7855 C.ar    1  UNL1        0.0675
      2 C         -66.1862  -54.2058  -25.2855 C.ar    1  UNL1        0.0219
      3 C         -65.2432  -53.6374  -26.1551 C.ar    1  UNL1        0.0702
      4 C         -65.3931  -53.8417  -27.5301 C.ar    1  UNL1        0.1149
      5 N         -66.4253  -54.5848  -28.0043 N.ar    1  UNL1       -0.2278
      6 C         -67.3470  -55.1595  -27.1845 C.ar    1  UNL1        0.1345
      7 N         -68.4555  -55.8589  -27.7728 N.pl3   1  UNL1       -0.2932
      8 C         -68.8542  -57.1749  -27.2524 C.3     1  UNL1        0.0923
      9 C         -70.3754  -57.2322  -27.0997 C.3     1  UNL1        0.0252
     10 C         -71.1077  -56.9656  -28.4426 C.3     1  UNL1        0.0472
     11 C         -70.2653  -56.1197  -29.4340 C.3     1  UNL1        0.0252
     12 C         -69.3239  -55.1450  -28.7178 C.3     1  UNL1        0.0923
     13 C         -72.4807  -56.3187  -28.1966 C.3     1  UNL1        0.2054
     14 O         -73.0887  -55.9805  -29.4420 O.3     1  UNL1       -0.4755
     15 C         -73.8446  -54.8210  -29.6675 C.ar    1  UNL1        0.1388
     16 C         -74.3598  -54.4911  -30.9341 C.ar    1  UNL1        0.0369
     17 C         -75.1096  -53.3261  -31.1043 C.ar    1  UNL1        0.0033
     18 C         -75.3494  -52.4772  -30.0212 C.ar    1  UNL1        0.0066
     19 C         -74.8337  -52.7841  -28.7495 C.ar    1  UNL1        0.0785
     20 C         -74.0893  -53.9670  -28.5850 C.ar    1  UNL1        0.0433
     21 C         -75.0820  -51.8974  -27.5863 C.2     1  UNL1        0.3381
     22 O         -75.2250  -52.3974  -26.4387 O.2     1  UNL1       -0.2451
     23 O         -75.1482  -50.5109  -27.7199 O.3     1  UNL1       -0.4771
     24 H         -74.9413  -50.0359  -28.5886 H       1  UNL1        0.2954
     25 N         -64.1661  -52.8163  -25.6717 N.am    1  UNL1       -0.2766
     26 C         -63.9788  -52.4686  -24.2903 C.2     1  UNL1        0.2839
     27 O         -64.6112  -53.0833  -23.3898 O.2     1  UNL1       -0.2665
     28 H         -63.4289  -52.5283  -26.3544 H       1  UNL1        0.1553
     29 C         -63.0121  -51.4160  -23.9244 C.ar    1  UNL1        0.1946
     30 O         -61.9248  -51.6562  -23.2133 O.2     1  UNL1       -0.4492
     31 C         -61.2823  -50.5235  -23.0648 C.ar    1  UNL1        0.1452
     32 C         -60.0872  -50.3140  -22.3856 C.ar    1  UNL1        0.0375
     33 C         -59.5678  -49.0084  -22.3509 C.ar    1  UNL1        0.0031
     34 C         -60.2467  -47.9369  -22.9917 C.ar    1  UNL1        0.0002
     35 C         -61.4615  -48.1932  -23.6721 C.ar    1  UNL1        0.0028
     36 C         -61.9482  -49.5013  -23.6862 C.ar    1  UNL1        0.0337
     37 C         -63.0779  -50.0578  -24.2548 C.ar    1  UNL1        0.0202
     38 C         -64.1393  -49.3591  -25.0502 C.3     1  UNL1        0.0345
     39 C         -59.6883  -46.5616  -22.9485 C.ar    1  UNL1        0.0000
     40 C         -58.2972  -46.3558  -22.8778 C.ar    1  UNL1        0.0000
     41 C         -57.7741  -45.0596  -22.8382 C.ar    1  UNL1        0.0000
     42 C         -58.6305  -43.9568  -22.8676 C.ar    1  UNL1        0.0000
     43 C         -60.0122  -44.1477  -22.9372 C.ar    1  UNL1        0.0000
     44 C         -60.5408  -45.4415  -22.9781 C.ar    1  UNL1        0.0000
     45 C         -69.4251  -55.0279  -24.3962 C.3     1  UNL1        0.0774
     46 C         -68.1403  -55.6653  -24.8300 C.2     1  UNL1        0.1762
     47 O         -67.8726  -56.8296  -24.4290 O.2     1  UNL1       -0.2912
@<TRIPOS>BOND
     1    45    46    1
     2    46    47    2
     3    46     1    1
     4     1     2   ar
     5     2     3   ar
     6     3    25    1
     7    25    26   am
     8    26    27    2
     9    26    29    1
    10    29    30   ar
    11    30    31   ar
    12    31    32   ar
    13    32    33   ar
    14    33    34   ar
    15    34    39    1
    16    39    40   ar
    17    40    41   ar
    18    41    42   ar
    19    42    43   ar
    20    43    44   ar
    21    34    35   ar
    22    35    36   ar
    23    36    37   ar
    24    37    38    1
    25     3     4   ar
    26     4     5   ar
    27     5     6   ar
    28     6     7    1
    29     7     8    1
    30     8     9    1
    31     9    10    1
    32    10    13    1
    33    13    14    1
    34    14    15    1
    35    15    16   ar
    36    16    17   ar
    37    17    18   ar
    38    18    19   ar
    39    19    21    1
    40    21    22    2
    41    21    23    1
    42    19    20   ar
    43    10    11    1
    44    11    12    1
    45     6     1   ar
    46    12     7    1
    47    37    29   ar
    48    20    15   ar
    49    36    31   ar
    50    44    39   ar
    51    25    28    1
    52    23    24    1
@<TRIPOS>MOLECULE
*****
 47 52 0 0 0
SMALL
GASTEIGER

@<TRIPOS>ATOM
      1 C         -66.6072  -54.1588  -23.6339 C.ar    1  UNL1        0.0675
      2 C         -65.6473  -53.1715  -23.3665 C.ar    1  UNL1        0.0219
      3 C         -64.8005  -52.7063  -24.3840 C.ar    1  UNL1        0.0702
      4 C         -64.9649  -53.2155  -25.6757 C.ar    1  UNL1        0.1149
      5 N         -65.9183  -54.1480  -25.9289 N.ar    1  UNL1       -0.2278
      6 C         -66.7446  -54.6277  -24.9598 C.ar    1  UNL1        0.1345
      7 N         -67.7820  -55.5502  -25.3296 N.pl3   1  UNL1       -0.2932
      8 C         -67.8170  -56.8942  -24.7344 C.3     1  UNL1        0.0923
      9 C         -69.2459  -57.2333  -24.3053 C.3     1  UNL1        0.0252
     10 C         -70.2432  -57.1698  -25.4936 C.3     1  UNL1        0.0472
     11 C         -69.7722  -56.2229  -26.6292 C.3     1  UNL1        0.0252
     12 C         -68.9270  -55.0565  -26.1054 C.3     1  UNL1        0.0923
     13 C         -71.6499  -56.7860  -25.0057 C.3     1  UNL1        0.2054
     14 O         -71.5567  -55.7893  -23.9896 O.3     1  UNL1       -0.4755
     15 C         -71.9879  -55.9617  -22.6662 C.ar    1  UNL1        0.1388
     16 C         -72.8337  -57.0173  -22.2802 C.ar    1  UNL1        0.0369
     17 C         -73.2310  -57.1460  -20.9482 C.ar    1  UNL1        0.0033
     18 C         -72.7969  -56.2262  -19.9908 C.ar    1  UNL1        0.0066
     19 C         -71.9598  -55.1580  -20.3590 C.ar    1  UNL1        0.0785
     20 C         -71.5547  -55.0434  -21.7019 C.ar    1  UNL1        0.0433
     21 C         -71.4847  -54.1741  -19.3555 C.2     1  UNL1        0.3381
     22 O         -70.7984  -54.5647  -18.3737 O.2     1  UNL1       -0.2451
     23 O         -71.7630  -52.8126  -19.4720 O.3     1  UNL1       -0.4771
     24 H         -72.2179  -52.4162  -20.2838 H       1  UNL1        0.2954
     25 N         -63.8113  -51.6914  -24.1406 N.am    1  UNL1       -0.2766
     26 C         -62.7374  -51.8267  -23.1957 C.2     1  UNL1        0.2839
     27 O         -62.4565  -52.9561  -22.7117 O.2     1  UNL1       -0.2665
     28 H         -63.8251  -50.8418  -24.7492 H       1  UNL1        0.1553
     29 C         -61.9360  -50.6453  -22.8235 C.ar    1  UNL1        0.1946
     30 O         -61.4865  -50.4403  -21.5981 O.2     1  UNL1       -0.4492
     31 C         -60.8147  -49.3150  -21.5986 C.ar    1  UNL1        0.1452
     32 C         -60.1688  -48.7173  -20.5220 C.ar    1  UNL1        0.0375
     33 C         -59.5001  -47.5014  -20.7455 C.ar    1  UNL1        0.0031
     34 C         -59.4868  -46.9035  -22.0347 C.ar    1  UNL1        0.0002
     35 C         -60.1575  -47.5449  -23.1040 C.ar    1  UNL1        0.0028
     36 C         -60.8113  -48.7508  -22.8460 C.ar    1  UNL1        0.0337
     37 C         -61.5344  -49.5995  -23.6621 C.ar    1  UNL1        0.0202
     38 C         -61.8240  -49.4349  -25.1238 C.3     1  UNL1        0.0345
     39 C         -58.7768  -45.6188  -22.2590 C.ar    1  UNL1        0.0000
     40 C         -59.4984  -44.4379  -22.5184 C.ar    1  UNL1        0.0000
     41 C         -58.8273  -43.2293  -22.7283 C.ar    1  UNL1        0.0000
     42 C         -57.4320  -43.1852  -22.6829 C.ar    1  UNL1        0.0000
     43 C         -56.7048  -44.3496  -22.4269 C.ar    1  UNL1        0.0000
     44 C         -57.3707  -45.5608  -22.2153 C.ar    1  UNL1        0.0000
     45 C         -68.6612  -54.0208  -22.0492 C.3     1  UNL1        0.0774
     46 C         -67.4078  -54.6977  -22.5136 C.2     1  UNL1        0.1762
     47 O         -67.0757  -55.7926  -21.9855 O.2     1  UNL1       -0.2912
@<TRIPOS>BOND
     1    45    46    1
     2    46    47    2
     3    46     1    1
     4     1     2   ar
     5     2     3   ar
     6     3    25    1
     7    25    26   am
     8    26    27    2
     9    26    29    1
    10    29    30   ar
    11    30    31   ar
    12    31    32   ar
    13    32    33   ar
    14    33    34   ar
    15    34    39    1
    16    39    40   ar
    17    40    41   ar
    18    41    42   ar
    19    42    43   ar
    20    43    44   ar
    21    34    35   ar
    22    35    36   ar
    23    36    37   ar
    24    37    38    1
    25     3     4   ar
    26     4     5   ar
    27     5     6   ar
    28     6     7    1
    29     7     8    1
    30     8     9    1
    31     9    10    1
    32    10    13    1
    33    13    14    1
    34    14    15    1
    35    15    16   ar
    36    16    17   ar
    37    17    18   ar
    38    18    19   ar
    39    19    21    1
    40    21    22    2
    41    21    23    1
    42    19    20   ar
    43    10    11    1
    44    11    12    1
    45     6     1   ar
    46    12     7    1
    47    37    29   ar
    48    20    15   ar
    49    36    31   ar
    50    44    39   ar
    51    25    28    1
    52    23    24    1
@<TRIPOS>MOLECULE
*****
 47 52 0 0 0
SMALL
GASTEIGER

@<TRIPOS>ATOM
      1 C         -62.2654  -46.9355  -24.6117 C.ar    1  UNL1        0.0675
      2 C         -62.3328  -45.5610  -24.3401 C.ar    1  UNL1        0.0219
      3 C         -62.1639  -45.0838  -23.0315 C.ar    1  UNL1        0.0702
      4 C         -61.8836  -46.0026  -22.0156 C.ar    1  UNL1        0.1149
      5 N         -61.7899  -47.3274  -22.2961 N.ar    1  UNL1       -0.2278
      6 C         -61.9623  -47.8206  -23.5527 C.ar    1  UNL1        0.1345
      7 N         -61.7622  -49.2254  -23.7779 N.pl3   1  UNL1       -0.2932
      8 C         -60.4983  -49.8613  -23.3782 C.3     1  UNL1        0.0923
      9 C         -60.7869  -51.1821  -22.6621 C.3     1  UNL1        0.0252
     10 C         -61.5989  -52.1629  -23.5507 C.3     1  UNL1        0.0472
     11 C         -62.4489  -51.4403  -24.6292 C.3     1  UNL1        0.0252
     12 C         -62.9099  -50.0505  -24.1763 C.3     1  UNL1        0.0923
     13 C         -62.4752  -53.0846  -22.6864 C.3     1  UNL1        0.2054
     14 O         -63.8374  -52.9859  -23.0978 O.3     1  UNL1       -0.4755
     15 C         -64.7881  -54.0059  -22.9475 C.ar    1  UNL1        0.1388
     16 C         -64.5992  -55.0896  -22.0708 C.ar    1  UNL1        0.0369
     17 C         -65.5790  -56.0772  -21.9557 C.ar    1  UNL1        0.0033
     18 C         -66.7503  -56.0003  -22.7129 C.ar    1  UNL1        0.0066
     19 C         -66.9528  -54.9305  -23.6028 C.ar    1  UNL1        0.0785
     20 C         -65.9649  -53.9332  -23.7031 C.ar    1  UNL1        0.0433
     21 C         -68.1923  -54.8291  -24.4116 C.2     1  UNL1        0.3381
     22 O         -68.4534  -55.7149  -25.2687 O.2     1  UNL1       -0.2451
     23 O         -69.0967  -53.7811  -24.2425 O.3     1  UNL1       -0.4771
     24 H         -69.0042  -53.0941  -23.5059 H       1  UNL1        0.2954
     25 N         -62.2222  -43.6802  -22.7242 N.am    1  UNL1       -0.2766
     26 C         -61.7741  -43.1102  -21.4838 C.2     1  UNL1        0.2839
     27 O         -61.0637  -43.7884  -20.6938 O.2     1  UNL1       -0.2665
     28 H         -62.5284  -43.0281  -23.4815 H       1  UNL1        0.1553
     29 C         -62.1137  -41.7128  -21.1548 C.ar    1  UNL1        0.1946
     30 O         -61.4204  -40.6813  -21.6031 O.2     1  UNL1       -0.4492
     31 C         -61.9759  -39.5895  -21.1371 C.ar    1  UNL1        0.1452
     32 C         -61.5736  -38.2771  -21.3591 C.ar    1  UNL1        0.0375
     33 C         -62.3198  -37.2476  -20.7599 C.ar    1  UNL1        0.0031
     34 C         -63.4508  -37.5431  -19.9517 C.ar    1  UNL1        0.0002
     35 C         -63.8263  -38.8932  -19.7506 C.ar    1  UNL1        0.0028
     36 C         -63.0626  -39.8898  -20.3605 C.ar    1  UNL1        0.0337
     37 C         -63.1738  -41.2671  -20.3575 C.ar    1  UNL1        0.0202
     38 C         -64.2040  -42.0991  -19.6547 C.3     1  UNL1        0.0345
     39 C         -64.2317  -36.4471  -19.3238 C.ar    1  UNL1        0.0000
     40 C         -63.6603  -35.6480  -18.3152 C.ar    1  UNL1        0.0000
     41 C         -64.3976  -34.6160  -17.7264 C.ar    1  UNL1        0.0000
     42 C         -65.7103  -34.3707  -18.1354 C.ar    1  UNL1        0.0000
     43 C         -66.2885  -35.1565  -19.1346 C.ar    1  UNL1        0.0000
     44 C         -65.5556  -36.1891  -19.7276 C.ar    1  UNL1        0.0000
     45 C         -61.4568  -47.6434  -26.9770 C.3     1  UNL1        0.0774
     46 C         -62.5531  -47.4068  -25.9834 C.2     1  UNL1        0.1762
     47 O         -63.7378  -47.6921  -26.3046 O.2     1  UNL1       -0.2912
@<TRIPOS>BOND
     1    45    46    1
     2    46    47    2
     3    46     1    1
     4     1     2   ar
     5     2     3   ar
     6     3    25    1
     7    25    26   am
     8    26    27    2
     9    26    29    1
    10    29    30   ar
    11    30    31   ar
    12    31    32   ar
    13    32    33   ar
    14    33    34   ar
    15    34    39    1
    16    39    40   ar
    17    40    41   ar
    18    41    42   ar
    19    42    43   ar
    20    43    44   ar
    21    34    35   ar
    22    35    36   ar
    23    36    37   ar
    24    37    38    1
    25     3     4   ar
    26     4     5   ar
    27     5     6   ar
    28     6     7    1
    29     7     8    1
    30     8     9    1
    31     9    10    1
    32    10    13    1
    33    13    14    1
    34    14    15    1
    35    15    16   ar
    36    16    17   ar
    37    17    18   ar
    38    18    19   ar
    39    19    21    1
    40    21    22    2
    41    21    23    1
    42    19    20   ar
    43    10    11    1
    44    11    12    1
    45     6     1   ar
    46    12     7    1
    47    37    29   ar
    48    20    15   ar
    49    36    31   ar
    50    44    39   ar
    51    25    28    1
    52    23    24    1
@<TRIPOS>MOLECULE
*****
 47 52 0 0 0
SMALL
GASTEIGER

@<TRIPOS>ATOM
      1 C         -61.4303  -42.9507  -22.6618 C.ar    1  UNL1        0.0675
      2 C         -61.9343  -41.7619  -22.1136 C.ar    1  UNL1        0.0219
      3 C         -62.9450  -41.0454  -22.7724 C.ar    1  UNL1        0.0702
      4 C         -63.4673  -41.5651  -23.9606 C.ar    1  UNL1        0.1149
      5 N         -62.9931  -42.7327  -24.4651 N.ar    1  UNL1       -0.2278
      6 C         -62.0046  -43.4422  -23.8557 C.ar    1  UNL1        0.1345
      7 N         -61.6203  -44.7104  -24.4109 N.pl3   1  UNL1       -0.2932
      8 C         -62.1773  -45.9538  -23.8584 C.3     1  UNL1        0.0923
      9 C         -62.6126  -46.8773  -24.9979 C.3     1  UNL1        0.0252
     10 C         -61.4379  -47.2189  -25.9540 C.3     1  UNL1        0.0472
     11 C         -60.3245  -46.1380  -25.9553 C.3     1  UNL1        0.0252
     12 C         -60.8719  -44.7342  -25.6742 C.3     1  UNL1        0.0923
     13 C         -61.9523  -47.4802  -27.3792 C.3     1  UNL1        0.2054
     14 O         -63.2940  -47.0124  -27.5049 O.3     1  UNL1       -0.4755
     15 C         -63.7098  -46.0277  -28.4129 C.ar    1  UNL1        0.1388
     16 C         -64.1958  -46.3413  -29.6951 C.ar    1  UNL1        0.0369
     17 C         -64.6004  -45.3229  -30.5598 C.ar    1  UNL1        0.0033
     18 C         -64.5211  -43.9864  -30.1614 C.ar    1  UNL1        0.0066
     19 C         -64.0279  -43.6521  -28.8877 C.ar    1  UNL1        0.0785
     20 C         -63.6337  -44.6863  -28.0183 C.ar    1  UNL1        0.0433
     21 C         -63.9407  -42.2389  -28.4450 C.2     1  UNL1        0.3381
     22 O         -64.4946  -41.3354  -29.1263 O.2     1  UNL1       -0.2451
     23 O         -63.2706  -41.8743  -27.2776 O.3     1  UNL1       -0.4771
     24 H         -62.8929  -42.5537  -26.6304 H       1  UNL1        0.2954
     25 N         -63.4846  -39.8271  -22.2317 N.am    1  UNL1       -0.2766
     26 C         -63.3186  -39.4115  -20.8664 C.2     1  UNL1        0.2839
     27 O         -62.4655  -39.9764  -20.1304 O.2     1  UNL1       -0.2665
     28 H         -63.9504  -39.1650  -22.8928 H       1  UNL1        0.1553
     29 C         -64.1220  -38.2924  -20.3385 C.ar    1  UNL1        0.1946
     30 O         -63.5847  -37.2378  -19.7514 O.2     1  UNL1       -0.4492
     31 C         -64.5576  -36.4322  -19.4019 C.ar    1  UNL1        0.1452
     32 C         -64.4467  -35.2052  -18.7571 C.ar    1  UNL1        0.0375
     33 C         -65.6285  -34.4980  -18.4760 C.ar    1  UNL1        0.0031
     34 C         -66.8970  -35.0246  -18.8411 C.ar    1  UNL1        0.0002
     35 C         -66.9657  -36.2779  -19.4959 C.ar    1  UNL1        0.0028
     36 C         -65.7725  -36.9527  -19.7591 C.ar    1  UNL1        0.0337
     37 C         -65.5150  -38.1639  -20.3722 C.ar    1  UNL1        0.0202
     38 C         -66.5100  -39.1270  -20.9466 C.3     1  UNL1        0.0345
     39 C         -68.1388  -34.2684  -18.5391 C.ar    1  UNL1        0.0000
     40 C         -68.1098  -33.1634  -17.6671 C.ar    1  UNL1        0.0000
     41 C         -69.2805  -32.4525  -17.3852 C.ar    1  UNL1        0.0000
     42 C         -70.4906  -32.8355  -17.9679 C.ar    1  UNL1        0.0000
     43 C         -70.5326  -33.9301  -18.8343 C.ar    1  UNL1        0.0000
     44 C         -69.3649  -34.6439  -19.1205 C.ar    1  UNL1        0.0000
     45 C         -58.8851  -43.4338  -22.4670 C.3     1  UNL1        0.0774
     46 C         -60.2942  -43.6196  -21.9925 C.2     1  UNL1        0.1762
     47 O         -60.5014  -44.2996  -20.9520 O.2     1  UNL1       -0.2912
@<TRIPOS>BOND
     1    45    46    1
     2    46    47    2
     3    46     1    1
     4     1     2   ar
     5     2     3   ar
     6     3    25    1
     7    25    26   am
     8    26    27    2
     9    26    29    1
    10    29    30   ar
    11    30    31   ar
    12    31    32   ar
    13    32    33   ar
    14    33    34   ar
    15    34    39    1
    16    39    40   ar
    17    40    41   ar
    18    41    42   ar
    19    42    43   ar
    20    43    44   ar
    21    34    35   ar
    22    35    36   ar
    23    36    37   ar
    24    37    38    1
    25     3     4   ar
    26     4     5   ar
    27     5     6   ar
    28     6     7    1
    29     7     8    1
    30     8     9    1
    31     9    10    1
    32    10    13    1
    33    13    14    1
    34    14    15    1
    35    15    16   ar
    36    16    17   ar
    37    17    18   ar
    38    18    19   ar
    39    19    21    1
    40    21    22    2
    41    21    23    1
    42    19    20   ar
    43    10    11    1
    44    11    12    1
    45     6     1   ar
    46    12     7    1
    47    37    29   ar
    48    20    15   ar
    49    36    31   ar
    50    44    39   ar
    51    25    28    1
    52    23    24    1
@<TRIPOS>MOLECULE
*****
 47 52 0 0 0
SMALL
GASTEIGER

@<TRIPOS>ATOM
      1 C         -61.7391  -44.0771  -24.9119 C.ar    1  UNL1        0.0675
      2 C         -61.9773  -45.3166  -24.3000 C.ar    1  UNL1        0.0219
      3 C         -62.7003  -46.3152  -24.9700 C.ar    1  UNL1        0.0702
      4 C         -63.1375  -46.0634  -26.2738 C.ar    1  UNL1        0.1149
      5 N         -62.8738  -44.8714  -26.8673 N.ar    1  UNL1       -0.2278
      6 C         -62.1872  -43.8795  -26.2375 C.ar    1  UNL1        0.1345
      7 N         -61.8776  -42.6813  -26.9673 N.pl3   1  UNL1       -0.2932
      8 C         -60.5334  -42.4909  -27.5316 C.3     1  UNL1        0.0923
      9 C         -60.6430  -41.9707  -28.9661 C.3     1  UNL1        0.0252
     10 C         -61.4289  -40.6338  -29.0442 C.3     1  UNL1        0.0472
     11 C         -62.4233  -40.4467  -27.8678 C.3     1  UNL1        0.0252
     12 C         -62.9726  -41.7800  -27.3485 C.3     1  UNL1        0.0923
     13 C         -62.1467  -40.5008  -30.3975 C.3     1  UNL1        0.2054
     14 O         -62.4088  -41.7947  -30.9377 O.3     1  UNL1       -0.4755
     15 C         -63.5366  -42.5698  -30.6307 C.ar    1  UNL1        0.1388
     16 C         -64.8175  -42.0094  -30.4770 C.ar    1  UNL1        0.0369
     17 C         -65.9084  -42.8263  -30.1746 C.ar    1  UNL1        0.0033
     18 C         -65.7359  -44.2035  -30.0173 C.ar    1  UNL1        0.0066
     19 C         -64.4613  -44.7810  -30.1563 C.ar    1  UNL1        0.0785
     20 C         -63.3698  -43.9512  -30.4732 C.ar    1  UNL1        0.0433
     21 C         -64.2594  -46.2422  -29.9977 C.2     1  UNL1        0.3381
     22 O         -63.2088  -46.6721  -29.4510 O.2     1  UNL1       -0.2451
     23 O         -65.2120  -47.1666  -30.4253 O.3     1  UNL1       -0.4771
     24 H         -66.1196  -46.8917  -30.7771 H       1  UNL1        0.2954
     25 N         -62.9550  -47.5970  -24.3699 N.am    1  UNL1       -0.2766
     26 C         -62.2247  -48.7926  -24.6887 C.2     1  UNL1        0.2839
     27 O         -61.1425  -48.7228  -25.3311 O.2     1  UNL1       -0.2665
     28 H         -63.6542  -47.6413  -23.5942 H       1  UNL1        0.1553
     29 C         -62.7243  -50.1013  -24.2262 C.ar    1  UNL1        0.1946
     30 O         -61.9579  -50.9861  -23.6135 O.2     1  UNL1       -0.4492
     31 C         -62.6958  -52.0322  -23.3326 C.ar    1  UNL1        0.1452
     32 C         -62.2966  -53.1981  -22.6885 C.ar    1  UNL1        0.0375
     33 C         -63.2587  -54.2024  -22.4850 C.ar    1  UNL1        0.0031
     34 C         -64.5984  -54.0280  -22.9260 C.ar    1  UNL1        0.0002
     35 C         -64.9633  -52.8256  -23.5783 C.ar    1  UNL1        0.0028
     36 C         -63.9824  -51.8501  -23.7638 C.ar    1  UNL1        0.0337
     37 C         -64.0265  -50.5988  -24.3483 C.ar    1  UNL1        0.0202
     38 C         -65.2097  -49.9242  -24.9748 C.3     1  UNL1        0.0345
     39 C         -65.6063  -55.0960  -22.7054 C.ar    1  UNL1        0.0000
     40 C         -66.4759  -55.4848  -23.7421 C.ar    1  UNL1        0.0000
     41 C         -67.4234  -56.4914  -23.5318 C.ar    1  UNL1        0.0000
     42 C         -67.5146  -57.1194  -22.2876 C.ar    1  UNL1        0.0000
     43 C         -66.6579  -56.7425  -21.2511 C.ar    1  UNL1        0.0000
     44 C         -65.7079  -55.7373  -21.4561 C.ar    1  UNL1        0.0000
     45 C         -61.8313  -42.1093  -23.2183 C.3     1  UNL1        0.0774
     46 C         -61.0659  -43.0150  -24.1342 C.2     1  UNL1        0.1762
     47 O         -59.8104  -42.9156  -24.1791 O.2     1  UNL1       -0.2912
@<TRIPOS>BOND
     1    45    46    1
     2    46    47    2
     3    46     1    1
     4     1     2   ar
     5     2     3   ar
     6     3    25    1
     7    25    26   am
     8    26    27    2
     9    26    29    1
    10    29    30   ar
    11    30    31   ar
    12    31    32   ar
    13    32    33   ar
    14    33    34   ar
    15    34    39    1
    16    39    40   ar
    17    40    41   ar
    18    41    42   ar
    19    42    43   ar
    20    43    44   ar
    21    34    35   ar
    22    35    36   ar
    23    36    37   ar
    24    37    38    1
    25     3     4   ar
    26     4     5   ar
    27     5     6   ar
    28     6     7    1
    29     7     8    1
    30     8     9    1
    31     9    10    1
    32    10    13    1
    33    13    14    1
    34    14    15    1
    35    15    16   ar
    36    16    17   ar
    37    17    18   ar
    38    18    19   ar
    39    19    21    1
    40    21    22    2
    41    21    23    1
    42    19    20   ar
    43    10    11    1
    44    11    12    1
    45     6     1   ar
    46    12     7    1
    47    37    29   ar
    48    20    15   ar
    49    36    31   ar
    50    44    39   ar
    51    25    28    1
    52    23    24    1
@<TRIPOS>MOLECULE
*****
 47 52 0 0 0
SMALL
GASTEIGER

@<TRIPOS>ATOM
      1 C         -61.4587  -42.9487  -22.7091 C.ar    1  UNL1        0.0675
      2 C         -61.9588  -41.7632  -22.1504 C.ar    1  UNL1        0.0219
      3 C         -62.9514  -41.0258  -22.8136 C.ar    1  UNL1        0.0702
      4 C         -63.4602  -41.5214  -24.0178 C.ar    1  UNL1        0.1149
      5 N         -62.9904  -42.6861  -24.5330 N.ar    1  UNL1       -0.2278
      6 C         -62.0191  -43.4155  -23.9194 C.ar    1  UNL1        0.1345
      7 N         -61.6394  -44.6789  -24.4883 N.pl3   1  UNL1       -0.2932
      8 C         -62.2096  -45.9255  -23.9567 C.3     1  UNL1        0.0923
      9 C         -62.6423  -46.8308  -25.1117 C.3     1  UNL1        0.0252
     10 C         -61.4624  -47.1682  -26.0629 C.3     1  UNL1        0.0472
     11 C         -60.3414  -46.0954  -26.0412 C.3     1  UNL1        0.0252
     12 C         -60.8811  -44.6915  -25.7459 C.3     1  UNL1        0.0923
     13 C         -61.9673  -47.4070  -27.4955 C.3     1  UNL1        0.2054
     14 O         -62.9804  -46.4561  -27.8185 O.3     1  UNL1       -0.4755
     15 C         -62.9372  -45.5946  -28.9243 C.ar    1  UNL1        0.1388
     16 C         -61.7460  -44.9874  -29.3611 C.ar    1  UNL1        0.0369
     17 C         -61.7568  -44.1402  -30.4705 C.ar    1  UNL1        0.0033
     18 C         -62.9496  -43.8848  -31.1512 C.ar    1  UNL1        0.0066
     19 C         -64.1526  -44.4738  -30.7233 C.ar    1  UNL1        0.0785
     20 C         -64.1297  -45.3361  -29.6113 C.ar    1  UNL1        0.0433
     21 C         -65.4283  -44.2184  -31.4363 C.2     1  UNL1        0.3381
     22 O         -65.7213  -44.8981  -32.4558 O.2     1  UNL1       -0.2451
     23 O         -66.3320  -43.2492  -31.0017 O.3     1  UNL1       -0.4771
     24 H         -66.2114  -42.7397  -30.1362 H       1  UNL1        0.2954
     25 N         -63.4867  -39.8103  -22.2624 N.am    1  UNL1       -0.2766
     26 C         -63.3324  -39.4145  -20.8898 C.2     1  UNL1        0.2839
     27 O         -62.4923  -39.9965  -20.1522 O.2     1  UNL1       -0.2665
     28 H         -63.9395  -39.1354  -22.9196 H       1  UNL1        0.1553
     29 C         -64.1322  -38.2958  -20.3557 C.ar    1  UNL1        0.1946
     30 O         -63.5921  -37.2507  -19.7543 O.2     1  UNL1       -0.4492
     31 C         -64.5622  -36.4425  -19.4029 C.ar    1  UNL1        0.1452
     32 C         -64.4478  -35.2229  -18.7448 C.ar    1  UNL1        0.0375
     33 C         -65.6269  -34.5111  -18.4642 C.ar    1  UNL1        0.0031
     34 C         -66.8963  -35.0258  -18.8430 C.ar    1  UNL1        0.0002
     35 C         -66.9685  -36.2719  -19.5111 C.ar    1  UNL1        0.0028
     36 C         -65.7779  -36.9515  -19.7734 C.ar    1  UNL1        0.0337
     37 C         -65.5241  -38.1580  -20.3972 C.ar    1  UNL1        0.0202
     38 C         -66.5214  -39.1088  -20.9880 C.3     1  UNL1        0.0345
     39 C         -68.1352  -34.2648  -18.5414 C.ar    1  UNL1        0.0000
     40 C         -69.3662  -34.6478  -19.1073 C.ar    1  UNL1        0.0000
     41 C         -70.5315  -33.9299  -18.8207 C.ar    1  UNL1        0.0000
     42 C         -70.4819  -32.8239  -17.9693 C.ar    1  UNL1        0.0000
     43 C         -69.2669  -32.4337  -17.4019 C.ar    1  UNL1        0.0000
     44 C         -68.0988  -33.1484  -17.6842 C.ar    1  UNL1        0.0000
     45 C         -58.9376  -43.5559  -22.5525 C.3     1  UNL1        0.0774
     46 C         -60.3403  -43.6400  -22.0326 C.2     1  UNL1        0.1762
     47 O         -60.5531  -44.2503  -20.9508 O.2     1  UNL1       -0.2912
@<TRIPOS>BOND
     1    45    46    1
     2    46    47    2
     3    46     1    1
     4     1     2   ar
     5     2     3   ar
     6     3    25    1
     7    25    26   am
     8    26    27    2
     9    26    29    1
    10    29    30   ar
    11    30    31   ar
    12    31    32   ar
    13    32    33   ar
    14    33    34   ar
    15    34    39    1
    16    39    40   ar
    17    40    41   ar
    18    41    42   ar
    19    42    43   ar
    20    43    44   ar
    21    34    35   ar
    22    35    36   ar
    23    36    37   ar
    24    37    38    1
    25     3     4   ar
    26     4     5   ar
    27     5     6   ar
    28     6     7    1
    29     7     8    1
    30     8     9    1
    31     9    10    1
    32    10    13    1
    33    13    14    1
    34    14    15    1
    35    15    16   ar
    36    16    17   ar
    37    17    18   ar
    38    18    19   ar
    39    19    21    1
    40    21    22    2
    41    21    23    1
    42    19    20   ar
    43    10    11    1
    44    11    12    1
    45     6     1   ar
    46    12     7    1
    47    37    29   ar
    48    20    15   ar
    49    36    31   ar
    50    44    39   ar
    51    25    28    1
    52    23    24    1
