@<TRIPOS>MOLECULE
*****
 46 51 0 0 0
SMALL
GASTEIGER

@<TRIPOS>ATOM
      1 C         -68.4059  -54.4475  -23.2230 C.ar    1  UNL1        0.1713
      2 C         -67.2761  -53.6445  -22.9860 C.ar    1  UNL1        0.0560
      3 C         -66.1559  -53.7306  -23.8203 C.ar    1  UNL1        0.0732
      4 C         -66.1690  -54.6606  -24.8694 C.ar    1  UNL1        0.1151
      5 N         -67.2616  -55.4398  -25.0768 N.ar    1  UNL1       -0.2248
      6 C         -68.3675  -55.3667  -24.2870 C.ar    1  UNL1        0.1660
      7 N         -69.4932  -56.2123  -24.5721 N.pl3   1  UNL1       -0.2908
      8 C         -69.8604  -56.4621  -25.9722 C.3     1  UNL1        0.0924
      9 C         -71.2107  -57.1867  -26.0787 C.3     1  UNL1        0.0252
     10 C         -72.1983  -56.6188  -25.0409 C.3     1  UNL1        0.0472
     11 C         -71.6831  -56.8350  -23.5935 C.3     1  UNL1        0.0252
     12 C         -70.1525  -56.9699  -23.5012 C.3     1  UNL1        0.0924
     13 C         -73.6031  -57.2271  -25.2167 C.3     1  UNL1        0.2054
     14 O         -74.5384  -56.2471  -25.6707 O.3     1  UNL1       -0.4755
     15 C         -74.3458  -55.3732  -26.7535 C.ar    1  UNL1        0.1388
     16 C         -74.2973  -53.9740  -26.6040 C.ar    1  UNL1        0.0369
     17 C         -74.1013  -53.1553  -27.7179 C.ar    1  UNL1        0.0033
     18 C         -73.9557  -53.7168  -28.9881 C.ar    1  UNL1        0.0066
     19 C         -74.0068  -55.1102  -29.1585 C.ar    1  UNL1        0.0785
     20 C         -74.2044  -55.9290  -28.0313 C.ar    1  UNL1        0.0433
     21 C         -73.8539  -55.7035  -30.5054 C.2     1  UNL1        0.3381
     22 O         -74.1722  -56.9056  -30.7139 O.2     1  UNL1       -0.2451
     23 O         -73.3561  -54.9384  -31.5570 O.3     1  UNL1       -0.4771
     24 H         -73.2474  -55.3347  -32.4829 H       1  UNL1        0.2954
     25 N         -65.0062  -52.9125  -23.5480 N.am    1  UNL1       -0.2766
     26 C         -64.4118  -52.0145  -24.5017 C.2     1  UNL1        0.2839
     27 O         -64.8346  -51.9707  -25.6877 O.2     1  UNL1       -0.2665
     28 H         -64.6260  -52.9372  -22.5769 H       1  UNL1        0.1553
     29 C         -63.2840  -51.1434  -24.1284 C.ar    1  UNL1        0.1946
     30 O         -62.1985  -51.6088  -23.5355 O.2     1  UNL1       -0.4492
     31 C         -61.3883  -50.5994  -23.3293 C.ar    1  UNL1        0.1452
     32 C         -60.1349  -50.6299  -22.7277 C.ar    1  UNL1        0.0375
     33 C         -59.4295  -49.4195  -22.6107 C.ar    1  UNL1        0.0031
     34 C         -59.9836  -48.2032  -23.0945 C.ar    1  UNL1        0.0002
     35 C         -61.2625  -48.2168  -23.7012 C.ar    1  UNL1        0.0028
     36 C         -61.9340  -49.4357  -23.7983 C.ar    1  UNL1        0.0337
     37 C         -63.1602  -49.7646  -24.3400 C.ar    1  UNL1        0.0202
     38 C         -64.1105  -48.8352  -25.0323 C.3     1  UNL1        0.0345
     39 C         -59.2294  -46.9305  -22.9655 C.ar    1  UNL1        0.0000
     40 C         -57.8458  -46.9416  -22.7051 C.ar    1  UNL1        0.0000
     41 C         -57.1381  -45.7417  -22.5841 C.ar    1  UNL1        0.0000
     42 C         -57.8011  -44.5201  -22.7199 C.ar    1  UNL1        0.0000
     43 C         -59.1734  -44.4956  -22.9775 C.ar    1  UNL1        0.0000
     44 C         -59.8860  -45.6924  -23.1004 C.ar    1  UNL1        0.0000
     45 C         -69.6034  -53.9305  -21.0867 C.3     1  UNL1        0.2526
     46 O         -69.5723  -54.3435  -22.4484 O.3     1  UNL1       -0.4686
@<TRIPOS>BOND
     1    45    46    1
     2    46     1    1
     3     1     2   ar
     4     2     3   ar
     5     3    25    1
     6    25    26   am
     7    26    27    2
     8    26    29    1
     9    29    30   ar
    10    30    31   ar
    11    31    32   ar
    12    32    33   ar
    13    33    34   ar
    14    34    39    1
    15    39    40   ar
    16    40    41   ar
    17    41    42   ar
    18    42    43   ar
    19    43    44   ar
    20    34    35   ar
    21    35    36   ar
    22    36    37   ar
    23    37    38    1
    24     3     4   ar
    25     4     5   ar
    26     5     6   ar
    27     6     7    1
    28     7     8    1
    29     8     9    1
    30     9    10    1
    31    10    13    1
    32    13    14    1
    33    14    15    1
    34    15    16   ar
    35    16    17   ar
    36    17    18   ar
    37    18    19   ar
    38    19    21    1
    39    21    22    2
    40    21    23    1
    41    19    20   ar
    42    10    11    1
    43    11    12    1
    44     6     1   ar
    45    12     7    1
    46    37    29   ar
    47    20    15   ar
    48    36    31   ar
    49    44    39   ar
    50    25    28    1
    51    23    24    1
@<TRIPOS>MOLECULE
*****
 46 51 0 0 0
SMALL
GASTEIGER

@<TRIPOS>ATOM
      1 C         -61.3116  -42.7078  -23.0973 C.ar    1  UNL1        0.1713
      2 C         -62.0465  -41.6364  -22.5592 C.ar    1  UNL1        0.0560
      3 C         -62.8089  -41.8102  -21.3985 C.ar    1  UNL1        0.0732
      4 C         -62.8559  -43.0816  -20.8093 C.ar    1  UNL1        0.1151
      5 N         -62.1526  -44.1101  -21.3490 N.ar    1  UNL1       -0.2248
      6 C         -61.3948  -43.9639  -22.4700 C.ar    1  UNL1        0.1660
      7 N         -60.6662  -45.0923  -22.9791 N.pl3   1  UNL1       -0.2908
      8 C         -61.2361  -45.8665  -24.0898 C.3     1  UNL1        0.0924
      9 C         -60.4418  -47.1571  -24.3412 C.3     1  UNL1        0.0252
     10 C         -60.0295  -47.7936  -22.9997 C.3     1  UNL1        0.0472
     11 C         -59.1075  -46.8478  -22.1856 C.3     1  UNL1        0.0252
     12 C         -59.2925  -45.3603  -22.5355 C.3     1  UNL1        0.0924
     13 C         -59.3538  -49.1615  -23.2157 C.3     1  UNL1        0.2054
     14 O         -60.0742  -50.2044  -22.5564 O.3     1  UNL1       -0.4755
     15 C         -61.2598  -50.7983  -23.0198 C.ar    1  UNL1        0.1388
     16 C         -61.5993  -52.1370  -22.7455 C.ar    1  UNL1        0.0369
     17 C         -62.7934  -52.6724  -23.2320 C.ar    1  UNL1        0.0033
     18 C         -63.6579  -51.8865  -23.9968 C.ar    1  UNL1        0.0066
     19 C         -63.3343  -50.5504  -24.2860 C.ar    1  UNL1        0.0785
     20 C         -62.1292  -50.0176  -23.7921 C.ar    1  UNL1        0.0433
     21 C         -64.2508  -49.7195  -25.0979 C.2     1  UNL1        0.3381
     22 O         -64.0980  -49.6334  -26.3465 O.2     1  UNL1       -0.2451
     23 O         -65.2922  -49.0236  -24.4894 O.3     1  UNL1       -0.4771
     24 H         -65.9252  -48.4519  -25.0359 H       1  UNL1        0.2954
     25 N         -63.5655  -40.7053  -20.8769 N.am    1  UNL1       -0.2766
     26 C         -63.0327  -39.3831  -20.6843 C.2     1  UNL1        0.2839
     27 O         -61.8115  -39.1502  -20.8886 O.2     1  UNL1       -0.2665
     28 H         -64.5775  -40.8717  -20.6863 H       1  UNL1        0.1553
     29 C         -63.8885  -38.2762  -20.2231 C.ar    1  UNL1        0.1946
     30 O         -63.3906  -37.1695  -19.7000 O.2     1  UNL1       -0.4492
     31 C         -64.3933  -36.3864  -19.3853 C.ar    1  UNL1        0.1452
     32 C         -64.3312  -35.1245  -18.8043 C.ar    1  UNL1        0.0375
     33 C         -65.5408  -34.4532  -18.5536 C.ar    1  UNL1        0.0031
     34 C         -66.7877  -35.0493  -18.8859 C.ar    1  UNL1        0.0002
     35 C         -66.8058  -36.3355  -19.4768 C.ar    1  UNL1        0.0028
     36 C         -65.5866  -36.9723  -19.7091 C.ar    1  UNL1        0.0337
     37 C         -65.2857  -38.1957  -20.2729 C.ar    1  UNL1        0.0202
     38 C         -66.2600  -39.1824  -20.8418 C.3     1  UNL1        0.0345
     39 C         -68.0591  -34.3310  -18.6165 C.ar    1  UNL1        0.0000
     40 C         -69.2503  -34.7184  -19.2595 C.ar    1  UNL1        0.0000
     41 C         -70.4461  -34.0402  -19.0040 C.ar    1  UNL1        0.0000
     42 C         -70.4671  -32.9698  -18.1074 C.ar    1  UNL1        0.0000
     43 C         -69.2922  -32.5752  -17.4638 C.ar    1  UNL1        0.0000
     44 C         -68.0937  -33.2504  -17.7146 C.ar    1  UNL1        0.0000
     45 C         -60.9373  -42.6054  -25.5701 C.3     1  UNL1        0.2526
     46 O         -60.4844  -42.5563  -24.2216 O.3     1  UNL1       -0.4686
@<TRIPOS>BOND
     1    45    46    1
     2    46     1    1
     3     1     2   ar
     4     2     3   ar
     5     3    25    1
     6    25    26   am
     7    26    27    2
     8    26    29    1
     9    29    30   ar
    10    30    31   ar
    11    31    32   ar
    12    32    33   ar
    13    33    34   ar
    14    34    39    1
    15    39    40   ar
    16    40    41   ar
    17    41    42   ar
    18    42    43   ar
    19    43    44   ar
    20    34    35   ar
    21    35    36   ar
    22    36    37   ar
    23    37    38    1
    24     3     4   ar
    25     4     5   ar
    26     5     6   ar
    27     6     7    1
    28     7     8    1
    29     8     9    1
    30     9    10    1
    31    10    13    1
    32    13    14    1
    33    14    15    1
    34    15    16   ar
    35    16    17   ar
    36    17    18   ar
    37    18    19   ar
    38    19    21    1
    39    21    22    2
    40    21    23    1
    41    19    20   ar
    42    10    11    1
    43    11    12    1
    44     6     1   ar
    45    12     7    1
    46    37    29   ar
    47    20    15   ar
    48    36    31   ar
    49    44    39   ar
    50    25    28    1
    51    23    24    1
@<TRIPOS>MOLECULE
*****
 46 51 0 0 0
SMALL
GASTEIGER

@<TRIPOS>ATOM
      1 C         -61.9770  -47.3759  -23.6155 C.ar    1  UNL1        0.1713
      2 C         -62.2095  -46.0118  -23.3652 C.ar    1  UNL1        0.0560
      3 C         -61.6059  -45.3770  -22.2737 C.ar    1  UNL1        0.0732
      4 C         -60.7998  -46.1378  -21.4153 C.ar    1  UNL1        0.1151
      5 N         -60.5965  -47.4576  -21.6615 N.ar    1  UNL1       -0.2248
      6 C         -61.1625  -48.0951  -22.7224 C.ar    1  UNL1        0.1660
      7 N         -60.8939  -49.4909  -22.9300 N.pl3   1  UNL1       -0.2908
      8 C         -60.4154  -49.9367  -24.2453 C.3     1  UNL1        0.0924
      9 C         -60.4074  -51.4692  -24.3509 C.3     1  UNL1        0.0252
     10 C         -61.6626  -52.0520  -23.6732 C.3     1  UNL1        0.0472
     11 C         -61.7015  -51.7041  -22.1616 C.3     1  UNL1        0.0252
     12 C         -60.9097  -50.4333  -21.8043 C.3     1  UNL1        0.0924
     13 C         -61.7542  -53.5756  -23.8849 C.3     1  UNL1        0.2054
     14 O         -62.5665  -54.1894  -22.8826 O.3     1  UNL1       -0.4755
     15 C         -63.9682  -54.2776  -22.9073 C.ar    1  UNL1        0.1388
     16 C         -64.7656  -53.4993  -23.7680 C.ar    1  UNL1        0.0369
     17 C         -66.1553  -53.6318  -23.7490 C.ar    1  UNL1        0.0033
     18 C         -66.7651  -54.5336  -22.8745 C.ar    1  UNL1        0.0066
     19 C         -65.9872  -55.3149  -22.0041 C.ar    1  UNL1        0.0785
     20 C         -64.5871  -55.1761  -22.0290 C.ar    1  UNL1        0.0433
     21 C         -66.6351  -56.2689  -21.0769 C.2     1  UNL1        0.3381
     22 O         -67.3368  -57.2168  -21.5230 O.2     1  UNL1       -0.2451
     23 O         -66.4758  -56.1282  -19.7007 O.3     1  UNL1       -0.4771
     24 H         -66.9151  -56.7757  -19.0572 H       1  UNL1        0.2954
     25 N         -61.8722  -43.9863  -22.0280 N.am    1  UNL1       -0.2766
     26 C         -62.8596  -43.5068  -21.0984 C.2     1  UNL1        0.2839
     27 O         -63.6224  -44.3140  -20.5034 O.2     1  UNL1       -0.2665
     28 H         -61.2641  -43.2936  -22.5164 H       1  UNL1        0.1553
     29 C         -63.0224  -42.0666  -20.8347 C.ar    1  UNL1        0.1946
     30 O         -62.2014  -41.1599  -21.3349 O.2     1  UNL1       -0.4492
     31 C         -62.6007  -39.9826  -20.9199 C.ar    1  UNL1        0.1452
     32 C         -62.0265  -38.7474  -21.2000 C.ar    1  UNL1        0.0375
     33 C         -62.6252  -37.6011  -20.6486 C.ar    1  UNL1        0.0031
     34 C         -63.7829  -37.7054  -19.8304 C.ar    1  UNL1        0.0002
     35 C         -64.3359  -38.9825  -19.5710 C.ar    1  UNL1        0.0028
     36 C         -63.7141  -40.0975  -20.1331 C.ar    1  UNL1        0.0337
     37 C         -64.0205  -41.4421  -20.0762 C.ar    1  UNL1        0.0202
     38 C         -65.1938  -42.0636  -19.3810 C.3     1  UNL1        0.0345
     39 C         -64.4070  -36.4878  -19.2533 C.ar    1  UNL1        0.0000
     40 C         -65.6916  -36.0801  -19.6607 C.ar    1  UNL1        0.0000
     41 C         -66.2768  -34.9331  -19.1157 C.ar    1  UNL1        0.0000
     42 C         -65.5886  -34.1809  -18.1613 C.ar    1  UNL1        0.0000
     43 C         -64.3134  -34.5743  -17.7494 C.ar    1  UNL1        0.0000
     44 C         -63.7237  -35.7209  -18.2903 C.ar    1  UNL1        0.0000
     45 C         -63.8511  -48.5035  -24.8327 C.3     1  UNL1        0.2526
     46 O         -62.5117  -48.0316  -24.7359 O.3     1  UNL1       -0.4686
@<TRIPOS>BOND
     1    45    46    1
     2    46     1    1
     3     1     2   ar
     4     2     3   ar
     5     3    25    1
     6    25    26   am
     7    26    27    2
     8    26    29    1
     9    29    30   ar
    10    30    31   ar
    11    31    32   ar
    12    32    33   ar
    13    33    34   ar
    14    34    39    1
    15    39    40   ar
    16    40    41   ar
    17    41    42   ar
    18    42    43   ar
    19    43    44   ar
    20    34    35   ar
    21    35    36   ar
    22    36    37   ar
    23    37    38    1
    24     3     4   ar
    25     4     5   ar
    26     5     6   ar
    27     6     7    1
    28     7     8    1
    29     8     9    1
    30     9    10    1
    31    10    13    1
    32    13    14    1
    33    14    15    1
    34    15    16   ar
    35    16    17   ar
    36    17    18   ar
    37    18    19   ar
    38    19    21    1
    39    21    22    2
    40    21    23    1
    41    19    20   ar
    42    10    11    1
    43    11    12    1
    44     6     1   ar
    45    12     7    1
    46    37    29   ar
    47    20    15   ar
    48    36    31   ar
    49    44    39   ar
    50    25    28    1
    51    23    24    1
@<TRIPOS>MOLECULE
*****
 46 51 0 0 0
SMALL
GASTEIGER

@<TRIPOS>ATOM
      1 C         -62.3459  -42.8194  -22.4774 C.ar    1  UNL1        0.1713
      2 C         -63.0870  -41.7371  -21.9705 C.ar    1  UNL1        0.0560
      3 C         -62.8601  -41.2671  -20.6720 C.ar    1  UNL1        0.0732
      4 C         -61.9097  -41.9225  -19.8764 C.ar    1  UNL1        0.1151
      5 N         -61.2124  -42.9757  -20.3747 N.ar    1  UNL1       -0.2248
      6 C         -61.4062  -43.4442  -21.6377 C.ar    1  UNL1        0.1660
      7 N         -60.6238  -44.5548  -22.1043 N.pl3   1  UNL1       -0.2908
      8 C         -59.7214  -44.3608  -23.2470 C.3     1  UNL1        0.0924
      9 C         -59.1513  -45.6970  -23.7464 C.3     1  UNL1        0.0252
     10 C         -60.2448  -46.7824  -23.7158 C.3     1  UNL1        0.0472
     11 C         -60.7614  -47.0234  -22.2728 C.3     1  UNL1        0.0252
     12 C         -60.5750  -45.8099  -21.3441 C.3     1  UNL1        0.0924
     13 C         -59.7429  -48.0976  -24.3425 C.3     1  UNL1        0.2054
     14 O         -59.5887  -49.1166  -23.3528 O.3     1  UNL1       -0.4755
     15 C         -60.3464  -50.2964  -23.2695 C.ar    1  UNL1        0.1388
     16 C         -59.8444  -51.4863  -22.7086 C.ar    1  UNL1        0.0369
     17 C         -60.6456  -52.6283  -22.6515 C.ar    1  UNL1        0.0033
     18 C         -61.9485  -52.6005  -23.1529 C.ar    1  UNL1        0.0066
     19 C         -62.4656  -51.4246  -23.7214 C.ar    1  UNL1        0.0785
     20 C         -61.6523  -50.2776  -23.7753 C.ar    1  UNL1        0.0433
     21 C         -63.8460  -51.3974  -24.2537 C.2     1  UNL1        0.3381
     22 O         -64.3977  -50.3011  -24.5428 O.2     1  UNL1       -0.2451
     23 O         -64.5497  -52.5844  -24.4405 O.3     1  UNL1       -0.4771
     24 H         -65.4952  -52.5770  -24.8043 H       1  UNL1        0.2954
     25 N         -63.6418  -40.1708  -20.1696 N.am    1  UNL1       -0.2766
     26 C         -63.3462  -38.7864  -20.4251 C.2     1  UNL1        0.2839
     27 O         -62.3012  -38.4607  -21.0489 O.2     1  UNL1       -0.2665
     28 H         -64.5072  -40.4098  -19.6384 H       1  UNL1        0.1553
     29 C         -64.2384  -37.7158  -19.9477 C.ar    1  UNL1        0.1946
     30 O         -63.7811  -36.6304  -19.3484 O.2     1  UNL1       -0.4492
     31 C         -64.8088  -35.8776  -19.0399 C.ar    1  UNL1        0.1452
     32 C         -64.7917  -34.6460  -18.3945 C.ar    1  UNL1        0.0375
     33 C         -66.0214  -34.0045  -18.1645 C.ar    1  UNL1        0.0031
     34 C         -67.2432  -34.5997  -18.5810 C.ar    1  UNL1        0.0002
     35 C         -67.2154  -35.8545  -19.2357 C.ar    1  UNL1        0.0028
     36 C         -65.9775  -36.4624  -19.4451 C.ar    1  UNL1        0.0337
     37 C         -65.6332  -37.6516  -20.0554 C.ar    1  UNL1        0.0202
     38 C         -66.5663  -38.6211  -20.7154 C.3     1  UNL1        0.0345
     39 C         -68.5362  -33.9129  -18.3328 C.ar    1  UNL1        0.0000
     40 C         -68.5899  -32.7553  -17.5332 C.ar    1  UNL1        0.0000
     41 C         -69.8088  -32.1107  -17.3010 C.ar    1  UNL1        0.0000
     42 C         -70.9852  -32.6129  -17.8614 C.ar    1  UNL1        0.0000
     43 C         -70.9455  -33.7608  -18.6557 C.ar    1  UNL1        0.0000
     44 C         -69.7292  -34.4090  -18.8920 C.ar    1  UNL1        0.0000
     45 C         -62.7401  -42.4379  -24.9196 C.3     1  UNL1        0.2526
     46 O         -62.4988  -43.2774  -23.7958 O.3     1  UNL1       -0.4686
@<TRIPOS>BOND
     1    45    46    1
     2    46     1    1
     3     1     2   ar
     4     2     3   ar
     5     3    25    1
     6    25    26   am
     7    26    27    2
     8    26    29    1
     9    29    30   ar
    10    30    31   ar
    11    31    32   ar
    12    32    33   ar
    13    33    34   ar
    14    34    39    1
    15    39    40   ar
    16    40    41   ar
    17    41    42   ar
    18    42    43   ar
    19    43    44   ar
    20    34    35   ar
    21    35    36   ar
    22    36    37   ar
    23    37    38    1
    24     3     4   ar
    25     4     5   ar
    26     5     6   ar
    27     6     7    1
    28     7     8    1
    29     8     9    1
    30     9    10    1
    31    10    13    1
    32    13    14    1
    33    14    15    1
    34    15    16   ar
    35    16    17   ar
    36    17    18   ar
    37    18    19   ar
    38    19    21    1
    39    21    22    2
    40    21    23    1
    41    19    20   ar
    42    10    11    1
    43    11    12    1
    44     6     1   ar
    45    12     7    1
    46    37    29   ar
    47    20    15   ar
    48    36    31   ar
    49    44    39   ar
    50    25    28    1
    51    23    24    1
@<TRIPOS>MOLECULE
*****
 46 51 0 0 0
SMALL
GASTEIGER

@<TRIPOS>ATOM
      1 C         -62.5489  -42.4723  -23.5711 C.ar    1  UNL1        0.1713
      2 C         -63.2315  -41.4017  -22.9666 C.ar    1  UNL1        0.0560
      3 C         -63.5837  -41.4576  -21.6133 C.ar    1  UNL1        0.0732
      4 C         -63.2782  -42.6170  -20.8866 C.ar    1  UNL1        0.1151
      5 N         -62.6319  -43.6487  -21.4880 N.ar    1  UNL1       -0.2248
      6 C         -62.2684  -43.6140  -22.7990 C.ar    1  UNL1        0.1660
      7 N         -61.5753  -44.7365  -23.3673 N.pl3   1  UNL1       -0.2908
      8 C         -60.1220  -44.6519  -23.5635 C.3     1  UNL1        0.0924
      9 C         -59.5958  -45.8371  -24.3870 C.3     1  UNL1        0.0252
     10 C         -60.5786  -46.1654  -25.5277 C.3     1  UNL1        0.0472
     11 C         -61.9673  -46.5814  -24.9746 C.3     1  UNL1        0.0252
     12 C         -62.2635  -46.0169  -23.5735 C.3     1  UNL1        0.0924
     13 C         -60.0114  -47.2572  -26.4555 C.3     1  UNL1        0.2054
     14 O         -59.3235  -46.6841  -27.5689 O.3     1  UNL1       -0.4755
     15 C         -59.9192  -45.9512  -28.6087 C.ar    1  UNL1        0.1388
     16 C         -61.2669  -45.5449  -28.5796 C.ar    1  UNL1        0.0369
     17 C         -61.8037  -44.8161  -29.6426 C.ar    1  UNL1        0.0033
     18 C         -61.0101  -44.4879  -30.7436 C.ar    1  UNL1        0.0066
     19 C         -59.6647  -44.8890  -30.7939 C.ar    1  UNL1        0.0785
     20 C         -59.1306  -45.6231  -29.7188 C.ar    1  UNL1        0.0433
     21 C         -58.8255  -44.5418  -31.9621 C.2     1  UNL1        0.3381
     22 O         -59.3490  -44.0656  -33.0057 O.2     1  UNL1       -0.2451
     23 O         -57.4476  -44.7382  -31.9198 O.3     1  UNL1       -0.4771
     24 H         -56.8639  -44.5040  -32.7139 H       1  UNL1        0.2954
     25 N         -64.2963  -40.3587  -21.0217 N.am    1  UNL1       -0.2766
     26 C         -63.7053  -39.0814  -20.7245 C.2     1  UNL1        0.2839
     27 O         -62.4712  -38.8933  -20.8944 O.2     1  UNL1       -0.2665
     28 H         -65.3182  -40.4896  -20.8577 H       1  UNL1        0.1553
     29 C         -64.5157  -37.9713  -20.1943 C.ar    1  UNL1        0.1946
     30 O         -63.9747  -36.9271  -19.5916 O.2     1  UNL1       -0.4492
     31 C         -64.9448  -36.1229  -19.2313 C.ar    1  UNL1        0.1452
     32 C         -64.8328  -34.9083  -18.5635 C.ar    1  UNL1        0.0375
     33 C         -66.0138  -34.2017  -18.2763 C.ar    1  UNL1        0.0031
     34 C         -67.2824  -34.7163  -18.6591 C.ar    1  UNL1        0.0002
     35 C         -67.3514  -35.9565  -19.3381 C.ar    1  UNL1        0.0028
     36 C         -66.1594  -36.6303  -19.6044 C.ar    1  UNL1        0.0337
     37 C         -65.9073  -37.8243  -20.2495 C.ar    1  UNL1        0.0202
     38 C         -66.9184  -38.7241  -20.8932 C.3     1  UNL1        0.0345
     39 C         -68.5234  -33.9614  -18.3505 C.ar    1  UNL1        0.0000
     40 C         -69.7623  -34.3750  -18.8762 C.ar    1  UNL1        0.0000
     41 C         -70.9292  -33.6622  -18.5841 C.ar    1  UNL1        0.0000
     42 C         -70.8736  -32.5309  -17.7673 C.ar    1  UNL1        0.0000
     43 C         -69.6508  -32.1098  -17.2403 C.ar    1  UNL1        0.0000
     44 C         -68.4808  -32.8193  -17.5283 C.ar    1  UNL1        0.0000
     45 C         -62.9916  -42.3547  -26.0320 C.3     1  UNL1        0.2526
     46 O         -62.1215  -42.4264  -24.9078 O.3     1  UNL1       -0.4686
@<TRIPOS>BOND
     1    45    46    1
     2    46     1    1
     3     1     2   ar
     4     2     3   ar
     5     3    25    1
     6    25    26   am
     7    26    27    2
     8    26    29    1
     9    29    30   ar
    10    30    31   ar
    11    31    32   ar
    12    32    33   ar
    13    33    34   ar
    14    34    39    1
    15    39    40   ar
    16    40    41   ar
    17    41    42   ar
    18    42    43   ar
    19    43    44   ar
    20    34    35   ar
    21    35    36   ar
    22    36    37   ar
    23    37    38    1
    24     3     4   ar
    25     4     5   ar
    26     5     6   ar
    27     6     7    1
    28     7     8    1
    29     8     9    1
    30     9    10    1
    31    10    13    1
    32    13    14    1
    33    14    15    1
    34    15    16   ar
    35    16    17   ar
    36    17    18   ar
    37    18    19   ar
    38    19    21    1
    39    21    22    2
    40    21    23    1
    41    19    20   ar
    42    10    11    1
    43    11    12    1
    44     6     1   ar
    45    12     7    1
    46    37    29   ar
    47    20    15   ar
    48    36    31   ar
    49    44    39   ar
    50    25    28    1
    51    23    24    1
@<TRIPOS>MOLECULE
*****
 46 51 0 0 0
SMALL
GASTEIGER

@<TRIPOS>ATOM
      1 C         -64.5833  -54.0841  -22.7178 C.ar    1  UNL1        0.1713
      2 C         -63.8923  -53.1364  -23.4937 C.ar    1  UNL1        0.0560
      3 C         -64.5932  -52.1791  -24.2358 C.ar    1  UNL1        0.0732
      4 C         -65.9948  -52.2112  -24.2210 C.ar    1  UNL1        0.1151
      5 N         -66.6481  -53.1418  -23.4787 N.ar    1  UNL1       -0.2248
      6 C         -65.9896  -54.0756  -22.7394 C.ar    1  UNL1        0.1660
      7 N         -66.7448  -55.0225  -21.9671 N.pl3   1  UNL1       -0.2908
      8 C         -67.3524  -56.1740  -22.6473 C.3     1  UNL1        0.0924
      9 C         -68.3042  -56.9393  -21.7156 C.3     1  UNL1        0.0252
     10 C         -69.1147  -55.9480  -20.8582 C.3     1  UNL1        0.0472
     11 C         -68.1874  -55.0943  -19.9534 C.3     1  UNL1        0.0252
     12 C         -66.7552  -54.9558  -20.5005 C.3     1  UNL1        0.0924
     13 C         -70.1773  -56.6790  -20.0150 C.3     1  UNL1        0.2054
     14 O         -71.3415  -55.8705  -19.8354 O.3     1  UNL1       -0.4755
     15 C         -71.7042  -55.2118  -18.6489 C.ar    1  UNL1        0.1388
     16 C         -71.5223  -55.7822  -17.3746 C.ar    1  UNL1        0.0369
     17 C         -71.9008  -55.0785  -16.2297 C.ar    1  UNL1        0.0033
     18 C         -72.4656  -53.8061  -16.3394 C.ar    1  UNL1        0.0066
     19 C         -72.6604  -53.2223  -17.6022 C.ar    1  UNL1        0.0785
     20 C         -72.2763  -53.9375  -18.7516 C.ar    1  UNL1        0.0433
     21 C         -73.2605  -51.8746  -17.7168 C.2     1  UNL1        0.3381
     22 O         -74.0065  -51.5883  -18.6922 O.2     1  UNL1       -0.2451
     23 O         -73.0063  -50.9083  -16.7468 O.3     1  UNL1       -0.4771
     24 H         -73.4120  -49.9826  -16.8157 H       1  UNL1        0.2954
     25 N         -63.8658  -51.2316  -25.0349 N.am    1  UNL1       -0.2766
     26 C         -64.1369  -49.8191  -25.0563 C.2     1  UNL1        0.2839
     27 O         -65.1163  -49.3467  -24.4201 O.2     1  UNL1       -0.2665
     28 H         -63.0563  -51.5960  -25.5827 H       1  UNL1        0.1553
     29 C         -63.2971  -48.8935  -25.8363 C.ar    1  UNL1        0.1946
     30 O         -62.3666  -48.1413  -25.2754 O.2     1  UNL1       -0.4492
     31 C         -61.8011  -47.4295  -26.2195 C.ar    1  UNL1        0.1452
     32 C         -60.7764  -46.4999  -26.0793 C.ar    1  UNL1        0.0375
     33 C         -60.3143  -45.8477  -27.2359 C.ar    1  UNL1        0.0031
     34 C         -60.8796  -46.1329  -28.5085 C.ar    1  UNL1        0.0002
     35 C         -61.9207  -47.0870  -28.6068 C.ar    1  UNL1        0.0028
     36 C         -62.3549  -47.7127  -27.4381 C.ar    1  UNL1        0.0337
     37 C         -63.3189  -48.6761  -27.2196 C.ar    1  UNL1        0.0202
     38 C         -64.1602  -49.3518  -28.2597 C.3     1  UNL1        0.0345
     39 C         -60.3836  -45.4379  -29.7235 C.ar    1  UNL1        0.0000
     40 C         -59.0605  -45.6268  -30.1663 C.ar    1  UNL1        0.0000
     41 C         -58.5960  -44.9710  -31.3106 C.ar    1  UNL1        0.0000
     42 C         -59.4435  -44.1206  -32.0237 C.ar    1  UNL1        0.0000
     43 C         -60.7579  -43.9241  -31.5944 C.ar    1  UNL1        0.0000
     44 C         -61.2280  -44.5780  -30.4514 C.ar    1  UNL1        0.0000
     45 C         -63.8041  -56.4063  -22.2025 C.3     1  UNL1        0.2526
     46 O         -63.9154  -55.0179  -21.9095 O.3     1  UNL1       -0.4686
@<TRIPOS>BOND
     1    45    46    1
     2    46     1    1
     3     1     2   ar
     4     2     3   ar
     5     3    25    1
     6    25    26   am
     7    26    27    2
     8    26    29    1
     9    29    30   ar
    10    30    31   ar
    11    31    32   ar
    12    32    33   ar
    13    33    34   ar
    14    34    39    1
    15    39    40   ar
    16    40    41   ar
    17    41    42   ar
    18    42    43   ar
    19    43    44   ar
    20    34    35   ar
    21    35    36   ar
    22    36    37   ar
    23    37    38    1
    24     3     4   ar
    25     4     5   ar
    26     5     6   ar
    27     6     7    1
    28     7     8    1
    29     8     9    1
    30     9    10    1
    31    10    13    1
    32    13    14    1
    33    14    15    1
    34    15    16   ar
    35    16    17   ar
    36    17    18   ar
    37    18    19   ar
    38    19    21    1
    39    21    22    2
    40    21    23    1
    41    19    20   ar
    42    10    11    1
    43    11    12    1
    44     6     1   ar
    45    12     7    1
    46    37    29   ar
    47    20    15   ar
    48    36    31   ar
    49    44    39   ar
    50    25    28    1
    51    23    24    1
@<TRIPOS>MOLECULE
*****
 46 51 0 0 0
SMALL
GASTEIGER

@<TRIPOS>ATOM
      1 C         -62.2341  -43.5093  -22.3699 C.ar    1  UNL1        0.1713
      2 C         -62.9611  -42.4037  -21.8938 C.ar    1  UNL1        0.0560
      3 C         -62.5544  -41.7316  -20.7356 C.ar    1  UNL1        0.0732
      4 C         -61.4339  -42.2080  -20.0405 C.ar    1  UNL1        0.1151
      5 N         -60.7507  -43.2860  -20.5044 N.ar    1  UNL1       -0.2248
      6 C         -61.1190  -43.9494  -21.6342 C.ar    1  UNL1        0.1660
      7 N         -60.3423  -45.0746  -22.0745 N.pl3   1  UNL1       -0.2908
      8 C         -59.6904  -45.0198  -23.3897 C.3     1  UNL1        0.0924
      9 C         -59.1075  -46.3849  -23.7856 C.3     1  UNL1        0.0252
     10 C         -60.0754  -47.5117  -23.3754 C.3     1  UNL1        0.0472
     11 C         -60.2894  -47.5410  -21.8390 C.3     1  UNL1        0.0252
     12 C         -60.0410  -46.1824  -21.1592 C.3     1  UNL1        0.0924
     13 C         -59.5848  -48.8810  -23.8842 C.3     1  UNL1        0.2054
     14 O         -60.6791  -49.7714  -24.1102 O.3     1  UNL1       -0.4755
     15 C         -61.8971  -49.4310  -24.7215 C.ar    1  UNL1        0.1388
     16 C         -63.1469  -49.7972  -24.1863 C.ar    1  UNL1        0.0369
     17 C         -64.3252  -49.4286  -24.8382 C.ar    1  UNL1        0.0033
     18 C         -64.2736  -48.6977  -26.0269 C.ar    1  UNL1        0.0066
     19 C         -63.0364  -48.3277  -26.5797 C.ar    1  UNL1        0.0785
     20 C         -61.8530  -48.7026  -25.9170 C.ar    1  UNL1        0.0433
     21 C         -62.9835  -47.5546  -27.8403 C.2     1  UNL1        0.3381
     22 O         -61.9350  -46.9345  -28.1659 O.2     1  UNL1       -0.2451
     23 O         -64.0932  -47.5045  -28.6800 O.3     1  UNL1       -0.4771
     24 H         -64.0677  -46.9782  -29.5452 H       1  UNL1        0.2954
     25 N         -63.3232  -40.6151  -20.2585 N.am    1  UNL1       -0.2766
     26 C         -62.9860  -39.2391  -20.5077 C.2     1  UNL1        0.2839
     27 O         -61.9152  -38.9409  -21.1009 O.2     1  UNL1       -0.2665
     28 H         -64.2095  -40.8313  -19.7527 H       1  UNL1        0.1553
     29 C         -63.8650  -38.1455  -20.0588 C.ar    1  UNL1        0.1946
     30 O         -63.3971  -37.0623  -19.4637 O.2     1  UNL1       -0.4492
     31 C         -64.4148  -36.2859  -19.1825 C.ar    1  UNL1        0.1452
     32 C         -64.3848  -35.0473  -18.5510 C.ar    1  UNL1        0.0375
     33 C         -65.6054  -34.3790  -18.3507 C.ar    1  UNL1        0.0031
     34 C         -66.8311  -34.9549  -18.7826 C.ar    1  UNL1        0.0002
     35 C         -66.8166  -36.2176  -19.4222 C.ar    1  UNL1        0.0028
     36 C         -65.5875  -36.8522  -19.6022 C.ar    1  UNL1        0.0337
     37 C         -65.2562  -38.0551  -20.1925 C.ar    1  UNL1        0.0202
     38 C         -66.1964  -39.0138  -20.8583 C.3     1  UNL1        0.0345
     39 C         -68.1144  -34.2399  -18.5657 C.ar    1  UNL1        0.0000
     40 C         -69.2863  -34.6563  -19.2259 C.ar    1  UNL1        0.0000
     41 C         -70.4933  -33.9812  -19.0199 C.ar    1  UNL1        0.0000
     42 C         -70.5449  -32.8850  -18.1562 C.ar    1  UNL1        0.0000
     43 C         -69.3893  -32.4616  -17.4960 C.ar    1  UNL1        0.0000
     44 C         -68.1797  -33.1335  -17.6974 C.ar    1  UNL1        0.0000
     45 C         -62.5382  -43.5706  -24.8537 C.3     1  UNL1        0.2526
     46 O         -62.5724  -44.1686  -23.5625 O.3     1  UNL1       -0.4686
@<TRIPOS>BOND
     1    45    46    1
     2    46     1    1
     3     1     2   ar
     4     2     3   ar
     5     3    25    1
     6    25    26   am
     7    26    27    2
     8    26    29    1
     9    29    30   ar
    10    30    31   ar
    11    31    32   ar
    12    32    33   ar
    13    33    34   ar
    14    34    39    1
    15    39    40   ar
    16    40    41   ar
    17    41    42   ar
    18    42    43   ar
    19    43    44   ar
    20    34    35   ar
    21    35    36   ar
    22    36    37   ar
    23    37    38    1
    24     3     4   ar
    25     4     5   ar
    26     5     6   ar
    27     6     7    1
    28     7     8    1
    29     8     9    1
    30     9    10    1
    31    10    13    1
    32    13    14    1
    33    14    15    1
    34    15    16   ar
    35    16    17   ar
    36    17    18   ar
    37    18    19   ar
    38    19    21    1
    39    21    22    2
    40    21    23    1
    41    19    20   ar
    42    10    11    1
    43    11    12    1
    44     6     1   ar
    45    12     7    1
    46    37    29   ar
    47    20    15   ar
    48    36    31   ar
    49    44    39   ar
    50    25    28    1
    51    23    24    1
@<TRIPOS>MOLECULE
*****
 46 51 0 0 0
SMALL
GASTEIGER

@<TRIPOS>ATOM
      1 C         -62.7652  -47.4073  -24.3270 C.ar    1  UNL1        0.1713
      2 C         -62.8585  -46.0438  -23.9955 C.ar    1  UNL1        0.0560
      3 C         -62.3062  -45.5636  -22.8027 C.ar    1  UNL1        0.0732
      4 C         -61.6958  -46.4752  -21.9297 C.ar    1  UNL1        0.1151
      5 N         -61.6265  -47.7913  -22.2567 N.ar    1  UNL1       -0.2248
      6 C         -62.1453  -48.2810  -23.4156 C.ar    1  UNL1        0.1660
      7 N         -62.0248  -49.6831  -23.7036 N.pl3   1  UNL1       -0.2908
      8 C         -62.9889  -50.3082  -24.6189 C.3     1  UNL1        0.0924
      9 C         -62.8494  -51.8380  -24.6234 C.3     1  UNL1        0.0252
     10 C         -62.5986  -52.3498  -23.1917 C.3     1  UNL1        0.0472
     11 C         -61.2785  -51.7782  -22.6106 C.3     1  UNL1        0.0252
     12 C         -60.8539  -50.4440  -23.2504 C.3     1  UNL1        0.0924
     13 C         -62.5945  -53.8900  -23.1428 C.3     1  UNL1        0.2054
     14 O         -63.4528  -54.3772  -22.1096 O.3     1  UNL1       -0.4755
     15 C         -64.7110  -54.9705  -22.3042 C.ar    1  UNL1        0.1388
     16 C         -64.8991  -56.3656  -22.3351 C.ar    1  UNL1        0.0369
     17 C         -66.1749  -56.8979  -22.5305 C.ar    1  UNL1        0.0033
     18 C         -67.2728  -56.0520  -22.7003 C.ar    1  UNL1        0.0066
     19 C         -67.1048  -54.6575  -22.6783 C.ar    1  UNL1        0.0785
     20 C         -65.8160  -54.1282  -22.4808 C.ar    1  UNL1        0.0433
     21 C         -68.2691  -53.7625  -22.8601 C.2     1  UNL1        0.3381
     22 O         -68.8950  -53.7428  -23.9545 O.2     1  UNL1       -0.2451
     23 O         -68.6849  -52.9321  -21.8225 O.3     1  UNL1       -0.4771
     24 H         -69.4806  -52.3156  -21.9364 H       1  UNL1        0.2954
     25 N         -62.4292  -44.1693  -22.4770 N.am    1  UNL1       -0.2766
     26 C         -63.3529  -43.6468  -21.5058 C.2     1  UNL1        0.2839
     27 O         -64.1856  -44.4064  -20.9428 O.2     1  UNL1       -0.2665
     28 H         -61.7605  -43.5141  -22.9373 H       1  UNL1        0.1553
     29 C         -63.3677  -42.2146  -21.1613 C.ar    1  UNL1        0.1946
     30 O         -62.4169  -41.3844  -21.5525 O.2     1  UNL1       -0.4492
     31 C         -62.7063  -40.1934  -21.0882 C.ar    1  UNL1        0.1452
     32 C         -61.9775  -39.0207  -21.2541 C.ar    1  UNL1        0.0375
     33 C         -62.4773  -37.8447  -20.6679 C.ar    1  UNL1        0.0031
     34 C         -63.6916  -37.8577  -19.9291 C.ar    1  UNL1        0.0002
     35 C         -64.4027  -39.0732  -19.7851 C.ar    1  UNL1        0.0028
     36 C         -63.8758  -40.2203  -20.3787 C.ar    1  UNL1        0.0337
     37 C         -64.3366  -41.5206  -20.4260 C.ar    1  UNL1        0.0202
     38 C         -65.6172  -42.0375  -19.8435 C.3     1  UNL1        0.0345
     39 C         -64.2101  -36.6094  -19.3142 C.ar    1  UNL1        0.0000
     40 C         -65.5005  -36.1403  -19.6258 C.ar    1  UNL1        0.0000
     41 C         -65.9862  -34.9645  -19.0455 C.ar    1  UNL1        0.0000
     42 C         -65.1918  -34.2444  -18.1507 C.ar    1  UNL1        0.0000
     43 C         -63.9097  -34.6987  -17.8339 C.ar    1  UNL1        0.0000
     44 C         -63.4192  -35.8743  -18.4106 C.ar    1  UNL1        0.0000
     45 C         -63.2833  -47.1874  -26.7660 C.3     1  UNL1        0.2526
     46 O         -63.2489  -47.9152  -25.5433 O.3     1  UNL1       -0.4686
@<TRIPOS>BOND
     1    45    46    1
     2    46     1    1
     3     1     2   ar
     4     2     3   ar
     5     3    25    1
     6    25    26   am
     7    26    27    2
     8    26    29    1
     9    29    30   ar
    10    30    31   ar
    11    31    32   ar
    12    32    33   ar
    13    33    34   ar
    14    34    39    1
    15    39    40   ar
    16    40    41   ar
    17    41    42   ar
    18    42    43   ar
    19    43    44   ar
    20    34    35   ar
    21    35    36   ar
    22    36    37   ar
    23    37    38    1
    24     3     4   ar
    25     4     5   ar
    26     5     6   ar
    27     6     7    1
    28     7     8    1
    29     8     9    1
    30     9    10    1
    31    10    13    1
    32    13    14    1
    33    14    15    1
    34    15    16   ar
    35    16    17   ar
    36    17    18   ar
    37    18    19   ar
    38    19    21    1
    39    21    22    2
    40    21    23    1
    41    19    20   ar
    42    10    11    1
    43    11    12    1
    44     6     1   ar
    45    12     7    1
    46    37    29   ar
    47    20    15   ar
    48    36    31   ar
    49    44    39   ar
    50    25    28    1
    51    23    24    1
@<TRIPOS>MOLECULE
*****
 46 51 0 0 0
SMALL
GASTEIGER

@<TRIPOS>ATOM
      1 C         -62.2240  -42.2470  -22.6069 C.ar    1  UNL1        0.1713
      2 C         -62.9933  -41.1967  -22.0756 C.ar    1  UNL1        0.0560
      3 C         -63.0092  -40.9546  -20.6973 C.ar    1  UNL1        0.0732
      4 C         -62.2759  -41.8044  -19.8571 C.ar    1  UNL1        0.1151
      5 N         -61.5496  -42.8238  -20.3836 N.ar    1  UNL1       -0.2248
      6 C         -61.5085  -43.0726  -21.7210 C.ar    1  UNL1        0.1660
      7 N         -60.7084  -44.1607  -22.2102 N.pl3   1  UNL1       -0.2908
      8 C         -59.4013  -43.8690  -22.8138 C.3     1  UNL1        0.0924
      9 C         -58.8007  -45.1144  -23.4832 C.3     1  UNL1        0.0252
     10 C         -59.9036  -45.9060  -24.2124 C.3     1  UNL1        0.0472
     11 C         -60.9891  -46.4051  -23.2225 C.3     1  UNL1        0.0252
     12 C         -61.0925  -45.5527  -21.9449 C.3     1  UNL1        0.0924
     13 C         -59.3104  -47.0831  -25.0106 C.3     1  UNL1        0.2054
     14 O         -59.4011  -46.8522  -26.4176 O.3     1  UNL1       -0.4755
     15 C         -60.5927  -46.7042  -27.1465 C.ar    1  UNL1        0.1388
     16 C         -60.9140  -45.5282  -27.8509 C.ar    1  UNL1        0.0369
     17 C         -62.1136  -45.4398  -28.5598 C.ar    1  UNL1        0.0033
     18 C         -63.0049  -46.5146  -28.5729 C.ar    1  UNL1        0.0066
     19 C         -62.7050  -47.6944  -27.8718 C.ar    1  UNL1        0.0785
     20 C         -61.4941  -47.7762  -27.1597 C.ar    1  UNL1        0.0433
     21 C         -63.6515  -48.8317  -27.8854 C.2     1  UNL1        0.3381
     22 O         -64.0744  -49.3238  -26.8043 O.2     1  UNL1       -0.2451
     23 O         -64.0844  -49.3702  -29.0945 O.3     1  UNL1       -0.4771
     24 H         -64.7321  -50.1488  -29.1151 H       1  UNL1        0.2954
     25 N         -63.8166  -39.8863  -20.1757 N.am    1  UNL1       -0.2766
     26 C         -63.5252  -38.4902  -20.3633 C.2     1  UNL1        0.2839
     27 O         -62.4632  -38.1307  -20.9381 O.2     1  UNL1       -0.2665
     28 H         -64.6967  -40.1539  -19.6837 H       1  UNL1        0.1553
     29 C         -64.4420  -37.4473  -19.8714 C.ar    1  UNL1        0.1946
     30 O         -64.0104  -36.3626  -19.2521 O.2     1  UNL1       -0.4492
     31 C         -65.0551  -35.6375  -18.9350 C.ar    1  UNL1        0.1452
     32 C         -65.0670  -34.4169  -18.2688 C.ar    1  UNL1        0.0375
     33 C         -66.3111  -33.8060  -18.0328 C.ar    1  UNL1        0.0031
     34 C         -67.5182  -34.4203  -18.4641 C.ar    1  UNL1        0.0002
     35 C         -67.4610  -35.6629  -19.1397 C.ar    1  UNL1        0.0028
     36 C         -66.2095  -36.2403  -19.3545 C.ar    1  UNL1        0.0337
     37 C         -65.8375  -37.4114  -19.9834 C.ar    1  UNL1        0.0202
     38 C         -66.7470  -38.3895  -20.6633 C.3     1  UNL1        0.0345
     39 C         -68.8267  -33.7659  -18.2094 C.ar    1  UNL1        0.0000
     40 C         -69.9794  -34.1749  -18.9068 C.ar    1  UNL1        0.0000
     41 C         -71.2101  -33.5569  -18.6650 C.ar    1  UNL1        0.0000
     42 C         -71.3047  -32.5257  -17.7280 C.ar    1  UNL1        0.0000
     43 C         -70.1685  -32.1102  -17.0303 C.ar    1  UNL1        0.0000
     44 C         -68.9353  -32.7253  -17.2673 C.ar    1  UNL1        0.0000
     45 C         -63.0500  -41.9836  -24.9550 C.3     1  UNL1        0.2526
     46 O         -62.1311  -42.4805  -23.9882 O.3     1  UNL1       -0.4686
@<TRIPOS>BOND
     1    45    46    1
     2    46     1    1
     3     1     2   ar
     4     2     3   ar
     5     3    25    1
     6    25    26   am
     7    26    27    2
     8    26    29    1
     9    29    30   ar
    10    30    31   ar
    11    31    32   ar
    12    32    33   ar
    13    33    34   ar
    14    34    39    1
    15    39    40   ar
    16    40    41   ar
    17    41    42   ar
    18    42    43   ar
    19    43    44   ar
    20    34    35   ar
    21    35    36   ar
    22    36    37   ar
    23    37    38    1
    24     3     4   ar
    25     4     5   ar
    26     5     6   ar
    27     6     7    1
    28     7     8    1
    29     8     9    1
    30     9    10    1
    31    10    13    1
    32    13    14    1
    33    14    15    1
    34    15    16   ar
    35    16    17   ar
    36    17    18   ar
    37    18    19   ar
    38    19    21    1
    39    21    22    2
    40    21    23    1
    41    19    20   ar
    42    10    11    1
    43    11    12    1
    44     6     1   ar
    45    12     7    1
    46    37    29   ar
    47    20    15   ar
    48    36    31   ar
    49    44    39   ar
    50    25    28    1
    51    23    24    1
