@<TRIPOS>MOLECULE
*****
 37 41 0 0 0
SMALL
GASTEIGER

@<TRIPOS>ATOM
      1 C         -27.9390   51.3011   -7.0090 C.ar    1  UNL1        0.2250
      2 C         -27.3041   50.9390   -8.1991 C.ar    1  UNL1        0.1212
      3 N         -28.1572   50.2234   -8.9699 N.ar    1  UNL1       -0.2945
      4 C         -29.2823   50.1438   -8.2315 C.ar    1  UNL1        0.3119
      5 C         -30.4771   49.5128   -8.6147 C.ar    1  UNL1        0.1317
      6 C         -31.5615   49.5966   -7.7153 C.ar    1  UNL1        0.0286
      7 C         -31.4315   50.2859   -6.4974 C.ar    1  UNL1        0.0777
      8 C         -30.2138   50.8945   -6.1736 C.ar    1  UNL1        0.2963
      9 N         -29.1842   50.7898   -7.0549 N.ar    1  UNL1       -0.1314
     10 H         -27.9933   49.8473   -9.8649 H       1  UNL1        0.1718
     11 C         -25.9454   51.3040   -8.6548 C.ar    1  UNL1        0.0212
     12 C         -24.8336   50.6729   -8.0829 C.ar    1  UNL1        0.0013
     13 C         -23.5374   51.0122   -8.4801 C.ar    1  UNL1       -0.0042
     14 C         -23.3139   52.0095   -9.4580 C.ar    1  UNL1       -0.0228
     15 C         -24.4449   52.6545  -10.0054 C.ar    1  UNL1       -0.0042
     16 C         -25.7382   52.3111   -9.6053 C.ar    1  UNL1        0.0013
     17 C         -21.9021   52.4180   -9.9272 C.3     1  UNL1        0.0189
     18 C         -21.9675   53.8007  -10.6110 C.3     1  UNL1        0.0044
     19 C         -21.3707   51.3731  -10.9327 C.3     1  UNL1        0.0044
     20 C         -20.8813   52.5140   -8.7677 C.3     1  UNL1        0.0044
     21 N         -30.6031   48.8104   -9.8704 N.pl3   1  UNL1       -0.2988
     22 C         -30.9264   49.5380  -11.1036 C.3     1  UNL1        0.1084
     23 C         -30.3734   48.7893  -12.3190 C.3     1  UNL1        0.0941
     24 N         -30.9125   47.4097  -12.4079 N.3     1  UNL1       -0.2647
     25 C         -31.0696   46.7269  -11.0938 C.3     1  UNL1        0.0941
     26 C         -30.2718   47.3834   -9.9583 C.3     1  UNL1        0.1084
     27 C         -30.1308   46.5890  -13.3566 C.3     1  UNL1        0.1200
     28 C         -30.0904   47.2325  -14.7149 C.ar    1  UNL1        0.0885
     29 N         -29.7036   48.5104  -14.9073 N.ar    1  UNL1       -0.2273
     30 C         -29.7119   48.6658  -16.2473 C.ar    1  UNL1        0.1780
     31 N         -30.0825   47.5457  -16.9004 N.ar    1  UNL1       -0.3128
     32 C         -30.3269   46.6298  -15.9399 C.ar    1  UNL1        0.0537
     33 C         -30.6485   45.1821  -16.1783 C.3     1  UNL1        0.0514
     34 C         -30.0830   47.3668  -18.3534 C.3     1  UNL1        0.1073
     35 C         -28.6719   47.5183  -18.9097 C.3     1  UNL1        0.0265
     36 C         -26.6429   51.3624   -4.8690 C.3     1  UNL1        0.0117
     37 C         -27.4114   52.1798   -5.9043 C.3     1  UNL1        0.0989
@<TRIPOS>BOND
     1    36    37    1
     2    37     1    1
     3     1     2   ar
     4     2    11    1
     5    11    12   ar
     6    12    13   ar
     7    13    14   ar
     8    14    17    1
     9    17    18    1
    10    17    19    1
    11    17    20    1
    12    14    15   ar
    13    15    16   ar
    14     2     3   ar
    15     3     4   ar
    16     4     5   ar
    17     5    21    1
    18    21    22    1
    19    22    23    1
    20    23    24    1
    21    24    27    1
    22    27    28    1
    23    28    29   ar
    24    29    30   ar
    25    30    31   ar
    26    31    34    1
    27    34    35    1
    28    31    32   ar
    29    32    33    1
    30    24    25    1
    31    25    26    1
    32     5     6   ar
    33     6     7   ar
    34     7     8   ar
    35     8     9   ar
    36     9     1   ar
    37    16    11   ar
    38     9     4   ar
    39    26    21    1
    40    32    28   ar
    41     3    10    1
@<TRIPOS>MOLECULE
*****
 37 41 0 0 0
SMALL
GASTEIGER

@<TRIPOS>ATOM
      1 C         -28.1021   50.8703   -9.7849 C.ar    1  UNL1        0.2250
      2 C         -26.8835   50.4251   -9.2678 C.ar    1  UNL1        0.1212
      3 N         -27.1016   49.4046   -8.4046 N.ar    1  UNL1       -0.2945
      4 C         -28.4420   49.2614   -8.3941 C.ar    1  UNL1        0.3119
      5 C         -29.1633   48.3051   -7.6607 C.ar    1  UNL1        0.1317
      6 C         -30.5633   48.2857   -7.8384 C.ar    1  UNL1        0.0286
      7 C         -31.1876   49.1896   -8.7150 C.ar    1  UNL1        0.0777
      8 C         -30.4125   50.1187   -9.4181 C.ar    1  UNL1        0.2963
      9 N         -29.0677   50.1201   -9.2202 N.ar    1  UNL1       -0.1314
     10 H         -26.4339   48.8859   -7.9002 H       1  UNL1        0.1718
     11 C         -25.5225   50.8888   -9.6142 C.ar    1  UNL1        0.0212
     12 C         -24.6186   51.1994   -8.5906 C.ar    1  UNL1        0.0013
     13 C         -23.3329   51.6587   -8.8887 C.ar    1  UNL1       -0.0042
     14 C         -22.9158   51.8348  -10.2289 C.ar    1  UNL1       -0.0228
     15 C         -23.8485   51.5421  -11.2482 C.ar    1  UNL1       -0.0042
     16 C         -25.1321   51.0828  -10.9448 C.ar    1  UNL1        0.0013
     17 C         -21.5077   52.3397  -10.6061 C.3     1  UNL1        0.0189
     18 C         -20.8095   52.9026   -9.3494 C.3     1  UNL1        0.0044
     19 C         -21.6272   53.4538  -11.6690 C.3     1  UNL1        0.0044
     20 C         -20.6013   51.2295  -11.1908 C.3     1  UNL1        0.0044
     21 N         -28.5129   47.3772   -6.7653 N.pl3   1  UNL1       -0.2988
     22 C         -27.0639   47.1554   -6.8436 C.3     1  UNL1        0.1084
     23 C         -26.5231   46.7123   -5.4818 C.3     1  UNL1        0.0941
     24 N         -27.1837   45.4725   -5.0040 N.3     1  UNL1       -0.2647
     25 C         -28.6385   45.3950   -5.3126 C.3     1  UNL1        0.0941
     26 C         -29.2656   46.7491   -5.6734 C.3     1  UNL1        0.1084
     27 C         -26.9201   45.2443   -3.5676 C.3     1  UNL1        0.1200
     28 C         -28.0261   45.8135   -2.7228 C.ar    1  UNL1        0.0885
     29 N         -29.0408   45.0640   -2.2451 N.ar    1  UNL1       -0.2273
     30 C         -29.7486   45.9116   -1.4701 C.ar    1  UNL1        0.1780
     31 N         -29.2227   47.1530   -1.4390 N.ar    1  UNL1       -0.3128
     32 C         -28.1309   47.1044   -2.2307 C.ar    1  UNL1        0.0537
     33 C         -27.1368   48.2156   -2.4128 C.3     1  UNL1        0.0514
     34 C         -29.6973   48.2591   -0.6057 C.3     1  UNL1        0.1073
     35 C         -30.3288   47.7281    0.6762 C.3     1  UNL1        0.0265
     36 C         -28.6625   51.2671  -12.1915 C.3     1  UNL1        0.0117
     37 C         -28.3353   51.9130  -10.8475 C.3     1  UNL1        0.0989
@<TRIPOS>BOND
     1    36    37    1
     2    37     1    1
     3     1     2   ar
     4     2    11    1
     5    11    12   ar
     6    12    13   ar
     7    13    14   ar
     8    14    17    1
     9    17    18    1
    10    17    19    1
    11    17    20    1
    12    14    15   ar
    13    15    16   ar
    14     2     3   ar
    15     3     4   ar
    16     4     5   ar
    17     5    21    1
    18    21    22    1
    19    22    23    1
    20    23    24    1
    21    24    27    1
    22    27    28    1
    23    28    29   ar
    24    29    30   ar
    25    30    31   ar
    26    31    34    1
    27    34    35    1
    28    31    32   ar
    29    32    33    1
    30    24    25    1
    31    25    26    1
    32     5     6   ar
    33     6     7   ar
    34     7     8   ar
    35     8     9   ar
    36     9     1   ar
    37    16    11   ar
    38     9     4   ar
    39    26    21    1
    40    32    28   ar
    41     3    10    1
@<TRIPOS>MOLECULE
*****
 37 41 0 0 0
SMALL
GASTEIGER

@<TRIPOS>ATOM
      1 C         -28.2253   50.8500   -9.8209 C.ar    1  UNL1        0.2250
      2 C         -27.0211   50.3932   -9.2807 C.ar    1  UNL1        0.1212
      3 N         -27.2648   49.3704   -8.4271 N.ar    1  UNL1       -0.2945
      4 C         -28.6061   49.2373   -8.4452 C.ar    1  UNL1        0.3119
      5 C         -29.3497   48.2832   -7.7315 C.ar    1  UNL1        0.1317
      6 C         -30.7458   48.2751   -7.9384 C.ar    1  UNL1        0.0286
      7 C         -31.3449   49.1877   -8.8235 C.ar    1  UNL1        0.0777
      8 C         -30.5485   50.1141   -9.5059 C.ar    1  UNL1        0.2963
      9 N         -29.2080   50.1045   -9.2800 N.ar    1  UNL1       -0.1314
     10 H         -26.6117   48.8444   -7.9114 H       1  UNL1        0.1718
     11 C         -25.6498   50.8482   -9.5965 C.ar    1  UNL1        0.0212
     12 C         -24.7661   51.1503   -8.5528 C.ar    1  UNL1        0.0013
     13 C         -23.4711   51.6013   -8.8219 C.ar    1  UNL1       -0.0042
     14 C         -23.0240   51.7775  -10.1524 C.ar    1  UNL1       -0.0228
     15 C         -23.9364   51.4936  -11.1923 C.ar    1  UNL1       -0.0042
     16 C         -25.2294   51.0425  -10.9179 C.ar    1  UNL1        0.0013
     17 C         -21.6046   52.2735  -10.4979 C.3     1  UNL1        0.0189
     18 C         -20.8977   52.7474   -9.2096 C.3     1  UNL1        0.0044
     19 C         -21.6979   53.4498  -11.4943 C.3     1  UNL1        0.0044
     20 C         -20.7204   51.1802  -11.1450 C.3     1  UNL1        0.0044
     21 N         -28.7250   47.3462   -6.8272 N.pl3   1  UNL1       -0.2988
     22 C         -27.2629   47.2330   -6.7623 C.3     1  UNL1        0.1084
     23 C         -26.8322   46.7400   -5.3785 C.3     1  UNL1        0.0941
     24 N         -27.4408   45.4277   -5.0476 N.3     1  UNL1       -0.2647
     25 C         -28.8458   45.2682   -5.5146 C.3     1  UNL1        0.0941
     26 C         -29.5352   46.5956   -5.8609 C.3     1  UNL1        0.1084
     27 C         -27.3093   45.1241   -3.6070 C.3     1  UNL1        0.1200
     28 C         -27.7629   46.2882   -2.7704 C.ar    1  UNL1        0.0885
     29 N         -27.0519   47.4290   -2.6585 N.ar    1  UNL1       -0.2273
     30 C         -27.8337   48.2407   -1.9168 C.ar    1  UNL1        0.1780
     31 N         -28.9993   47.6622   -1.5630 N.ar    1  UNL1       -0.3128
     32 C         -28.9661   46.4232   -2.0967 C.ar    1  UNL1        0.0537
     33 C         -30.0995   45.4377   -2.0820 C.3     1  UNL1        0.0514
     34 C         -30.0978   48.3218   -0.8548 C.3     1  UNL1        0.1073
     35 C         -29.8521   48.2994    0.6495 C.3     1  UNL1        0.0265
     36 C         -28.7132   51.2616  -12.2408 C.3     1  UNL1        0.0117
     37 C         -28.4286   51.8993  -10.8832 C.3     1  UNL1        0.0989
@<TRIPOS>BOND
     1    36    37    1
     2    37     1    1
     3     1     2   ar
     4     2    11    1
     5    11    12   ar
     6    12    13   ar
     7    13    14   ar
     8    14    17    1
     9    17    18    1
    10    17    19    1
    11    17    20    1
    12    14    15   ar
    13    15    16   ar
    14     2     3   ar
    15     3     4   ar
    16     4     5   ar
    17     5    21    1
    18    21    22    1
    19    22    23    1
    20    23    24    1
    21    24    27    1
    22    27    28    1
    23    28    29   ar
    24    29    30   ar
    25    30    31   ar
    26    31    34    1
    27    34    35    1
    28    31    32   ar
    29    32    33    1
    30    24    25    1
    31    25    26    1
    32     5     6   ar
    33     6     7   ar
    34     7     8   ar
    35     8     9   ar
    36     9     1   ar
    37    16    11   ar
    38     9     4   ar
    39    26    21    1
    40    32    28   ar
    41     3    10    1
@<TRIPOS>MOLECULE
*****
 37 41 0 0 0
SMALL
GASTEIGER

@<TRIPOS>ATOM
      1 C         -29.8886   49.2257   -8.6958 C.ar    1  UNL1        0.2250
      2 C         -28.7462   48.9834   -7.9299 C.ar    1  UNL1        0.1212
      3 N         -27.6843   49.6146   -8.4850 N.ar    1  UNL1       -0.2945
      4 C         -28.1906   50.2083   -9.5843 C.ar    1  UNL1        0.3119
      5 C         -27.4779   51.0110  -10.4901 C.ar    1  UNL1        0.1317
      6 C         -28.2128   51.5899  -11.5469 C.ar    1  UNL1        0.0286
      7 C         -29.5942   51.3621  -11.6688 C.ar    1  UNL1        0.0777
      8 C         -30.2471   50.5524  -10.7327 C.ar    1  UNL1        0.2963
      9 N         -29.5123   50.0010   -9.7308 N.ar    1  UNL1       -0.1314
     10 H         -26.7552   49.6351   -8.1601 H       1  UNL1        0.1718
     11 C         -28.6427   48.2324   -6.6600 C.ar    1  UNL1        0.0212
     12 C         -28.4844   46.8412   -6.6926 C.ar    1  UNL1        0.0013
     13 C         -28.4038   46.1040   -5.5082 C.ar    1  UNL1       -0.0042
     14 C         -28.4935   46.7401   -4.2479 C.ar    1  UNL1       -0.0228
     15 C         -28.6793   48.1401   -4.2332 C.ar    1  UNL1       -0.0042
     16 C         -28.7587   48.8722   -5.4200 C.ar    1  UNL1        0.0013
     17 C         -28.4106   45.9682   -2.9147 C.3     1  UNL1        0.0189
     18 C         -26.9302   45.7066   -2.5632 C.3     1  UNL1        0.0044
     19 C         -29.1511   44.6199   -3.0528 C.3     1  UNL1        0.0044
     20 C         -29.0477   46.7335   -1.7297 C.3     1  UNL1        0.0044
     21 N         -26.0589   51.2432  -10.3545 N.pl3   1  UNL1       -0.2988
     22 C         -25.1305   50.8322  -11.4148 C.3     1  UNL1        0.1084
     23 C         -23.8800   51.7150  -11.3932 C.3     1  UNL1        0.0941
     24 N         -23.1859   51.6545  -10.0831 N.3     1  UNL1       -0.2647
     25 C         -24.0985   51.5901   -8.9081 C.3     1  UNL1        0.0941
     26 C         -25.5392   52.0181   -9.2218 C.3     1  UNL1        0.1084
     27 C         -22.2015   52.7487   -9.9472 C.3     1  UNL1        0.1200
     28 C         -20.7975   52.2247  -10.0699 C.ar    1  UNL1        0.0885
     29 N         -20.2879   51.7644  -11.2309 N.ar    1  UNL1       -0.2273
     30 C         -18.9986   51.4883  -10.9458 C.ar    1  UNL1        0.1780
     31 N         -18.6785   51.7569   -9.6637 N.ar    1  UNL1       -0.3128
     32 C         -19.8111   52.2229   -9.0970 C.ar    1  UNL1        0.0537
     33 C         -19.9248   52.7771   -7.7055 C.3     1  UNL1        0.0514
     34 C         -17.3376   51.6668   -9.0830 C.3     1  UNL1        0.1073
     35 C         -16.2816   51.6356  -10.1821 C.3     1  UNL1        0.0265
     36 C         -31.5836   47.3976   -8.9161 C.3     1  UNL1        0.0117
     37 C         -31.3076   48.8096   -8.4055 C.3     1  UNL1        0.0989
@<TRIPOS>BOND
     1    36    37    1
     2    37     1    1
     3     1     2   ar
     4     2    11    1
     5    11    12   ar
     6    12    13   ar
     7    13    14   ar
     8    14    17    1
     9    17    18    1
    10    17    19    1
    11    17    20    1
    12    14    15   ar
    13    15    16   ar
    14     2     3   ar
    15     3     4   ar
    16     4     5   ar
    17     5    21    1
    18    21    22    1
    19    22    23    1
    20    23    24    1
    21    24    27    1
    22    27    28    1
    23    28    29   ar
    24    29    30   ar
    25    30    31   ar
    26    31    34    1
    27    34    35    1
    28    31    32   ar
    29    32    33    1
    30    24    25    1
    31    25    26    1
    32     5     6   ar
    33     6     7   ar
    34     7     8   ar
    35     8     9   ar
    36     9     1   ar
    37    16    11   ar
    38     9     4   ar
    39    26    21    1
    40    32    28   ar
    41     3    10    1
@<TRIPOS>MOLECULE
*****
 37 41 0 0 0
SMALL
GASTEIGER

@<TRIPOS>ATOM
      1 C         -28.4156   50.9013   -9.8542 C.ar    1  UNL1        0.2250
      2 C         -27.2157   50.4226   -9.3233 C.ar    1  UNL1        0.1212
      3 N         -27.4647   49.3565   -8.5260 N.ar    1  UNL1       -0.2945
      4 C         -28.8051   49.2189   -8.5672 C.ar    1  UNL1        0.3119
      5 C         -29.5525   48.2264   -7.9123 C.ar    1  UNL1        0.1317
      6 C         -30.9460   48.2230   -8.1364 C.ar    1  UNL1        0.0286
      7 C         -31.5388   49.1770   -8.9811 C.ar    1  UNL1        0.0777
      8 C         -30.7387   50.1404   -9.6055 C.ar    1  UNL1        0.2963
      9 N         -29.4011   50.1250   -9.3641 N.ar    1  UNL1       -0.1314
     10 H         -26.8152   48.8077   -8.0298 H       1  UNL1        0.1718
     11 C         -25.8430   50.8989   -9.5987 C.ar    1  UNL1        0.0212
     12 C         -25.4043   51.0090  -10.9242 C.ar    1  UNL1        0.0013
     13 C         -24.1059   51.4374  -11.2131 C.ar    1  UNL1       -0.0042
     14 C         -23.1979   51.7573  -10.1767 C.ar    1  UNL1       -0.0228
     15 C         -23.6479   51.6155   -8.8455 C.ar    1  UNL1       -0.0042
     16 C         -24.9469   51.1876   -8.5623 C.ar    1  UNL1        0.0013
     17 C         -21.7554   52.2332  -10.4471 C.3     1  UNL1        0.0189
     18 C         -21.0939   52.6510   -9.1161 C.3     1  UNL1        0.0044
     19 C         -21.7831   53.4420  -11.4079 C.3     1  UNL1        0.0044
     20 C         -20.8672   51.1420  -11.0921 C.3     1  UNL1        0.0044
     21 N         -28.9342   47.2472   -7.0494 N.pl3   1  UNL1       -0.2988
     22 C         -27.4946   46.9747   -7.1406 C.3     1  UNL1        0.1084
     23 C         -26.9665   46.4690   -5.7957 C.3     1  UNL1        0.0941
     24 N         -27.6711   45.2399   -5.3545 N.3     1  UNL1       -0.2647
     25 C         -29.1287   45.2259   -5.6594 C.3     1  UNL1        0.0941
     26 C         -29.7064   46.6130   -5.9746 C.3     1  UNL1        0.1084
     27 C         -27.4119   44.9568   -3.9272 C.3     1  UNL1        0.1200
     28 C         -26.4934   45.9890   -3.3343 C.ar    1  UNL1        0.0885
     29 N         -25.1493   45.8927   -3.3948 N.ar    1  UNL1       -0.2273
     30 C         -24.7050   47.0429   -2.8476 C.ar    1  UNL1        0.1780
     31 N         -25.7072   47.8535   -2.4511 N.ar    1  UNL1       -0.3128
     32 C         -26.8465   47.1960   -2.7527 C.ar    1  UNL1        0.0537
     33 C         -28.2353   47.7514   -2.6152 C.3     1  UNL1        0.0514
     34 C         -25.5485   49.2103   -1.9245 C.3     1  UNL1        0.1073
     35 C         -25.7285   50.2380   -3.0359 C.3     1  UNL1        0.0265
     36 C         -28.8459   51.4341  -12.2613 C.3     1  UNL1        0.0117
     37 C         -28.6111   52.0025  -10.8640 C.3     1  UNL1        0.0989
@<TRIPOS>BOND
     1    36    37    1
     2    37     1    1
     3     1     2   ar
     4     2    11    1
     5    11    12   ar
     6    12    13   ar
     7    13    14   ar
     8    14    17    1
     9    17    18    1
    10    17    19    1
    11    17    20    1
    12    14    15   ar
    13    15    16   ar
    14     2     3   ar
    15     3     4   ar
    16     4     5   ar
    17     5    21    1
    18    21    22    1
    19    22    23    1
    20    23    24    1
    21    24    27    1
    22    27    28    1
    23    28    29   ar
    24    29    30   ar
    25    30    31   ar
    26    31    34    1
    27    34    35    1
    28    31    32   ar
    29    32    33    1
    30    24    25    1
    31    25    26    1
    32     5     6   ar
    33     6     7   ar
    34     7     8   ar
    35     8     9   ar
    36     9     1   ar
    37    16    11   ar
    38     9     4   ar
    39    26    21    1
    40    32    28   ar
    41     3    10    1
@<TRIPOS>MOLECULE
*****
 37 41 0 0 0
SMALL
GASTEIGER

@<TRIPOS>ATOM
      1 C         -28.9513   49.0768   -8.3728 C.ar    1  UNL1        0.2250
      2 C         -27.7031   48.8533   -7.7875 C.ar    1  UNL1        0.1212
      3 N         -26.7624   49.5868   -8.4288 N.ar    1  UNL1       -0.2945
      4 C         -27.4457   50.2233   -9.4011 C.ar    1  UNL1        0.3119
      5 C         -26.9077   51.1303  -10.3287 C.ar    1  UNL1        0.1317
      6 C         -27.8105   51.7346  -11.2296 C.ar    1  UNL1        0.0286
      7 C         -29.1817   51.4301  -11.1833 C.ar    1  UNL1        0.0777
      8 C         -29.6561   50.5178  -10.2342 C.ar    1  UNL1        0.2963
      9 N         -28.7623   49.9446   -9.3854 N.ar    1  UNL1       -0.1314
     10 H         -25.7998   49.6425   -8.2302 H       1  UNL1        0.1718
     11 C         -27.3864   48.0233   -6.6052 C.ar    1  UNL1        0.0212
     12 C         -27.4003   48.6046   -5.3310 C.ar    1  UNL1        0.0013
     13 C         -27.0858   47.8491   -4.1983 C.ar    1  UNL1       -0.0042
     14 C         -26.7325   46.4838   -4.3095 C.ar    1  UNL1       -0.0228
     15 C         -26.6977   45.9203   -5.6040 C.ar    1  UNL1       -0.0042
     16 C         -27.0136   46.6797   -6.7328 C.ar    1  UNL1        0.0013
     17 C         -26.3769   45.6107   -3.0883 C.3     1  UNL1        0.0189
     18 C         -27.5156   45.6924   -2.0488 C.3     1  UNL1        0.0044
     19 C         -25.0652   46.1220   -2.4534 C.3     1  UNL1        0.0044
     20 C         -26.1735   44.1189   -3.4474 C.3     1  UNL1        0.0044
     21 N         -25.4977   51.4405  -10.3662 N.pl3   1  UNL1       -0.2988
     22 C         -24.7162   51.2165  -11.5885 C.3     1  UNL1        0.1084
     23 C         -23.5221   52.1733  -11.6348 C.3     1  UNL1        0.0941
     24 N         -22.6403   52.0108  -10.4524 N.3     1  UNL1       -0.2647
     25 C         -23.3655   51.7516   -9.1778 C.3     1  UNL1        0.0941
     26 C         -24.8562   52.1145   -9.2314 C.3     1  UNL1        0.1084
     27 C         -21.7029   53.1461  -10.3230 C.3     1  UNL1        0.1200
     28 C         -20.4523   52.7288   -9.6000 C.ar    1  UNL1        0.0885
     29 N         -20.3713   52.6683   -8.2549 N.ar    1  UNL1       -0.2273
     30 C         -19.1427   52.1653   -8.0147 C.ar    1  UNL1        0.1780
     31 N         -18.4545   51.9066   -9.1451 N.ar    1  UNL1       -0.3128
     32 C         -19.2733   52.2611  -10.1576 C.ar    1  UNL1        0.0537
     33 C         -18.9992   52.0402  -11.6178 C.3     1  UNL1        0.0514
     34 C         -17.1441   51.2576   -9.2156 C.3     1  UNL1        0.1073
     35 C         -16.2356   51.7683   -8.1032 C.3     1  UNL1        0.0265
     36 C         -30.9824   49.5350   -6.9843 C.3     1  UNL1        0.0117
     37 C         -30.2930   48.5537   -7.9289 C.3     1  UNL1        0.0989
@<TRIPOS>BOND
     1    36    37    1
     2    37     1    1
     3     1     2   ar
     4     2    11    1
     5    11    12   ar
     6    12    13   ar
     7    13    14   ar
     8    14    17    1
     9    17    18    1
    10    17    19    1
    11    17    20    1
    12    14    15   ar
    13    15    16   ar
    14     2     3   ar
    15     3     4   ar
    16     4     5   ar
    17     5    21    1
    18    21    22    1
    19    22    23    1
    20    23    24    1
    21    24    27    1
    22    27    28    1
    23    28    29   ar
    24    29    30   ar
    25    30    31   ar
    26    31    34    1
    27    34    35    1
    28    31    32   ar
    29    32    33    1
    30    24    25    1
    31    25    26    1
    32     5     6   ar
    33     6     7   ar
    34     7     8   ar
    35     8     9   ar
    36     9     1   ar
    37    16    11   ar
    38     9     4   ar
    39    26    21    1
    40    32    28   ar
    41     3    10    1
@<TRIPOS>MOLECULE
*****
 37 41 0 0 0
SMALL
GASTEIGER

@<TRIPOS>ATOM
      1 C         -27.2395   50.6711   -6.0748 C.ar    1  UNL1        0.2250
      2 C         -26.7282   50.3269   -7.3281 C.ar    1  UNL1        0.1212
      3 N         -27.5306   49.4031   -7.9083 N.ar    1  UNL1       -0.2945
      4 C         -28.4983   49.1857   -6.9953 C.ar    1  UNL1        0.3119
      5 C         -29.5918   48.3168   -7.1436 C.ar    1  UNL1        0.1317
      6 C         -30.5280   48.2811   -6.0881 C.ar    1  UNL1        0.0286
      7 C         -30.3564   49.0872   -4.9497 C.ar    1  UNL1        0.0777
      8 C         -29.2452   49.9331   -4.8622 C.ar    1  UNL1        0.2963
      9 N         -28.3554   49.9399   -5.8898 N.ar    1  UNL1       -0.1314
     10 H         -27.4302   48.9857   -8.7943 H       1  UNL1        0.1718
     11 C         -25.5474   50.8912   -8.0169 C.ar    1  UNL1        0.0212
     12 C         -25.7290   51.7007   -9.1453 C.ar    1  UNL1        0.0013
     13 C         -24.6308   52.2310   -9.8276 C.ar    1  UNL1       -0.0042
     14 C         -23.3093   51.9537   -9.4060 C.ar    1  UNL1       -0.0228
     15 C         -23.1435   51.1143   -8.2824 C.ar    1  UNL1       -0.0042
     16 C         -24.2446   50.5874   -7.6037 C.ar    1  UNL1        0.0013
     17 C         -22.0669   52.5157  -10.1276 C.3     1  UNL1        0.0189
     18 C         -22.4510   53.8061  -10.8833 C.3     1  UNL1        0.0044
     19 C         -21.5383   51.4701  -11.1338 C.3     1  UNL1        0.0044
     20 C         -20.9090   52.8631   -9.1610 C.3     1  UNL1        0.0044
     21 N         -29.7624   47.4953   -8.3191 N.pl3   1  UNL1       -0.2988
     22 C         -31.0893   47.3221   -8.9227 C.3     1  UNL1        0.1084
     23 C         -30.9543   47.0198  -10.4173 C.3     1  UNL1        0.0941
     24 N         -30.1419   45.8022  -10.6615 N.3     1  UNL1       -0.2647
     25 C         -28.9829   45.6435   -9.7400 C.3     1  UNL1        0.0941
     26 C         -28.5941   46.9366   -9.0094 C.3     1  UNL1        0.1084
     27 C         -29.7271   45.7098  -12.0771 C.3     1  UNL1        0.1200
     28 C         -30.0036   46.9980  -12.8018 C.ar    1  UNL1        0.0885
     29 N         -29.8679   48.2075  -12.2203 N.ar    1  UNL1       -0.2273
     30 C         -30.1082   49.0871  -13.2145 C.ar    1  UNL1        0.1780
     31 N         -30.3846   48.4846  -14.3889 N.ar    1  UNL1       -0.3128
     32 C         -30.3231   47.1596  -14.1402 C.ar    1  UNL1        0.0537
     33 C         -30.4336   46.0736  -15.1719 C.3     1  UNL1        0.0514
     34 C         -30.5794   49.1645  -15.6707 C.3     1  UNL1        0.1073
     35 C         -31.5795   50.3054  -15.5224 C.3     1  UNL1        0.0265
     36 C         -25.9961   51.0956   -3.9448 C.3     1  UNL1        0.0117
     37 C         -26.7353   51.7250   -5.1229 C.3     1  UNL1        0.0989
@<TRIPOS>BOND
     1    36    37    1
     2    37     1    1
     3     1     2   ar
     4     2    11    1
     5    11    12   ar
     6    12    13   ar
     7    13    14   ar
     8    14    17    1
     9    17    18    1
    10    17    19    1
    11    17    20    1
    12    14    15   ar
    13    15    16   ar
    14     2     3   ar
    15     3     4   ar
    16     4     5   ar
    17     5    21    1
    18    21    22    1
    19    22    23    1
    20    23    24    1
    21    24    27    1
    22    27    28    1
    23    28    29   ar
    24    29    30   ar
    25    30    31   ar
    26    31    34    1
    27    34    35    1
    28    31    32   ar
    29    32    33    1
    30    24    25    1
    31    25    26    1
    32     5     6   ar
    33     6     7   ar
    34     7     8   ar
    35     8     9   ar
    36     9     1   ar
    37    16    11   ar
    38     9     4   ar
    39    26    21    1
    40    32    28   ar
    41     3    10    1
@<TRIPOS>MOLECULE
*****
 37 41 0 0 0
SMALL
GASTEIGER

@<TRIPOS>ATOM
      1 C         -29.8986   48.9188   -9.0409 C.ar    1  UNL1        0.2250
      2 C         -28.8144   48.9052   -8.1605 C.ar    1  UNL1        0.1212
      3 N         -27.8032   49.6460   -8.6731 N.ar    1  UNL1       -0.2945
      4 C         -28.2776   50.0770   -9.8590 C.ar    1  UNL1        0.3119
      5 C         -27.6000   50.9097  -10.7647 C.ar    1  UNL1        0.1317
      6 C         -28.3017   51.2950  -11.9270 C.ar    1  UNL1        0.0286
      7 C         -29.6182   50.8558  -12.1488 C.ar    1  UNL1        0.0777
      8 C         -30.2388   50.0273  -11.2073 C.ar    1  UNL1        0.2963
      9 N         -29.5357   49.6651  -10.1017 N.ar    1  UNL1       -0.1314
     10 H         -26.9230   49.8281   -8.2715 H       1  UNL1        0.1718
     11 C         -28.7313   48.2713   -6.8269 C.ar    1  UNL1        0.0212
     12 C         -28.9949   49.0351   -5.6829 C.ar    1  UNL1        0.0013
     13 C         -28.9045   48.4674   -4.4092 C.ar    1  UNL1       -0.0042
     14 C         -28.5318   47.1132   -4.2410 C.ar    1  UNL1       -0.0228
     15 C         -28.2438   46.3646   -5.4035 C.ar    1  UNL1       -0.0042
     16 C         -28.3363   46.9367   -6.6743 C.ar    1  UNL1        0.0013
     17 C         -28.4180   46.4438   -2.8557 C.3     1  UNL1        0.0189
     18 C         -28.7983   47.4625   -1.7597 C.3     1  UNL1        0.0044
     19 C         -26.9663   45.9668   -2.6314 C.3     1  UNL1        0.0044
     20 C         -29.3450   45.2143   -2.6978 C.3     1  UNL1        0.0044
     21 N         -26.2486   51.3599  -10.5264 N.pl3   1  UNL1       -0.2988
     22 C         -25.9073   52.0772   -9.2919 C.3     1  UNL1        0.1084
     23 C         -24.4304   51.8655   -8.9492 C.3     1  UNL1        0.0941
     24 N         -23.5400   52.3233  -10.0444 N.3     1  UNL1       -0.2647
     25 C         -24.0568   52.0427  -11.4125 C.3     1  UNL1        0.0941
     26 C         -25.1690   50.9850  -11.4470 C.3     1  UNL1        0.1084
     27 C         -22.1652   51.8103   -9.8671 C.3     1  UNL1        0.1200
     28 C         -21.2005   52.9369   -9.6203 C.ar    1  UNL1        0.0885
     29 N         -21.1337   54.0284  -10.4101 N.ar    1  UNL1       -0.2273
     30 C         -20.2322   54.8276   -9.8031 C.ar    1  UNL1        0.1780
     31 N         -19.7354   54.2886   -8.6712 N.ar    1  UNL1       -0.3128
     32 C         -20.3402   53.0888   -8.5449 C.ar    1  UNL1        0.0537
     33 C         -20.2068   52.1657   -7.3675 C.3     1  UNL1        0.0514
     34 C         -18.8263   54.9552   -7.7372 C.3     1  UNL1        0.1073
     35 C         -19.3329   56.3547   -7.4073 C.3     1  UNL1        0.0265
     36 C         -31.2908   46.8510   -9.2630 C.3     1  UNL1        0.0117
     37 C         -31.2659   48.3178   -8.8406 C.3     1  UNL1        0.0989
@<TRIPOS>BOND
     1    36    37    1
     2    37     1    1
     3     1     2   ar
     4     2    11    1
     5    11    12   ar
     6    12    13   ar
     7    13    14   ar
     8    14    17    1
     9    17    18    1
    10    17    19    1
    11    17    20    1
    12    14    15   ar
    13    15    16   ar
    14     2     3   ar
    15     3     4   ar
    16     4     5   ar
    17     5    21    1
    18    21    22    1
    19    22    23    1
    20    23    24    1
    21    24    27    1
    22    27    28    1
    23    28    29   ar
    24    29    30   ar
    25    30    31   ar
    26    31    34    1
    27    34    35    1
    28    31    32   ar
    29    32    33    1
    30    24    25    1
    31    25    26    1
    32     5     6   ar
    33     6     7   ar
    34     7     8   ar
    35     8     9   ar
    36     9     1   ar
    37    16    11   ar
    38     9     4   ar
    39    26    21    1
    40    32    28   ar
    41     3    10    1
