@<TRIPOS>MOLECULE
*****
 38 42 0 0 0
SMALL
GASTEIGER

@<TRIPOS>ATOM
      1 C          49.6739   11.4175  -21.1255 C.2     1  UNL1        0.2506
      2 O          50.8514   11.2441  -21.5414 O.2     1  UNL1       -0.2699
      3 N          48.5578   11.2048  -22.0113 N.am    1  UNL1       -0.2680
      4 C          47.3392   10.5600  -21.5132 C.3     1  UNL1        0.1412
      5 C          46.2656   11.6107  -21.2432 C.3     1  UNL1        0.2268
      6 O          46.3700   12.7105  -22.1449 O.3     1  UNL1       -0.4739
      7 C          46.4183   12.5521  -23.5321 C.ar    1  UNL1        0.1362
      8 C          45.3770   13.0936  -24.2909 C.ar    1  UNL1        0.0366
      9 C          45.3574   12.9483  -25.6774 C.ar    1  UNL1        0.0031
     10 C          46.3946   12.2704  -26.3356 C.ar    1  UNL1       -0.0000
     11 C          47.4561   11.7477  -25.5767 C.ar    1  UNL1        0.0004
     12 C          47.4843   11.8763  -24.1767 C.ar    1  UNL1        0.0317
     13 C          48.7353   11.4002  -23.4562 C.3     1  UNL1        0.1236
     14 C          46.3767   12.1228  -27.8127 C.ar    1  UNL1        0.0012
     15 C          46.7199   10.8814  -28.4171 C.ar    1  UNL1       -0.0027
     16 C          46.7124   10.7298  -29.8216 C.ar    1  UNL1       -0.0027
     17 C          47.0391    9.4144  -30.4640 C.3     1  UNL1        0.0327
     18 C          46.3321   11.8363  -30.5846 C.ar    1  UNL1        0.0946
     19 N          46.2263   11.9223  -31.9244 N.ar    1  UNL1       -0.2244
     20 C          45.8242   13.2056  -32.1173 C.ar    1  UNL1        0.1750
     21 N          45.6791   13.9041  -30.9664 N.ar    1  UNL1       -0.3349
     22 C          46.0035   13.0259  -30.0103 C.ar    1  UNL1        0.0753
     23 C          46.0141   13.2174  -28.6325 C.ar    1  UNL1        0.0185
     24 H          45.3795   14.8981  -30.8544 H       1  UNL1        0.1675
     25 C          48.8710   13.0741  -19.4001 C.ar    1  UNL1        0.0503
     26 C          48.6348   13.3769  -18.0434 C.ar    1  UNL1        0.0328
     27 C          49.0039   12.4808  -17.0327 C.ar    1  UNL1        0.1069
     28 C          49.6087   11.2665  -17.3690 C.ar    1  UNL1        0.0186
     29 C          49.8416   10.9459  -18.7058 C.ar    1  UNL1        0.0071
     30 C          49.4631   11.8296  -19.7262 C.ar    1  UNL1        0.0667
     31 S          48.6821   12.8751  -15.3470 S.O2    1  UNL1        0.0105
     32 C          50.2155   13.2446  -14.5265 C.3     1  UNL1        0.1816
     33 O          48.0162   11.7089  -14.6720 O.2     1  UNL1       -0.1686
     34 O          47.7694   14.0666  -15.2628 O.2     1  UNL1       -0.1686
     35 N          48.5485   14.0275  -20.4371 N.pl3   1  UNL1       -0.3325
     36 H          47.5443   14.2239  -20.6489 H       1  UNL1        0.1468
     37 C          49.0009   15.2440  -22.5359 C.3     1  UNL1        0.0229
     38 C          49.5646   14.7501  -21.2064 C.3     1  UNL1        0.0871
@<TRIPOS>BOND
     1    37    38    1
     2    38    35    1
     3    35    25    1
     4    25    26   ar
     5    26    27   ar
     6    27    31    1
     7    31    32    1
     8    31    33    2
     9    31    34    2
    10    27    28   ar
    11    28    29   ar
    12    29    30   ar
    13    30     1    1
    14     1     2    2
    15     1     3   am
    16     3     4    1
    17     4     5    1
    18     5     6    1
    19     6     7    1
    20     7     8   ar
    21     8     9   ar
    22     9    10   ar
    23    10    14    1
    24    14    15   ar
    25    15    16   ar
    26    16    17    1
    27    16    18   ar
    28    18    19   ar
    29    19    20   ar
    30    20    21   ar
    31    21    22   ar
    32    22    23   ar
    33    10    11   ar
    34    11    12   ar
    35    12    13    1
    36    30    25   ar
    37    13     3    1
    38    12     7   ar
    39    23    14   ar
    40    22    18   ar
    41    35    36    1
    42    21    24    1
@<TRIPOS>MOLECULE
*****
 38 42 0 0 0
SMALL
GASTEIGER

@<TRIPOS>ATOM
      1 C          49.6158   11.3629  -20.3482 C.2     1  UNL1        0.2506
      2 O          50.7808   11.0550  -20.7188 O.2     1  UNL1       -0.2699
      3 N          48.5024   11.1805  -21.2441 N.am    1  UNL1       -0.2680
      4 C          47.2216   10.6859  -20.7305 C.3     1  UNL1        0.1412
      5 C          46.2413   11.8446  -20.5692 C.3     1  UNL1        0.2268
      6 O          46.4610   12.8573  -21.5489 O.3     1  UNL1       -0.4739
      7 C          46.5217   12.5874  -22.9183 C.ar    1  UNL1        0.1362
      8 C          45.5479   13.1573  -23.7431 C.ar    1  UNL1        0.0366
      9 C          45.5421   12.9066  -25.1145 C.ar    1  UNL1        0.0031
     10 C          46.5270   12.0910  -25.6919 C.ar    1  UNL1       -0.0000
     11 C          47.5227   11.5380  -24.8680 C.ar    1  UNL1        0.0004
     12 C          47.5352   11.7725  -23.4816 C.ar    1  UNL1        0.0317
     13 C          48.7245   11.2462  -22.6945 C.3     1  UNL1        0.1236
     14 C          46.5245   11.8306  -27.1536 C.ar    1  UNL1        0.0012
     15 C          46.0547   12.8203  -28.0611 C.ar    1  UNL1       -0.0027
     16 C          46.0417   12.5826  -29.4536 C.ar    1  UNL1       -0.0027
     17 C          45.5805   13.6344  -30.4183 C.3     1  UNL1        0.0327
     18 C          46.5301   11.3520  -29.8992 C.ar    1  UNL1        0.0946
     19 N          46.6394   10.9141  -31.1680 N.ar    1  UNL1       -0.2244
     20 C          47.1693    9.6721  -31.0178 C.ar    1  UNL1        0.1750
     21 N          47.3889    9.3320  -29.7256 N.ar    1  UNL1       -0.3349
     22 C          46.9800   10.4023  -29.0341 C.ar    1  UNL1        0.0753
     23 C          46.9939   10.5942  -27.6564 C.ar    1  UNL1        0.0185
     24 H          47.7884    8.4403  -29.3575 H       1  UNL1        0.1675
     25 C          48.9155   13.2073  -18.7753 C.ar    1  UNL1        0.0503
     26 C          48.6824   13.6340  -17.4518 C.ar    1  UNL1        0.0328
     27 C          48.9665   12.7963  -16.3664 C.ar    1  UNL1        0.1069
     28 C          49.4819   11.5171  -16.5937 C.ar    1  UNL1        0.0186
     29 C          49.7100   11.0744  -17.8960 C.ar    1  UNL1        0.0071
     30 C          49.4157   11.8999  -18.9903 C.ar    1  UNL1        0.0667
     31 S          48.6501   13.3467  -14.7240 S.O2    1  UNL1        0.0105
     32 C          50.1940   13.6809  -13.9081 C.3     1  UNL1        0.1816
     33 O          47.8996   12.2852  -13.9695 O.2     1  UNL1       -0.1686
     34 O          47.8176   14.5980  -14.7524 O.2     1  UNL1       -0.1686
     35 N          48.6825   14.0965  -19.8904 N.pl3   1  UNL1       -0.3325
     36 H          47.7019   14.3779  -20.1165 H       1  UNL1        0.1468
     37 C          49.2440   15.0360  -22.1021 C.3     1  UNL1        0.0229
     38 C          49.7598   14.6399  -20.7214 C.3     1  UNL1        0.0871
@<TRIPOS>BOND
     1    37    38    1
     2    38    35    1
     3    35    25    1
     4    25    26   ar
     5    26    27   ar
     6    27    31    1
     7    31    32    1
     8    31    33    2
     9    31    34    2
    10    27    28   ar
    11    28    29   ar
    12    29    30   ar
    13    30     1    1
    14     1     2    2
    15     1     3   am
    16     3     4    1
    17     4     5    1
    18     5     6    1
    19     6     7    1
    20     7     8   ar
    21     8     9   ar
    22     9    10   ar
    23    10    14    1
    24    14    15   ar
    25    15    16   ar
    26    16    17    1
    27    16    18   ar
    28    18    19   ar
    29    19    20   ar
    30    20    21   ar
    31    21    22   ar
    32    22    23   ar
    33    10    11   ar
    34    11    12   ar
    35    12    13    1
    36    30    25   ar
    37    13     3    1
    38    12     7   ar
    39    23    14   ar
    40    22    18   ar
    41    35    36    1
    42    21    24    1
@<TRIPOS>MOLECULE
*****
 38 42 0 0 0
SMALL
GASTEIGER

@<TRIPOS>ATOM
      1 C          48.3611    9.8534  -21.0834 C.2     1  UNL1        0.2506
      2 O          47.8525    8.6999  -21.0761 O.2     1  UNL1       -0.2699
      3 N          48.7885   10.4451  -22.3255 N.am    1  UNL1       -0.2680
      4 C          48.5591   11.8712  -22.5753 C.3     1  UNL1        0.1412
      5 C          49.8494   12.6547  -22.3505 C.3     1  UNL1        0.2268
      6 O          50.9985   11.8795  -22.6854 O.3     1  UNL1       -0.4739
      7 C          51.1456   11.2336  -23.9153 C.ar    1  UNL1        0.1362
      8 C          52.1943   11.6366  -24.7467 C.ar    1  UNL1        0.0366
      9 C          52.3788   11.0456  -25.9959 C.ar    1  UNL1        0.0031
     10 C          51.5234   10.0221  -26.4311 C.ar    1  UNL1       -0.0000
     11 C          50.4839    9.5974  -25.5855 C.ar    1  UNL1        0.0004
     12 C          50.2782   10.1914  -24.3277 C.ar    1  UNL1        0.0317
     13 C          49.2175    9.5761  -23.4292 C.3     1  UNL1        0.1236
     14 C          51.7251    9.3882  -27.7583 C.ar    1  UNL1        0.0012
     15 C          53.0130    9.3751  -28.3625 C.ar    1  UNL1       -0.0027
     16 C          53.2168    8.7803  -29.6275 C.ar    1  UNL1       -0.0027
     17 C          54.5785    8.7321  -30.2545 C.3     1  UNL1        0.0327
     18 C          52.1120    8.1879  -30.2437 C.ar    1  UNL1        0.0946
     19 N          52.0684    7.5449  -31.4262 N.ar    1  UNL1       -0.2244
     20 C          50.7640    7.1785  -31.5267 C.ar    1  UNL1        0.1750
     21 N          50.0125    7.5635  -30.4681 N.ar    1  UNL1       -0.3349
     22 C          50.8780    8.1987  -29.6693 C.ar    1  UNL1        0.0753
     23 C          50.6358    8.7877  -28.4326 C.ar    1  UNL1        0.0185
     24 H          48.9932    7.3982  -30.3129 H       1  UNL1        0.1675
     25 C          47.3960   11.2187  -19.1938 C.ar    1  UNL1        0.0503
     26 C          47.5835   11.8388  -17.9415 C.ar    1  UNL1        0.0328
     27 C          48.8424   11.8534  -17.3285 C.ar    1  UNL1        0.1069
     28 C          49.9285   11.2406  -17.9597 C.ar    1  UNL1        0.0186
     29 C          49.7599   10.6142  -19.1939 C.ar    1  UNL1        0.0071
     30 C          48.5008   10.5816  -19.8096 C.ar    1  UNL1        0.0667
     31 S          49.0463   12.6195  -15.7562 S.O2    1  UNL1        0.0105
     32 C          50.7686   12.6069  -15.3150 C.3     1  UNL1        0.1816
     33 O          48.2543   11.8709  -14.7211 O.2     1  UNL1       -0.1686
     34 O          48.5530   14.0385  -15.8078 O.2     1  UNL1       -0.1686
     35 N          46.1114   11.2608  -19.8544 N.pl3   1  UNL1       -0.3325
     36 H          45.8597   10.4958  -20.5201 H       1  UNL1        0.1468
     37 C          43.8716   11.7768  -18.9561 C.3     1  UNL1        0.0229
     38 C          45.1280   12.3232  -19.6286 C.3     1  UNL1        0.0871
@<TRIPOS>BOND
     1    37    38    1
     2    38    35    1
     3    35    25    1
     4    25    26   ar
     5    26    27   ar
     6    27    31    1
     7    31    32    1
     8    31    33    2
     9    31    34    2
    10    27    28   ar
    11    28    29   ar
    12    29    30   ar
    13    30     1    1
    14     1     2    2
    15     1     3   am
    16     3     4    1
    17     4     5    1
    18     5     6    1
    19     6     7    1
    20     7     8   ar
    21     8     9   ar
    22     9    10   ar
    23    10    14    1
    24    14    15   ar
    25    15    16   ar
    26    16    17    1
    27    16    18   ar
    28    18    19   ar
    29    19    20   ar
    30    20    21   ar
    31    21    22   ar
    32    22    23   ar
    33    10    11   ar
    34    11    12   ar
    35    12    13    1
    36    30    25   ar
    37    13     3    1
    38    12     7   ar
    39    23    14   ar
    40    22    18   ar
    41    35    36    1
    42    21    24    1
