@<TRIPOS>MOLECULE
*****
 47 52 0 0 0
SMALL
GASTEIGER

@<TRIPOS>ATOM
      1 C          59.3193   89.1357    5.5366 C.ar    1  UNL1        0.0702
      2 C          58.5211   90.1933    5.0724 C.ar    1  UNL1        0.0191
      3 C          59.0145   91.0720    4.1068 C.ar    1  UNL1        0.0356
      4 C          60.3132   90.8942    3.6078 C.ar    1  UNL1        0.1318
      5 N          61.0812   89.8807    4.0961 N.ar    1  UNL1       -0.2279
      6 C          60.6223   89.0135    5.0368 C.ar    1  UNL1        0.1149
      7 N          60.8543   91.7926    2.6214 N.pl3   1  UNL1       -0.2932
      8 C          62.2023   91.5740    2.0784 C.3     1  UNL1        0.0923
      9 C          62.2405   91.9561    0.5968 C.3     1  UNL1        0.0252
     10 C          61.7202   93.3914    0.3955 C.3     1  UNL1        0.0472
     11 C          60.2935   93.5249    0.9628 C.3     1  UNL1        0.0252
     12 C          60.2511   93.1191    2.4402 C.3     1  UNL1        0.0923
     13 C          61.7817   93.8400   -1.0789 C.3     1  UNL1        0.2054
     14 O          60.9701   93.0218   -1.9270 O.3     1  UNL1       -0.4755
     15 C          59.8162   92.3103   -1.5559 C.ar    1  UNL1        0.1388
     16 C          59.9901   91.0839   -0.9059 C.ar    1  UNL1        0.0369
     17 C          58.8871   90.3238   -0.5147 C.ar    1  UNL1        0.0033
     18 C          57.5936   90.7830   -0.7673 C.ar    1  UNL1        0.0066
     19 C          57.3906   92.0149   -1.4131 C.ar    1  UNL1        0.0785
     20 C          58.5080   92.7773   -1.8006 C.ar    1  UNL1        0.0433
     21 C          56.0204   92.5050   -1.6845 C.2     1  UNL1        0.3381
     22 O          55.0380   91.7162   -1.6327 O.2     1  UNL1       -0.2451
     23 O          55.8026   93.8435   -2.0013 O.3     1  UNL1       -0.4771
     24 H          54.8690   94.1886   -2.1896 H       1  UNL1        0.2954
     25 C          59.7218   87.5621    7.4819 C.2     1  UNL1        0.2839
     26 O          60.8311   88.0765    7.7877 O.2     1  UNL1       -0.2665
     27 N          58.8558   88.2259    6.5491 N.am    1  UNL1       -0.2766
     28 H          57.8252   88.1249    6.6850 H       1  UNL1        0.1553
     29 C          58.2978   82.5251   10.4363 C.ar    1  UNL1        0.0002
     30 C          57.2717   82.5364    9.4529 C.ar    1  UNL1        0.0031
     31 C          57.1950   83.5700    8.5030 C.ar    1  UNL1        0.0375
     32 C          58.1514   84.5779    8.5564 C.ar    1  UNL1        0.1452
     33 O          58.2556   85.6202    7.7687 O.2     1  UNL1       -0.4492
     34 C          59.3048   86.3220    8.1599 C.ar    1  UNL1        0.1946
     35 C          59.8984   85.7148    9.2737 C.ar    1  UNL1        0.0202
     36 C          61.0859   86.1740   10.0649 C.3     1  UNL1        0.0345
     37 C          59.1439   84.5805    9.4984 C.ar    1  UNL1        0.0337
     38 C          59.2514   83.5714   10.4556 C.ar    1  UNL1        0.0028
     39 C          58.5056   79.3350   13.3358 C.ar    1  UNL1        0.0347
     40 C          58.4404   79.0520   11.9593 C.ar    1  UNL1        0.0028
     41 C          58.3740   80.0851   11.0204 C.ar    1  UNL1        0.0001
     42 C          58.3699   81.4275   11.4338 C.ar    1  UNL1        0.0000
     43 C          58.4343   81.7135   12.8078 C.ar    1  UNL1        0.0001
     44 C          58.5019   80.6811   13.7476 C.ar    1  UNL1        0.0028
     45 C          59.0546   76.8542   13.9410 C.3     1  UNL1        0.0773
     46 C          58.5764   78.2233   14.3224 C.2     1  UNL1        0.1735
     47 O          58.2270   78.4240   15.5175 O.2     1  UNL1       -0.2913
@<TRIPOS>BOND
     1    45    46    1
     2    46    47    2
     3    46    39    1
     4    39    40   ar
     5    40    41   ar
     6    41    42   ar
     7    42    29    1
     8    29    30   ar
     9    30    31   ar
    10    31    32   ar
    11    32    33   ar
    12    33    34   ar
    13    34    25    1
    14    25    26    2
    15    25    27   am
    16    27     1    1
    17     1     2   ar
    18     2     3   ar
    19     3     4   ar
    20     4     7    1
    21     7     8    1
    22     8     9    1
    23     9    10    1
    24    10    13    1
    25    13    14    1
    26    14    15    1
    27    15    16   ar
    28    16    17   ar
    29    17    18   ar
    30    18    19   ar
    31    19    21    1
    32    21    22    2
    33    21    23    1
    34    19    20   ar
    35    10    11    1
    36    11    12    1
    37     4     5   ar
    38     5     6   ar
    39    34    35   ar
    40    35    36    1
    41    35    37   ar
    42    37    38   ar
    43    42    43   ar
    44    43    44   ar
    45    44    39   ar
    46    38    29   ar
    47    37    32   ar
    48     6     1   ar
    49    12     7    1
    50    20    15   ar
    51    27    28    1
    52    23    24    1
@<TRIPOS>MOLECULE
*****
 47 52 0 0 0
SMALL
GASTEIGER

@<TRIPOS>ATOM
      1 C          59.3256   89.8206    5.5215 C.ar    1  UNL1        0.0702
      2 C          60.5166   89.8698    4.7797 C.ar    1  UNL1        0.0191
      3 C          60.5624   90.5704    3.5736 C.ar    1  UNL1        0.0356
      4 C          59.4107   91.2201    3.1059 C.ar    1  UNL1        0.1318
      5 N          58.2578   91.1321    3.8260 N.ar    1  UNL1       -0.2279
      6 C          58.1892   90.4549    5.0026 C.ar    1  UNL1        0.1149
      7 N          59.4238   91.9392    1.8587 N.pl3   1  UNL1       -0.2932
      8 C          59.7626   93.3690    1.8298 C.3     1  UNL1        0.0923
      9 C          60.5568   93.6954    0.5628 C.3     1  UNL1        0.0252
     10 C          59.7983   93.2162   -0.6888 C.3     1  UNL1        0.0472
     11 C          59.5118   91.7050   -0.5916 C.3     1  UNL1        0.0252
     12 C          58.7374   91.3754    0.6893 C.3     1  UNL1        0.0923
     13 C          60.5386   93.5637   -1.9965 C.3     1  UNL1        0.2054
     14 O          61.9251   93.8397   -1.7756 O.3     1  UNL1       -0.4755
     15 C          62.8169   93.0913   -0.9880 C.ar    1  UNL1        0.1388
     16 C          63.5190   92.0534   -1.6099 C.ar    1  UNL1        0.0369
     17 C          64.4161   91.2678   -0.8852 C.ar    1  UNL1        0.0033
     18 C          64.6244   91.5125    0.4730 C.ar    1  UNL1        0.0066
     19 C          63.9367   92.5531    1.1209 C.ar    1  UNL1        0.0785
     20 C          63.0368   93.3435    0.3821 C.ar    1  UNL1        0.0433
     21 C          64.1533   92.8152    2.5617 C.2     1  UNL1        0.3381
     22 O          64.7973   93.8326    2.9359 O.2     1  UNL1       -0.2451
     23 O          63.6484   91.9389    3.5191 O.3     1  UNL1       -0.4771
     24 H          63.7920   92.1088    4.5073 H       1  UNL1        0.2954
     25 C          60.3711   88.6457    7.5086 C.2     1  UNL1        0.2839
     26 O          61.4676   89.2597    7.4114 O.2     1  UNL1       -0.2665
     27 N          59.2321   89.0875    6.7550 N.am    1  UNL1       -0.2766
     28 H          58.2874   88.9633    7.1828 H       1  UNL1        0.1553
     29 C          59.8155   83.9070   11.1641 C.ar    1  UNL1        0.0002
     30 C          60.2320   84.8948   12.0974 C.ar    1  UNL1        0.0031
     31 C          60.4973   86.2117   11.6828 C.ar    1  UNL1        0.0375
     32 C          60.3403   86.5159   10.3351 C.ar    1  UNL1        0.1452
     33 O          60.5338   87.6735    9.7516 O.2     1  UNL1       -0.4492
     34 C          60.2662   87.5300    8.4655 C.ar    1  UNL1        0.1946
     35 C          59.9021   86.2044    8.1973 C.ar    1  UNL1        0.0202
     36 C          59.5470   85.5820    6.8808 C.3     1  UNL1        0.0345
     37 C          59.9412   85.5747    9.4255 C.ar    1  UNL1        0.0337
     38 C          59.6687   84.2590    9.8008 C.ar    1  UNL1        0.0028
     39 C          59.0038   79.8747   12.4716 C.ar    1  UNL1        0.0347
     40 C          58.4166   80.3817   11.2981 C.ar    1  UNL1        0.0028
     41 C          58.6801   81.6871   10.8743 C.ar    1  UNL1        0.0001
     42 C          59.5366   82.5194   11.6136 C.ar    1  UNL1        0.0000
     43 C          60.1242   82.0164   12.7865 C.ar    1  UNL1        0.0001
     44 C          59.8623   80.7106   13.2106 C.ar    1  UNL1        0.0028
     45 C          58.8112   78.0657   14.3458 C.3     1  UNL1        0.0773
     46 C          58.7132   78.4823   12.9086 C.2     1  UNL1        0.1735
     47 O          58.3738   77.6168   12.0563 O.2     1  UNL1       -0.2913
@<TRIPOS>BOND
     1    45    46    1
     2    46    47    2
     3    46    39    1
     4    39    40   ar
     5    40    41   ar
     6    41    42   ar
     7    42    29    1
     8    29    30   ar
     9    30    31   ar
    10    31    32   ar
    11    32    33   ar
    12    33    34   ar
    13    34    25    1
    14    25    26    2
    15    25    27   am
    16    27     1    1
    17     1     2   ar
    18     2     3   ar
    19     3     4   ar
    20     4     7    1
    21     7     8    1
    22     8     9    1
    23     9    10    1
    24    10    13    1
    25    13    14    1
    26    14    15    1
    27    15    16   ar
    28    16    17   ar
    29    17    18   ar
    30    18    19   ar
    31    19    21    1
    32    21    22    2
    33    21    23    1
    34    19    20   ar
    35    10    11    1
    36    11    12    1
    37     4     5   ar
    38     5     6   ar
    39    34    35   ar
    40    35    36    1
    41    35    37   ar
    42    37    38   ar
    43    42    43   ar
    44    43    44   ar
    45    44    39   ar
    46    38    29   ar
    47    37    32   ar
    48     6     1   ar
    49    12     7    1
    50    20    15   ar
    51    27    28    1
    52    23    24    1
@<TRIPOS>MOLECULE
*****
 47 52 0 0 0
SMALL
GASTEIGER

@<TRIPOS>ATOM
      1 C          59.7550   88.9749    5.7272 C.ar    1  UNL1        0.0702
      2 C          58.5100   89.5310    5.3928 C.ar    1  UNL1        0.0191
      3 C          58.4023   90.4103    4.3144 C.ar    1  UNL1        0.0356
      4 C          59.5459   90.7379    3.5711 C.ar    1  UNL1        0.1318
      5 N          60.7489   90.2116    3.9335 N.ar    1  UNL1       -0.2279
      6 C          60.8779   89.3541    4.9802 C.ar    1  UNL1        0.1149
      7 N          59.4683   91.6525    2.4620 N.pl3   1  UNL1       -0.2932
      8 C          59.8837   93.0528    2.6242 C.3     1  UNL1        0.0923
      9 C          60.5569   93.5530    1.3439 C.3     1  UNL1        0.0252
     10 C          59.6440   93.3180    0.1262 C.3     1  UNL1        0.0472
     11 C          59.2830   91.8241    0.0119 C.3     1  UNL1        0.0252
     12 C          58.6308   91.3177    1.3031 C.3     1  UNL1        0.0923
     13 C          60.2605   93.8479   -1.1845 C.3     1  UNL1        0.2054
     14 O          61.1987   92.9279   -1.7510 O.3     1  UNL1       -0.4755
     15 C          62.3917   92.4738   -1.1629 C.ar    1  UNL1        0.1388
     16 C          63.2964   91.7848   -1.9776 C.ar    1  UNL1        0.0369
     17 C          64.4975   91.3021   -1.4564 C.ar    1  UNL1        0.0033
     18 C          64.8105   91.5050   -0.1115 C.ar    1  UNL1        0.0066
     19 C          63.9221   92.1995    0.7276 C.ar    1  UNL1        0.0785
     20 C          62.7149   92.6868    0.1934 C.ar    1  UNL1        0.0433
     21 C          64.2493   92.4155    2.1551 C.2     1  UNL1        0.3381
     22 O          63.5680   91.8579    3.0578 O.2     1  UNL1       -0.2451
     23 O          65.3130   93.2388    2.5156 O.3     1  UNL1       -0.4771
     24 H          65.5444   93.3937    3.4895 H       1  UNL1        0.2954
     25 C          59.8687   88.5134    8.2165 C.2     1  UNL1        0.2839
     26 O          59.2353   89.5564    8.5319 O.2     1  UNL1       -0.2665
     27 N          59.9105   88.0860    6.8468 N.am    1  UNL1       -0.2766
     28 H          59.9474   87.0594    6.6581 H       1  UNL1        0.1553
     29 C          62.2546   84.9579   12.4347 C.ar    1  UNL1        0.0002
     30 C          62.6038   86.2332   12.9563 C.ar    1  UNL1        0.0031
     31 C          62.2447   87.4118   12.2791 C.ar    1  UNL1        0.0375
     32 C          61.5399   87.2906   11.0867 C.ar    1  UNL1        0.1452
     33 O          61.1141   88.2573   10.3108 O.2     1  UNL1       -0.4492
     34 C          60.4862   87.7088    9.2855 C.ar    1  UNL1        0.1946
     35 C          60.5269   86.3127    9.3906 C.ar    1  UNL1        0.0202
     36 C          59.9751   85.2890    8.4448 C.3     1  UNL1        0.0345
     37 C          61.1983   86.0695   10.5723 C.ar    1  UNL1        0.0337
     38 C          61.5371   84.8796   11.2168 C.ar    1  UNL1        0.0028
     39 C          63.3675   81.3582   14.5396 C.ar    1  UNL1        0.0347
     40 C          64.0706   81.7658   13.3913 C.ar    1  UNL1        0.0028
     41 C          63.7108   82.9320   12.7102 C.ar    1  UNL1        0.0001
     42 C          62.6380   83.7197   13.1592 C.ar    1  UNL1        0.0000
     43 C          61.9333   83.3150   14.3053 C.ar    1  UNL1        0.0001
     44 C          62.2931   82.1496   14.9879 C.ar    1  UNL1        0.0028
     45 C          64.2544   80.1352   16.6703 C.3     1  UNL1        0.0773
     46 C          63.7639   80.1142   15.2534 C.2     1  UNL1        0.1735
     47 O          63.6907   79.0027   14.6617 O.2     1  UNL1       -0.2913
@<TRIPOS>BOND
     1    45    46    1
     2    46    47    2
     3    46    39    1
     4    39    40   ar
     5    40    41   ar
     6    41    42   ar
     7    42    29    1
     8    29    30   ar
     9    30    31   ar
    10    31    32   ar
    11    32    33   ar
    12    33    34   ar
    13    34    25    1
    14    25    26    2
    15    25    27   am
    16    27     1    1
    17     1     2   ar
    18     2     3   ar
    19     3     4   ar
    20     4     7    1
    21     7     8    1
    22     8     9    1
    23     9    10    1
    24    10    13    1
    25    13    14    1
    26    14    15    1
    27    15    16   ar
    28    16    17   ar
    29    17    18   ar
    30    18    19   ar
    31    19    21    1
    32    21    22    2
    33    21    23    1
    34    19    20   ar
    35    10    11    1
    36    11    12    1
    37     4     5   ar
    38     5     6   ar
    39    34    35   ar
    40    35    36    1
    41    35    37   ar
    42    37    38   ar
    43    42    43   ar
    44    43    44   ar
    45    44    39   ar
    46    38    29   ar
    47    37    32   ar
    48     6     1   ar
    49    12     7    1
    50    20    15   ar
    51    27    28    1
    52    23    24    1
