@<TRIPOS>MOLECULE
*****
 36 39 0 0 0
SMALL
GASTEIGER

@<TRIPOS>ATOM
      1 C          46.6865   12.2140  -20.7906 C.ar    1  UNL1        0.1718
      2 C          46.0713   11.9972  -22.0349 C.ar    1  UNL1        0.0400
      3 C          46.6625   12.4617  -23.2081 C.ar    1  UNL1        0.0030
      4 C          47.8803   13.1562  -23.1702 C.ar    1  UNL1       -0.0014
      5 C          48.4943   13.4106  -21.9190 C.ar    1  UNL1        0.0146
      6 C          47.9023   12.9202  -20.7353 C.ar    1  UNL1        0.1636
      7 O          48.5297   13.1394  -19.5065 O.3     1  UNL1       -0.5031
      8 C          49.7830   14.2045  -21.8668 C.3     1  UNL1        0.0324
      9 C          50.9784   13.4050  -22.4137 C.3     1  UNL1        0.0386
     10 C          50.6838   12.6057  -23.7057 C.3     1  UNL1        0.1343
     11 C          49.8441   13.4283  -24.6841 C.2     1  UNL1       -0.0132
     12 C          48.5126   13.6091  -24.4449 C.2     1  UNL1       -0.0054
     13 H          48.1441   12.8062  -18.6313 H       1  UNL1        0.2923
     14 C          47.6538   14.3361  -25.4048 C.ar    1  UNL1        0.0057
     15 C          47.2852   15.6572  -25.1481 C.ar    1  UNL1        0.0402
     16 C          46.4941   16.3665  -26.0678 C.ar    1  UNL1        0.1754
     17 C          46.0599   15.7427  -27.2506 C.ar    1  UNL1        0.2061
     18 C          46.4151   14.3919  -27.5055 C.ar    1  UNL1        0.1754
     19 C          47.2104   13.7041  -26.5695 C.ar    1  UNL1        0.0402
     20 O          46.1188   17.7015  -25.8450 O.3     1  UNL1       -0.4683
     21 C          46.8197   18.6079  -24.9994 C.3     1  UNL1        0.2526
     22 O          45.2808   16.5235  -28.1262 O.3     1  UNL1       -0.4654
     23 C          43.9146   16.8834  -27.9540 C.3     1  UNL1        0.2528
     24 O          45.9778   13.7583  -28.6792 O.3     1  UNL1       -0.4683
     25 C          46.2839   12.4165  -29.0460 C.3     1  UNL1        0.2526
     26 C          44.7883   12.0147  -19.1690 C.3     1  UNL1        0.2526
     27 O          46.1205   11.7450  -19.5939 O.3     1  UNL1       -0.4684
     28 O          51.9125   12.2226  -24.3071 O.3     1  UNL1       -0.3495
     29 C          51.9310   10.8404  -24.5919 C.3     1  UNL1        0.1744
     30 C          50.5161   14.0744  -25.8902 C.3     1  UNL1        0.0506
     31 C          50.5133   15.5818  -25.8153 C.ar    1  UNL1       -0.0180
     32 C          50.1141   16.3560  -26.9192 C.ar    1  UNL1       -0.0039
     33 C          50.1217   17.7519  -26.8415 C.ar    1  UNL1       -0.0003
     34 C          50.5387   18.3865  -25.6688 C.ar    1  UNL1       -0.0000
     35 C          50.9514   17.6264  -24.5719 C.ar    1  UNL1       -0.0003
     36 C          50.9481   16.2306  -24.6455 C.ar    1  UNL1       -0.0039
@<TRIPOS>BOND
     1    26    27    1
     2    27     1    1
     3     1     2   ar
     4     2     3   ar
     5     3     4   ar
     6     4     5   ar
     7     5     6   ar
     8     6     7    1
     9     5     8    1
    10     8     9    1
    11     9    10    1
    12    10    28    1
    13    28    29    1
    14    10    11    1
    15    11    30    1
    16    30    31    1
    17    31    32   ar
    18    32    33   ar
    19    33    34   ar
    20    34    35   ar
    21    35    36   ar
    22    11    12    2
    23    12    14    1
    24    14    15   ar
    25    15    16   ar
    26    16    20    1
    27    20    21    1
    28    16    17   ar
    29    17    22    1
    30    22    23    1
    31    17    18   ar
    32    18    24    1
    33    24    25    1
    34    18    19   ar
    35     6     1   ar
    36    36    31   ar
    37    19    14   ar
    38    12     4    1
    39     7    13    1
@<TRIPOS>MOLECULE
*****
 36 39 0 0 0
SMALL
GASTEIGER

@<TRIPOS>ATOM
      1 C          46.6590   12.2374  -20.8261 C.ar    1  UNL1        0.1718
      2 C          46.0432   12.0434  -22.0739 C.ar    1  UNL1        0.0400
      3 C          46.6448   12.5097  -23.2411 C.ar    1  UNL1        0.0030
      4 C          47.8739   13.1832  -23.1935 C.ar    1  UNL1       -0.0014
      5 C          48.4892   13.4146  -21.9385 C.ar    1  UNL1        0.0146
      6 C          47.8864   12.9224  -20.7611 C.ar    1  UNL1        0.1636
      7 O          48.5145   13.1187  -19.5287 O.3     1  UNL1       -0.5031
      8 C          49.7910   14.1862  -21.8756 C.3     1  UNL1        0.0324
      9 C          50.9740   13.3722  -22.4279 C.3     1  UNL1        0.0386
     10 C          50.6690   12.5910  -23.7285 C.3     1  UNL1        0.1343
     11 C          49.8456   13.4373  -24.7004 C.2     1  UNL1       -0.0132
     12 C          48.5167   13.6382  -24.4622 C.2     1  UNL1       -0.0054
     13 H          48.1212   12.7832  -18.6578 H       1  UNL1        0.2923
     14 C          47.6725   14.3891  -25.4166 C.ar    1  UNL1        0.0057
     15 C          47.2435   13.7798  -26.5963 C.ar    1  UNL1        0.0402
     16 C          46.4167   14.4744  -27.4956 C.ar    1  UNL1        0.1754
     17 C          46.0248   15.7951  -27.2151 C.ar    1  UNL1        0.2061
     18 C          46.4766   16.4259  -26.0260 C.ar    1  UNL1        0.1754
     19 C          47.3020   15.7078  -25.1403 C.ar    1  UNL1        0.0402
     20 O          45.9566   13.8837  -28.6840 O.3     1  UNL1       -0.4683
     21 C          46.2500   12.5508  -29.0905 C.3     1  UNL1        0.2526
     22 O          45.1869   16.4187  -28.1597 O.3     1  UNL1       -0.4654
     23 C          43.8849   16.9427  -27.9233 C.3     1  UNL1        0.2528
     24 O          46.0981   17.7476  -25.7427 O.3     1  UNL1       -0.4683
     25 C          46.8795   18.6804  -25.0024 C.3     1  UNL1        0.2526
     26 C          44.7435   12.0270  -19.2263 C.3     1  UNL1        0.2526
     27 O          46.0823   11.7659  -19.6355 O.3     1  UNL1       -0.4684
     28 O          51.8925   12.1934  -24.3311 O.3     1  UNL1       -0.3495
     29 C          51.9023   10.8074  -24.5974 C.3     1  UNL1        0.1744
     30 C          50.5311   14.0841  -25.8984 C.3     1  UNL1        0.0506
     31 C          50.5547   15.5905  -25.8077 C.ar    1  UNL1       -0.0180
     32 C          50.9452   16.2335  -24.6198 C.ar    1  UNL1       -0.0039
     33 C          50.9569   17.6295  -24.5442 C.ar    1  UNL1       -0.0003
     34 C          50.5679   18.3945  -25.6466 C.ar    1  UNL1       -0.0000
     35 C          50.1641   17.7650  -26.8264 C.ar    1  UNL1       -0.0003
     36 C          50.1482   16.3696  -26.9060 C.ar    1  UNL1       -0.0039
@<TRIPOS>BOND
     1    26    27    1
     2    27     1    1
     3     1     2   ar
     4     2     3   ar
     5     3     4   ar
     6     4     5   ar
     7     5     6   ar
     8     6     7    1
     9     5     8    1
    10     8     9    1
    11     9    10    1
    12    10    28    1
    13    28    29    1
    14    10    11    1
    15    11    30    1
    16    30    31    1
    17    31    32   ar
    18    32    33   ar
    19    33    34   ar
    20    34    35   ar
    21    35    36   ar
    22    11    12    2
    23    12    14    1
    24    14    15   ar
    25    15    16   ar
    26    16    20    1
    27    20    21    1
    28    16    17   ar
    29    17    22    1
    30    22    23    1
    31    17    18   ar
    32    18    24    1
    33    24    25    1
    34    18    19   ar
    35     6     1   ar
    36    36    31   ar
    37    19    14   ar
    38    12     4    1
    39     7    13    1
@<TRIPOS>MOLECULE
*****
 36 39 0 0 0
SMALL
GASTEIGER

@<TRIPOS>ATOM
      1 C          50.6017   17.6495  -25.3650 C.ar    1  UNL1        0.1718
      2 C          51.1165   16.3878  -25.7070 C.ar    1  UNL1        0.0400
      3 C          50.2616   15.3096  -25.9266 C.ar    1  UNL1        0.0030
      4 C          48.8724   15.4613  -25.8082 C.ar    1  UNL1       -0.0014
      5 C          48.3424   16.7200  -25.4314 C.ar    1  UNL1        0.0146
      6 C          49.2108   17.8142  -25.2302 C.ar    1  UNL1        0.1636
      7 O          48.6826   19.0637  -24.8961 O.3     1  UNL1       -0.5031
      8 C          46.8468   16.8774  -25.2518 C.3     1  UNL1        0.0324
      9 C          46.0952   16.8406  -26.5938 C.3     1  UNL1        0.0386
     10 C          46.5856   15.7526  -27.5789 C.3     1  UNL1        0.1343
     11 C          46.8548   14.4329  -26.8542 C.2     1  UNL1       -0.0132
     12 C          47.9759   14.3002  -26.0872 C.2     1  UNL1       -0.0054
     13 H          49.2653   19.8778  -24.7431 H       1  UNL1        0.2923
     14 C          48.3073   13.0170  -25.4307 C.ar    1  UNL1        0.0057
     15 C          49.3128   12.2047  -25.9562 C.ar    1  UNL1        0.0402
     16 C          49.6556   10.9978  -25.3233 C.ar    1  UNL1        0.1754
     17 C          48.9775   10.5963  -24.1590 C.ar    1  UNL1        0.2061
     18 C          47.9393   11.4096  -23.6331 C.ar    1  UNL1        0.1754
     19 C          47.6166   12.6151  -24.2844 C.ar    1  UNL1        0.0402
     20 O          50.6727   10.1658  -25.8194 O.3     1  UNL1       -0.4683
     21 C          50.7171    9.6452  -27.1441 C.3     1  UNL1        0.2526
     22 O          49.3870    9.3806  -23.5779 O.3     1  UNL1       -0.4654
     23 C          49.8746    9.1951  -22.2538 C.3     1  UNL1        0.2528
     24 O          47.2505   11.0117  -22.4766 O.3     1  UNL1       -0.4683
     25 C          46.8125   11.8893  -21.4439 C.3     1  UNL1        0.2526
     26 C          52.6402   18.7274  -24.3876 C.3     1  UNL1        0.2526
     27 O          51.4389   18.7569  -25.1517 O.3     1  UNL1       -0.4684
     28 O          45.6099   15.5701  -28.5952 O.3     1  UNL1       -0.3495
     29 C          44.5075   16.4302  -28.4032 C.3     1  UNL1        0.1744
     30 C          45.8425   13.2982  -26.9614 C.3     1  UNL1        0.0506
     31 C          46.1511   12.3530  -28.0969 C.ar    1  UNL1       -0.0180
     32 C          46.0216   12.7687  -29.4340 C.ar    1  UNL1       -0.0039
     33 C          46.3034   11.8830  -30.4784 C.ar    1  UNL1       -0.0003
     34 C          46.7038   10.5741  -30.1988 C.ar    1  UNL1       -0.0000
     35 C          46.8210   10.1471  -28.8740 C.ar    1  UNL1       -0.0003
     36 C          46.5378   11.0281  -27.8263 C.ar    1  UNL1       -0.0039
@<TRIPOS>BOND
     1    26    27    1
     2    27     1    1
     3     1     2   ar
     4     2     3   ar
     5     3     4   ar
     6     4     5   ar
     7     5     6   ar
     8     6     7    1
     9     5     8    1
    10     8     9    1
    11     9    10    1
    12    10    28    1
    13    28    29    1
    14    10    11    1
    15    11    30    1
    16    30    31    1
    17    31    32   ar
    18    32    33   ar
    19    33    34   ar
    20    34    35   ar
    21    35    36   ar
    22    11    12    2
    23    12    14    1
    24    14    15   ar
    25    15    16   ar
    26    16    20    1
    27    20    21    1
    28    16    17   ar
    29    17    22    1
    30    22    23    1
    31    17    18   ar
    32    18    24    1
    33    24    25    1
    34    18    19   ar
    35     6     1   ar
    36    36    31   ar
    37    19    14   ar
    38    12     4    1
    39     7    13    1
@<TRIPOS>MOLECULE
*****
 36 39 0 0 0
SMALL
GASTEIGER

@<TRIPOS>ATOM
      1 C          50.6021   17.6766  -25.3390 C.ar    1  UNL1        0.1718
      2 C          51.1207   16.4084  -25.6497 C.ar    1  UNL1        0.0400
      3 C          50.2681   15.3273  -25.8638 C.ar    1  UNL1        0.0030
      4 C          48.8774   15.4826  -25.7710 C.ar    1  UNL1       -0.0014
      5 C          48.3430   16.7484  -25.4257 C.ar    1  UNL1        0.0146
      6 C          49.2094   17.8452  -25.2301 C.ar    1  UNL1        0.1636
      7 O          48.6775   19.1010  -24.9273 O.3     1  UNL1       -0.5031
      8 C          46.8448   16.9106  -25.2735 C.3     1  UNL1        0.0324
      9 C          46.1152   16.8503  -26.6267 C.3     1  UNL1        0.0386
     10 C          46.6203   15.7441  -27.5839 C.3     1  UNL1        0.1343
     11 C          46.8758   14.4375  -26.8312 C.2     1  UNL1       -0.0132
     12 C          47.9840   14.3175  -26.0436 C.2     1  UNL1       -0.0054
     13 H          49.2587   19.9172  -24.7796 H       1  UNL1        0.2923
     14 C          48.3029   13.0460  -25.3587 C.ar    1  UNL1        0.0057
     15 C          47.5950   12.6739  -24.2152 C.ar    1  UNL1        0.0402
     16 C          47.8698   11.4540  -23.5741 C.ar    1  UNL1        0.1754
     17 C          48.8703   10.6041  -24.0775 C.ar    1  UNL1        0.2061
     18 C          49.6074   10.9889  -25.2284 C.ar    1  UNL1        0.1754
     19 C          49.3112   12.2148  -25.8537 C.ar    1  UNL1        0.0402
     20 O          47.1649   11.0448  -22.4302 O.3     1  UNL1       -0.4683
     21 C          46.7972   11.9049  -21.3565 C.3     1  UNL1        0.2526
     22 O          49.0778    9.3950  -23.3859 O.3     1  UNL1       -0.4654
     23 C          49.8521    9.2152  -22.2054 C.3     1  UNL1        0.2528
     24 O          50.6146   10.1510  -25.7321 O.3     1  UNL1       -0.4683
     25 C          50.7531    9.7695  -27.0973 C.3     1  UNL1        0.2526
     26 C          52.6482   18.7596  -24.3834 C.3     1  UNL1        0.2526
     27 O          51.4372   18.7868  -25.1321 O.3     1  UNL1       -0.4684
     28 O          45.6611   15.5443  -28.6126 O.3     1  UNL1       -0.3495
     29 C          44.5557   16.4072  -28.4528 C.3     1  UNL1        0.1744
     30 C          45.8639   13.3021  -26.9344 C.3     1  UNL1        0.0506
     31 C          46.1721   12.3537  -28.0673 C.ar    1  UNL1       -0.0180
     32 C          46.0314   12.7620  -29.4054 C.ar    1  UNL1       -0.0039
     33 C          46.3130   11.8733  -30.4474 C.ar    1  UNL1       -0.0003
     34 C          46.7245   10.5686  -30.1641 C.ar    1  UNL1       -0.0000
     35 C          46.8530   10.1489  -28.8380 C.ar    1  UNL1       -0.0003
     36 C          46.5700   11.0329  -27.7928 C.ar    1  UNL1       -0.0039
@<TRIPOS>BOND
     1    26    27    1
     2    27     1    1
     3     1     2   ar
     4     2     3   ar
     5     3     4   ar
     6     4     5   ar
     7     5     6   ar
     8     6     7    1
     9     5     8    1
    10     8     9    1
    11     9    10    1
    12    10    28    1
    13    28    29    1
    14    10    11    1
    15    11    30    1
    16    30    31    1
    17    31    32   ar
    18    32    33   ar
    19    33    34   ar
    20    34    35   ar
    21    35    36   ar
    22    11    12    2
    23    12    14    1
    24    14    15   ar
    25    15    16   ar
    26    16    20    1
    27    20    21    1
    28    16    17   ar
    29    17    22    1
    30    22    23    1
    31    17    18   ar
    32    18    24    1
    33    24    25    1
    34    18    19   ar
    35     6     1   ar
    36    36    31   ar
    37    19    14   ar
    38    12     4    1
    39     7    13    1
@<TRIPOS>MOLECULE
*****
 36 39 0 0 0
SMALL
GASTEIGER

@<TRIPOS>ATOM
      1 C          52.0830   10.2661  -27.0123 C.ar    1  UNL1        0.1718
      2 C          52.6361   11.5500  -27.1515 C.ar    1  UNL1        0.0400
      3 C          52.1609   12.6131  -26.3863 C.ar    1  UNL1        0.0030
      4 C          51.1207   12.4236  -25.4650 C.ar    1  UNL1       -0.0014
      5 C          50.5318   11.1413  -25.3387 C.ar    1  UNL1        0.0146
      6 C          51.0303   10.0631  -26.1009 C.ar    1  UNL1        0.1636
      7 O          50.4730    8.7913  -25.9465 O.3     1  UNL1       -0.5031
      8 C          49.3740   10.9417  -24.3829 C.3     1  UNL1        0.0324
      9 C          49.8205   11.0012  -22.9118 C.3     1  UNL1        0.0386
     10 C          50.8274   12.1308  -22.5878 C.3     1  UNL1        0.1343
     11 C          50.4392   13.4338  -23.2883 C.2     1  UNL1       -0.0132
     12 C          50.6562   13.5704  -24.6289 C.2     1  UNL1       -0.0054
     13 H          50.7977    7.9875  -26.4701 H       1  UNL1        0.2923
     14 C          50.3616   14.8405  -25.3269 C.ar    1  UNL1        0.0057
     15 C          51.1387   15.9714  -25.0734 C.ar    1  UNL1        0.0402
     16 C          50.8859   17.1751  -25.7532 C.ar    1  UNL1        0.1754
     17 C          49.8382   17.2489  -26.6878 C.ar    1  UNL1        0.2061
     18 C          49.0318   16.1064  -26.9330 C.ar    1  UNL1        0.1754
     19 C          49.3070   14.9120  -26.2409 C.ar    1  UNL1        0.0402
     20 O          51.6594   18.3262  -25.5308 O.3     1  UNL1       -0.4683
     21 C          52.4844   18.5377  -24.3895 C.3     1  UNL1        0.2526
     22 O          49.6563   18.4863  -27.3352 O.3     1  UNL1       -0.4654
     23 C          48.6989   19.4852  -27.0020 C.3     1  UNL1        0.2528
     24 O          47.9776   16.1739  -27.8573 O.3     1  UNL1       -0.4683
     25 C          46.5940   16.1836  -27.5194 C.3     1  UNL1        0.2526
     26 C          52.8345    9.2103  -29.1554 C.3     1  UNL1        0.2526
     27 O          52.5517    9.1737  -27.7602 O.3     1  UNL1       -0.4684
     28 O          50.8784   12.3204  -21.1809 O.3     1  UNL1       -0.3495
     29 C          49.9984   11.4396  -20.5161 C.3     1  UNL1        0.1744
     30 C          49.7718   14.5459  -22.4875 C.3     1  UNL1        0.0506
     31 C          48.4033   14.8990  -23.0171 C.ar    1  UNL1       -0.0180
     32 C          47.5080   13.8937  -23.4234 C.ar    1  UNL1       -0.0039
     33 C          46.2452   14.2319  -23.9191 C.ar    1  UNL1       -0.0003
     34 C          45.8701   15.5735  -24.0252 C.ar    1  UNL1       -0.0000
     35 C          46.7579   16.5800  -23.6381 C.ar    1  UNL1       -0.0003
     36 C          48.0225   16.2470  -23.1445 C.ar    1  UNL1       -0.0039
@<TRIPOS>BOND
     1    26    27    1
     2    27     1    1
     3     1     2   ar
     4     2     3   ar
     5     3     4   ar
     6     4     5   ar
     7     5     6   ar
     8     6     7    1
     9     5     8    1
    10     8     9    1
    11     9    10    1
    12    10    28    1
    13    28    29    1
    14    10    11    1
    15    11    30    1
    16    30    31    1
    17    31    32   ar
    18    32    33   ar
    19    33    34   ar
    20    34    35   ar
    21    35    36   ar
    22    11    12    2
    23    12    14    1
    24    14    15   ar
    25    15    16   ar
    26    16    20    1
    27    20    21    1
    28    16    17   ar
    29    17    22    1
    30    22    23    1
    31    17    18   ar
    32    18    24    1
    33    24    25    1
    34    18    19   ar
    35     6     1   ar
    36    36    31   ar
    37    19    14   ar
    38    12     4    1
    39     7    13    1
@<TRIPOS>MOLECULE
*****
 36 39 0 0 0
SMALL
GASTEIGER

@<TRIPOS>ATOM
      1 C          52.0417   10.2522  -27.0886 C.ar    1  UNL1        0.1718
      2 C          52.6040   11.5302  -27.2443 C.ar    1  UNL1        0.0400
      3 C          52.1525   12.6013  -26.4758 C.ar    1  UNL1        0.0030
      4 C          51.1275   12.4259  -25.5348 C.ar    1  UNL1       -0.0014
      5 C          50.5292   11.1497  -25.3916 C.ar    1  UNL1        0.0146
      6 C          51.0038   10.0633  -26.1574 C.ar    1  UNL1        0.1636
      7 O          50.4379    8.7975  -25.9866 O.3     1  UNL1       -0.5031
      8 C          49.3872   10.9654  -24.4140 C.3     1  UNL1        0.0324
      9 C          49.8610   11.0277  -22.9515 C.3     1  UNL1        0.0386
     10 C          50.8840   12.1495  -22.6514 C.3     1  UNL1        0.1343
     11 C          50.4950   13.4527  -23.3511 C.2     1  UNL1       -0.0132
     12 C          50.6889   13.5809  -24.6961 C.2     1  UNL1       -0.0054
     13 H          50.7456    7.9882  -26.5121 H       1  UNL1        0.2923
     14 C          50.3933   14.8504  -25.3949 C.ar    1  UNL1        0.0057
     15 C          49.3131   14.9262  -26.2749 C.ar    1  UNL1        0.0402
     16 C          49.0058   16.1356  -26.9212 C.ar    1  UNL1        0.1754
     17 C          49.7945   17.2766  -26.6915 C.ar    1  UNL1        0.2061
     18 C          50.9072   17.1980  -25.8131 C.ar    1  UNL1        0.1754
     19 C          51.1925   15.9756  -25.1761 C.ar    1  UNL1        0.0402
     20 O          47.9167   16.2476  -27.8011 O.3     1  UNL1       -0.4683
     21 C          46.6093   15.7487  -27.5368 C.3     1  UNL1        0.2526
     22 O          49.4150   18.4524  -27.3674 O.3     1  UNL1       -0.4654
     23 C          48.5900   19.4945  -26.8588 C.3     1  UNL1        0.2528
     24 O          51.7058   18.3297  -25.5855 O.3     1  UNL1       -0.4683
     25 C          52.4759   18.5633  -24.4103 C.3     1  UNL1        0.2526
     26 C          53.0356    9.2364  -29.1508 C.3     1  UNL1        0.2526
     27 O          52.4866    9.1519  -27.8396 O.3     1  UNL1       -0.4684
     28 O          50.9622   12.3453  -21.2466 O.3     1  UNL1       -0.3495
     29 C          50.0491   11.5127  -20.5647 C.3     1  UNL1        0.1744
     30 C          49.8525   14.5748  -22.5438 C.3     1  UNL1        0.0506
     31 C          48.4731   14.9299  -23.0430 C.ar    1  UNL1       -0.0180
     32 C          47.5564   13.9250  -23.3994 C.ar    1  UNL1       -0.0039
     33 C          46.2835   14.2650  -23.8671 C.ar    1  UNL1       -0.0003
     34 C          45.9192   15.6077  -23.9950 C.ar    1  UNL1       -0.0000
     35 C          46.8280   16.6135  -23.6576 C.ar    1  UNL1       -0.0003
     36 C          48.1027   16.2786  -23.1921 C.ar    1  UNL1       -0.0039
@<TRIPOS>BOND
     1    26    27    1
     2    27     1    1
     3     1     2   ar
     4     2     3   ar
     5     3     4   ar
     6     4     5   ar
     7     5     6   ar
     8     6     7    1
     9     5     8    1
    10     8     9    1
    11     9    10    1
    12    10    28    1
    13    28    29    1
    14    10    11    1
    15    11    30    1
    16    30    31    1
    17    31    32   ar
    18    32    33   ar
    19    33    34   ar
    20    34    35   ar
    21    35    36   ar
    22    11    12    2
    23    12    14    1
    24    14    15   ar
    25    15    16   ar
    26    16    20    1
    27    20    21    1
    28    16    17   ar
    29    17    22    1
    30    22    23    1
    31    17    18   ar
    32    18    24    1
    33    24    25    1
    34    18    19   ar
    35     6     1   ar
    36    36    31   ar
    37    19    14   ar
    38    12     4    1
    39     7    13    1
@<TRIPOS>MOLECULE
*****
 36 39 0 0 0
SMALL
GASTEIGER

@<TRIPOS>ATOM
      1 C          46.0012   13.4250  -28.6148 C.ar    1  UNL1        0.1718
      2 C          46.3421   12.3103  -27.8306 C.ar    1  UNL1        0.0400
      3 C          47.0810   12.4670  -26.6597 C.ar    1  UNL1        0.0030
      4 C          47.5009   13.7383  -26.2424 C.ar    1  UNL1       -0.0014
      5 C          47.1923   14.8668  -27.0415 C.ar    1  UNL1        0.0146
      6 C          46.4261   14.7057  -28.2157 C.ar    1  UNL1        0.1636
      7 O          46.0908   15.8251  -28.9814 O.3     1  UNL1       -0.5031
      8 C          47.6868   16.2360  -26.6233 C.3     1  UNL1        0.0324
      9 C          46.9394   16.7696  -25.3888 C.3     1  UNL1        0.0386
     10 C          46.7060   15.7230  -24.2730 C.3     1  UNL1        0.1343
     11 C          47.9491   14.8582  -24.0589 C.2     1  UNL1       -0.0132
     12 C          48.2577   13.8837  -24.9634 C.2     1  UNL1       -0.0054
     13 H          45.5424   15.7595  -29.8304 H       1  UNL1        0.2923
     14 C          49.4094   12.9801  -24.7527 C.ar    1  UNL1        0.0057
     15 C          49.3762   12.0369  -23.7250 C.ar    1  UNL1        0.0402
     16 C          50.4527   11.1538  -23.5349 C.ar    1  UNL1        0.1754
     17 C          51.5771   11.2236  -24.3759 C.ar    1  UNL1        0.2061
     18 C          51.6240   12.1960  -25.4095 C.ar    1  UNL1        0.1754
     19 C          50.5317   13.0672  -25.5806 C.ar    1  UNL1        0.0402
     20 O          50.4428   10.1841  -22.5189 O.3     1  UNL1       -0.4683
     21 C          49.2797    9.4967  -22.0686 C.3     1  UNL1        0.2526
     22 O          52.6086   10.2972  -24.1283 O.3     1  UNL1       -0.4654
     23 C          52.7004    8.9729  -24.6413 C.3     1  UNL1        0.2528
     24 O          52.7468   12.2791  -26.2476 O.3     1  UNL1       -0.4683
     25 C          52.9263   11.5357  -27.4492 C.3     1  UNL1        0.2526
     26 C          45.7587   12.8328  -31.0362 C.3     1  UNL1        0.2526
     27 O          45.2457   13.2981  -29.7919 O.3     1  UNL1       -0.4684
     28 O          46.3557   16.3939  -23.0707 O.3     1  UNL1       -0.3495
     29 C          46.4061   17.7946  -23.2359 C.3     1  UNL1        0.1744
     30 C          48.8531   15.1273  -22.8614 C.3     1  UNL1        0.0506
     31 C          48.5992   14.1739  -21.7192 C.ar    1  UNL1       -0.0180
     32 C          47.4318   13.3910  -21.6818 C.ar    1  UNL1       -0.0039
     33 C          47.2032   12.5159  -20.6156 C.ar    1  UNL1       -0.0003
     34 C          48.1291   12.4238  -19.5734 C.ar    1  UNL1       -0.0000
     35 C          49.2846   13.2083  -19.5940 C.ar    1  UNL1       -0.0003
     36 C          49.5164   14.0865  -20.6564 C.ar    1  UNL1       -0.0039
@<TRIPOS>BOND
     1    26    27    1
     2    27     1    1
     3     1     2   ar
     4     2     3   ar
     5     3     4   ar
     6     4     5   ar
     7     5     6   ar
     8     6     7    1
     9     5     8    1
    10     8     9    1
    11     9    10    1
    12    10    28    1
    13    28    29    1
    14    10    11    1
    15    11    30    1
    16    30    31    1
    17    31    32   ar
    18    32    33   ar
    19    33    34   ar
    20    34    35   ar
    21    35    36   ar
    22    11    12    2
    23    12    14    1
    24    14    15   ar
    25    15    16   ar
    26    16    20    1
    27    20    21    1
    28    16    17   ar
    29    17    22    1
    30    22    23    1
    31    17    18   ar
    32    18    24    1
    33    24    25    1
    34    18    19   ar
    35     6     1   ar
    36    36    31   ar
    37    19    14   ar
    38    12     4    1
    39     7    13    1
@<TRIPOS>MOLECULE
*****
 36 39 0 0 0
SMALL
GASTEIGER

@<TRIPOS>ATOM
      1 C          45.9304   13.5011  -28.8006 C.ar    1  UNL1        0.1718
      2 C          46.1646   12.3556  -28.0216 C.ar    1  UNL1        0.0400
      3 C          46.8502   12.4492  -26.8122 C.ar    1  UNL1        0.0030
      4 C          47.3219   13.6865  -26.3502 C.ar    1  UNL1       -0.0014
      5 C          47.1216   14.8440  -27.1421 C.ar    1  UNL1        0.0146
      6 C          46.4086   14.7477  -28.3563 C.ar    1  UNL1        0.1636
      7 O          46.1793   15.8971  -29.1165 O.3     1  UNL1       -0.5031
      8 C          47.6733   16.1744  -26.6736 C.3     1  UNL1        0.0324
      9 C          46.8961   16.7318  -25.4684 C.3     1  UNL1        0.0386
     10 C          46.5447   15.6832  -24.3858 C.3     1  UNL1        0.1343
     11 C          47.7223   14.7425  -24.1259 C.2     1  UNL1       -0.0132
     12 C          48.0192   13.7660  -25.0321 C.2     1  UNL1       -0.0054
     13 H          45.6724   15.8779  -29.9931 H       1  UNL1        0.2923
     14 C          49.1036   12.7922  -24.7810 C.ar    1  UNL1        0.0057
     15 C          50.3929   13.0489  -25.2488 C.ar    1  UNL1        0.0402
     16 C          51.4368   12.1444  -24.9899 C.ar    1  UNL1        0.1754
     17 C          51.1840   10.9669  -24.2646 C.ar    1  UNL1        0.2061
     18 C          49.8691   10.6917  -23.8051 C.ar    1  UNL1        0.1754
     19 C          48.8415   11.6149  -24.0753 C.ar    1  UNL1        0.0402
     20 O          52.7478   12.3816  -25.4347 O.3     1  UNL1       -0.4683
     21 C          53.2715   11.9358  -26.6816 C.3     1  UNL1        0.2526
     22 O          52.2842   10.1177  -24.0369 O.3     1  UNL1       -0.4654
     23 C          52.5511    8.8817  -24.6899 C.3     1  UNL1        0.2528
     24 O          49.6058    9.5137  -23.0885 O.3     1  UNL1       -0.4683
     25 C          49.6250    9.3994  -21.6689 C.3     1  UNL1        0.2526
     26 C          45.7023   12.7821  -31.1888 C.3     1  UNL1        0.2526
     27 O          45.2302   13.4383  -30.0164 O.3     1  UNL1       -0.4684
     28 O          46.1731   16.3543  -23.1902 O.3     1  UNL1       -0.3495
     29 C          46.3413   17.7500  -23.3162 C.3     1  UNL1        0.1744
     30 C          48.5777   14.9381  -22.8795 C.3     1  UNL1        0.0506
     31 C          48.2812   13.9170  -21.8083 C.ar    1  UNL1       -0.0180
     32 C          47.0588   13.2222  -21.7957 C.ar    1  UNL1       -0.0039
     33 C          46.7914   12.2833  -20.7949 C.ar    1  UNL1       -0.0003
     34 C          47.7340   12.0389  -19.7930 C.ar    1  UNL1       -0.0000
     35 C          48.9452   12.7348  -19.7884 C.ar    1  UNL1       -0.0003
     36 C          49.2160   13.6764  -20.7853 C.ar    1  UNL1       -0.0039
@<TRIPOS>BOND
     1    26    27    1
     2    27     1    1
     3     1     2   ar
     4     2     3   ar
     5     3     4   ar
     6     4     5   ar
     7     5     6   ar
     8     6     7    1
     9     5     8    1
    10     8     9    1
    11     9    10    1
    12    10    28    1
    13    28    29    1
    14    10    11    1
    15    11    30    1
    16    30    31    1
    17    31    32   ar
    18    32    33   ar
    19    33    34   ar
    20    34    35   ar
    21    35    36   ar
    22    11    12    2
    23    12    14    1
    24    14    15   ar
    25    15    16   ar
    26    16    20    1
    27    20    21    1
    28    16    17   ar
    29    17    22    1
    30    22    23    1
    31    17    18   ar
    32    18    24    1
    33    24    25    1
    34    18    19   ar
    35     6     1   ar
    36    36    31   ar
    37    19    14   ar
    38    12     4    1
    39     7    13    1
@<TRIPOS>MOLECULE
*****
 36 39 0 0 0
SMALL
GASTEIGER

@<TRIPOS>ATOM
      1 C          48.8688   17.9384  -25.5003 C.ar    1  UNL1        0.1718
      2 C          50.0306   17.2662  -25.0851 C.ar    1  UNL1        0.0400
      3 C          49.9449   16.0260  -24.4558 C.ar    1  UNL1        0.0030
      4 C          48.6991   15.4259  -24.2223 C.ar    1  UNL1       -0.0014
      5 C          47.5183   16.1083  -24.6061 C.ar    1  UNL1        0.0146
      6 C          47.6109   17.3547  -25.2617 C.ar    1  UNL1        0.1636
      7 O          46.4464   18.0076  -25.6733 O.3     1  UNL1       -0.5031
      8 C          46.1680   15.4892  -24.3106 C.3     1  UNL1        0.0324
      9 C          45.8826   14.2687  -25.2028 C.3     1  UNL1        0.0386
     10 C          47.0829   13.3095  -25.3880 C.3     1  UNL1        0.1343
     11 C          47.8259   13.0942  -24.0686 C.2     1  UNL1       -0.0132
     12 C          48.6365   14.0785  -23.5817 C.2     1  UNL1       -0.0054
     13 H          46.4626   18.9022  -26.1478 H       1  UNL1        0.2923
     14 C          49.4272   13.8789  -22.3479 C.ar    1  UNL1        0.0057
     15 C          50.8008   13.6476  -22.4304 C.ar    1  UNL1        0.0402
     16 C          51.5663   13.4863  -21.2630 C.ar    1  UNL1        0.1754
     17 C          50.9479   13.5469  -20.0019 C.ar    1  UNL1        0.2061
     18 C          49.5470   13.7610  -19.9143 C.ar    1  UNL1        0.1754
     19 C          48.8030   13.9220  -21.0984 C.ar    1  UNL1        0.0402
     20 O          52.9527   13.2667  -21.3126 O.3     1  UNL1       -0.4683
     21 C          53.7740   13.5368  -22.4442 C.3     1  UNL1        0.2526
     22 O          51.7847   13.3872  -18.8805 O.3     1  UNL1       -0.4654
     23 C          51.9744   12.1950  -18.1266 C.3     1  UNL1        0.2528
     24 O          48.9198   13.8133  -18.6597 O.3     1  UNL1       -0.4683
     25 C          48.1060   12.7820  -18.1094 C.3     1  UNL1        0.2526
     26 C          49.2194   19.3614  -27.5313 C.3     1  UNL1        0.2526
     27 O          48.9262   19.1827  -26.1493 O.3     1  UNL1       -0.4684
     28 O          46.6144   12.0704  -25.9011 O.3     1  UNL1       -0.3495
     29 C          46.4145   12.1400  -27.2965 C.3     1  UNL1        0.1744
     30 C          47.6147   11.8001  -23.2912 C.3     1  UNL1        0.0506
     31 C          48.7132   10.7938  -23.5335 C.ar    1  UNL1       -0.0180
     32 C          49.5281   10.8798  -24.6762 C.ar    1  UNL1       -0.0039
     33 C          50.5385    9.9385  -24.8945 C.ar    1  UNL1       -0.0003
     34 C          50.7363    8.8982  -23.9831 C.ar    1  UNL1       -0.0000
     35 C          49.9223    8.7956  -22.8525 C.ar    1  UNL1       -0.0003
     36 C          48.9091    9.7327  -22.6313 C.ar    1  UNL1       -0.0039
@<TRIPOS>BOND
     1    26    27    1
     2    27     1    1
     3     1     2   ar
     4     2     3   ar
     5     3     4   ar
     6     4     5   ar
     7     5     6   ar
     8     6     7    1
     9     5     8    1
    10     8     9    1
    11     9    10    1
    12    10    28    1
    13    28    29    1
    14    10    11    1
    15    11    30    1
    16    30    31    1
    17    31    32   ar
    18    32    33   ar
    19    33    34   ar
    20    34    35   ar
    21    35    36   ar
    22    11    12    2
    23    12    14    1
    24    14    15   ar
    25    15    16   ar
    26    16    20    1
    27    20    21    1
    28    16    17   ar
    29    17    22    1
    30    22    23    1
    31    17    18   ar
    32    18    24    1
    33    24    25    1
    34    18    19   ar
    35     6     1   ar
    36    36    31   ar
    37    19    14   ar
    38    12     4    1
    39     7    13    1
