@<TRIPOS>MOLECULE
*****
 48 53 0 0 0
SMALL
GASTEIGER

@<TRIPOS>ATOM
      1 C         -63.9779  -49.7573  -24.9572 C.2     1  UNL1        0.2839
      2 O         -64.8754  -49.3274  -24.1845 O.2     1  UNL1       -0.2665
      3 N         -63.6493  -51.1575  -24.9857 N.am    1  UNL1       -0.2766
      4 H         -62.8983  -51.4841  -25.6320 H       1  UNL1        0.1553
      5 C         -64.1346  -49.4586  -28.1776 C.3     1  UNL1        0.0345
      6 C         -63.3151  -48.6704  -27.2013 C.ar    1  UNL1        0.0202
      7 C         -63.2636  -48.7887  -25.8067 C.ar    1  UNL1        0.1946
      8 O         -62.4659  -47.8627  -25.3041 O.2     1  UNL1       -0.4492
      9 C         -61.9782  -47.1664  -26.3018 C.ar    1  UNL1        0.1452
     10 C         -61.0924  -46.0968  -26.2335 C.ar    1  UNL1        0.0375
     11 C         -60.6987  -45.4881  -27.4382 C.ar    1  UNL1        0.0031
     12 C         -61.1940  -45.9546  -28.6863 C.ar    1  UNL1        0.0002
     13 C         -62.0951  -47.0460  -28.7105 C.ar    1  UNL1        0.0028
     14 C         -62.4619  -47.6263  -27.4962 C.ar    1  UNL1        0.0337
     15 C         -60.7713  -45.3037  -29.9523 C.ar    1  UNL1        0.0000
     16 C         -61.6880  -44.5601  -30.7150 C.ar    1  UNL1        0.0002
     17 C         -61.2908  -43.9474  -31.9071 C.ar    1  UNL1        0.0064
     18 C         -59.9676  -44.0683  -32.3659 C.ar    1  UNL1        0.0755
     19 C         -59.0481  -44.8013  -31.5960 C.ar    1  UNL1        0.0064
     20 C         -59.4460  -45.4155  -30.4054 C.ar    1  UNL1        0.0002
     21 C         -59.5286  -43.4199  -33.6259 C.2     1  UNL1        0.3380
     22 O         -58.4595  -42.7536  -33.6462 O.2     1  UNL1       -0.2451
     23 O         -60.2608  -43.5373  -34.8070 O.3     1  UNL1       -0.4771
     24 H         -61.0696  -44.1390  -34.8902 H       1  UNL1        0.2954
     25 C         -64.3422  -52.1633  -24.2283 C.ar    1  UNL1        0.0702
     26 C         -63.6893  -52.9437  -23.2617 C.ar    1  UNL1        0.0191
     27 C         -64.3912  -53.9304  -22.5675 C.ar    1  UNL1        0.0356
     28 C         -65.7513  -54.1399  -22.8460 C.ar    1  UNL1        0.1318
     29 N         -66.3515  -53.3984  -23.8183 N.ar    1  UNL1       -0.2279
     30 C         -65.6874  -52.4333  -24.5075 C.ar    1  UNL1        0.1149
     31 N         -66.5024  -55.1629  -22.1652 N.pl3   1  UNL1       -0.2932
     32 C         -65.9595  -55.7421  -20.9273 C.3     1  UNL1        0.0923
     33 C         -66.9992  -56.6145  -20.2070 C.3     1  UNL1        0.0252
     34 C         -68.3817  -55.9384  -20.2545 C.3     1  UNL1        0.0472
     35 C         -68.8689  -55.7357  -21.7157 C.3     1  UNL1        0.0252
     36 C         -67.7270  -55.7312  -22.7461 C.3     1  UNL1        0.0923
     37 C         -69.4047  -56.7402  -19.4276 C.3     1  UNL1        0.2054
     38 O         -69.8474  -55.9929  -18.2932 O.3     1  UNL1       -0.4755
     39 C         -69.2735  -56.0344  -17.0118 C.ar    1  UNL1        0.1388
     40 C         -69.9810  -56.4639  -15.8736 C.ar    1  UNL1        0.0369
     41 C         -69.3574  -56.4810  -14.6250 C.ar    1  UNL1        0.0033
     42 C         -68.0276  -56.0745  -14.4948 C.ar    1  UNL1        0.0066
     43 C         -67.3018  -55.6468  -15.6202 C.ar    1  UNL1        0.0785
     44 C         -67.9425  -55.6214  -16.8729 C.ar    1  UNL1        0.0433
     45 C         -65.8906  -55.2049  -15.5010 C.2     1  UNL1        0.3381
     46 O         -65.6219  -54.1236  -14.9130 O.2     1  UNL1       -0.2451
     47 O         -64.8399  -55.9482  -16.0379 O.3     1  UNL1       -0.4771
     48 H         -64.9887  -56.7692  -16.6098 H       1  UNL1        0.2954
@<TRIPOS>BOND
     1     5     6    1
     2     6     7   ar
     3     7     1    1
     4     1     2    2
     5     1     3   am
     6     3    25    1
     7    25    26   ar
     8    26    27   ar
     9    27    28   ar
    10    28    31    1
    11    31    32    1
    12    32    33    1
    13    33    34    1
    14    34    37    1
    15    37    38    1
    16    38    39    1
    17    39    40   ar
    18    40    41   ar
    19    41    42   ar
    20    42    43   ar
    21    43    45    1
    22    45    46    2
    23    45    47    1
    24    43    44   ar
    25    34    35    1
    26    35    36    1
    27    28    29   ar
    28    29    30   ar
    29     7     8   ar
    30     8     9   ar
    31     9    10   ar
    32    10    11   ar
    33    11    12   ar
    34    12    15    1
    35    15    16   ar
    36    16    17   ar
    37    17    18   ar
    38    18    21    1
    39    21    22    2
    40    21    23    1
    41    18    19   ar
    42    19    20   ar
    43    12    13   ar
    44    13    14   ar
    45    14     6   ar
    46    30    25   ar
    47    14     9   ar
    48    36    31    1
    49    20    15   ar
    50    44    39   ar
    51     3     4    1
    52    47    48    1
    53    23    24    1
@<TRIPOS>MOLECULE
*****
 48 53 0 0 0
SMALL
GASTEIGER

@<TRIPOS>ATOM
      1 C         -63.9568  -49.8050  -24.9168 C.2     1  UNL1        0.2839
      2 O         -64.8581  -49.4026  -24.1337 O.2     1  UNL1       -0.2665
      3 N         -63.5908  -51.1957  -24.9546 N.am    1  UNL1       -0.2766
      4 H         -62.8376  -51.4992  -25.6093 H       1  UNL1        0.1553
      5 C         -64.0429  -49.5827  -28.1460 C.3     1  UNL1        0.0345
      6 C         -63.2974  -48.7277  -27.1666 C.ar    1  UNL1        0.0202
      7 C         -63.2770  -48.8139  -25.7689 C.ar    1  UNL1        0.1946
      8 O         -62.5484  -47.8326  -25.2665 O.2     1  UNL1       -0.4492
      9 C         -62.0750  -47.1297  -26.2664 C.ar    1  UNL1        0.1452
     10 C         -61.2549  -46.0088  -26.1990 C.ar    1  UNL1        0.0375
     11 C         -60.8646  -45.4032  -27.4063 C.ar    1  UNL1        0.0031
     12 C         -61.2979  -45.9236  -28.6562 C.ar    1  UNL1        0.0002
     13 C         -62.1332  -47.0663  -28.6794 C.ar    1  UNL1        0.0028
     14 C         -62.4985  -47.6417  -27.4624 C.ar    1  UNL1        0.0337
     15 C         -60.8794  -45.2754  -29.9249 C.ar    1  UNL1        0.0000
     16 C         -61.7803  -44.4787  -30.6521 C.ar    1  UNL1        0.0002
     17 C         -61.3870  -43.8686  -31.8469 C.ar    1  UNL1        0.0064
     18 C         -60.0840  -44.0450  -32.3439 C.ar    1  UNL1        0.0755
     19 C         -59.1797  -44.8315  -31.6095 C.ar    1  UNL1        0.0064
     20 C         -59.5737  -45.4431  -30.4162 C.ar    1  UNL1        0.0002
     21 C         -59.6492  -43.4002  -33.6071 C.2     1  UNL1        0.3380
     22 O         -58.6720  -42.6050  -33.5986 O.2     1  UNL1       -0.2451
     23 O         -60.2841  -43.6597  -34.8214 O.3     1  UNL1       -0.4771
     24 H         -61.0050  -44.3622  -34.9212 H       1  UNL1        0.2954
     25 C         -64.2491  -52.2229  -24.1950 C.ar    1  UNL1        0.0702
     26 C         -63.5851  -52.9399  -23.1876 C.ar    1  UNL1        0.0191
     27 C         -64.2512  -53.9501  -22.4920 C.ar    1  UNL1        0.0356
     28 C         -65.5862  -54.2469  -22.8099 C.ar    1  UNL1        0.1318
     29 N         -66.1951  -53.5657  -23.8201 N.ar    1  UNL1       -0.2279
     30 C         -65.5656  -52.5792  -24.5115 C.ar    1  UNL1        0.1149
     31 N         -66.2988  -55.2967  -22.1283 N.pl3   1  UNL1       -0.2932
     32 C         -66.3037  -55.3176  -20.6579 C.3     1  UNL1        0.0923
     33 C         -67.3143  -56.3367  -20.1096 C.3     1  UNL1        0.0252
     34 C         -68.6163  -56.2849  -20.9299 C.3     1  UNL1        0.0472
     35 C         -68.3647  -56.6292  -22.4238 C.3     1  UNL1        0.0252
     36 C         -66.9065  -56.4148  -22.8635 C.3     1  UNL1        0.0923
     37 C         -69.6819  -57.2102  -20.3122 C.3     1  UNL1        0.2054
     38 O         -69.5786  -57.2338  -18.8874 O.3     1  UNL1       -0.4755
     39 C         -70.2757  -56.3943  -18.0029 C.ar    1  UNL1        0.1388
     40 C         -70.3065  -56.6100  -16.6126 C.ar    1  UNL1        0.0369
     41 C         -71.0192  -55.7421  -15.7836 C.ar    1  UNL1        0.0033
     42 C         -71.7052  -54.6530  -16.3256 C.ar    1  UNL1        0.0066
     43 C         -71.6828  -54.4172  -17.7113 C.ar    1  UNL1        0.0785
     44 C         -70.9718  -55.3044  -18.5404 C.ar    1  UNL1        0.0433
     45 C         -72.4108  -53.2697  -18.3064 C.2     1  UNL1        0.3381
     46 O         -73.5491  -52.9559  -17.8670 O.2     1  UNL1       -0.2451
     47 O         -71.8771  -52.5270  -19.3592 O.3     1  UNL1       -0.4771
     48 H         -71.0187  -52.7843  -19.8284 H       1  UNL1        0.2954
@<TRIPOS>BOND
     1     5     6    1
     2     6     7   ar
     3     7     1    1
     4     1     2    2
     5     1     3   am
     6     3    25    1
     7    25    26   ar
     8    26    27   ar
     9    27    28   ar
    10    28    31    1
    11    31    32    1
    12    32    33    1
    13    33    34    1
    14    34    37    1
    15    37    38    1
    16    38    39    1
    17    39    40   ar
    18    40    41   ar
    19    41    42   ar
    20    42    43   ar
    21    43    45    1
    22    45    46    2
    23    45    47    1
    24    43    44   ar
    25    34    35    1
    26    35    36    1
    27    28    29   ar
    28    29    30   ar
    29     7     8   ar
    30     8     9   ar
    31     9    10   ar
    32    10    11   ar
    33    11    12   ar
    34    12    15    1
    35    15    16   ar
    36    16    17   ar
    37    17    18   ar
    38    18    21    1
    39    21    22    2
    40    21    23    1
    41    18    19   ar
    42    19    20   ar
    43    12    13   ar
    44    13    14   ar
    45    14     6   ar
    46    30    25   ar
    47    14     9   ar
    48    36    31    1
    49    20    15   ar
    50    44    39   ar
    51     3     4    1
    52    47    48    1
    53    23    24    1
@<TRIPOS>MOLECULE
*****
 48 53 0 0 0
SMALL
GASTEIGER

@<TRIPOS>ATOM
      1 C         -64.0031  -49.8041  -24.9537 C.2     1  UNL1        0.2839
      2 O         -64.9356  -49.4050  -24.2063 O.2     1  UNL1       -0.2665
      3 N         -63.6084  -51.1874  -24.9521 N.am    1  UNL1       -0.2766
      4 H         -62.8297  -51.4883  -25.5777 H       1  UNL1        0.1553
      5 C         -64.1345  -49.5434  -28.1785 C.3     1  UNL1        0.0345
      6 C         -63.3580  -48.7138  -27.2013 C.ar    1  UNL1        0.0202
      7 C         -63.3179  -48.8164  -25.8051 C.ar    1  UNL1        0.1946
      8 O         -62.5632  -47.8546  -25.3032 O.2     1  UNL1       -0.4492
      9 C         -62.0919  -47.1494  -26.3025 C.ar    1  UNL1        0.1452
     10 C         -61.2498  -46.0450  -26.2354 C.ar    1  UNL1        0.0375
     11 C         -60.8667  -45.4330  -27.4418 C.ar    1  UNL1        0.0031
     12 C         -61.3288  -45.9309  -28.6905 C.ar    1  UNL1        0.0002
     13 C         -62.1858  -47.0574  -28.7134 C.ar    1  UNL1        0.0028
     14 C         -62.5433  -47.6397  -27.4974 C.ar    1  UNL1        0.0337
     15 C         -60.9176  -45.2762  -29.9583 C.ar    1  UNL1        0.0000
     16 C         -61.8471  -44.5502  -30.7226 C.ar    1  UNL1        0.0002
     17 C         -61.4607  -43.9340  -31.9165 C.ar    1  UNL1        0.0064
     18 C         -60.1358  -44.0337  -32.3755 C.ar    1  UNL1        0.0755
     19 C         -59.2037  -44.7491  -31.6040 C.ar    1  UNL1        0.0064
     20 C         -59.5908  -45.3668  -30.4117 C.ar    1  UNL1        0.0002
     21 C         -59.7082  -43.3812  -33.6372 C.2     1  UNL1        0.3380
     22 O         -58.6382  -42.7168  -33.6657 O.2     1  UNL1       -0.2451
     23 O         -60.4525  -43.4927  -34.8114 O.3     1  UNL1       -0.4771
     24 H         -61.2633  -44.0925  -34.8888 H       1  UNL1        0.2954
     25 C         -64.2686  -52.2127  -24.1916 C.ar    1  UNL1        0.0702
     26 C         -63.5891  -52.9742  -23.2282 C.ar    1  UNL1        0.0191
     27 C         -64.2591  -53.9807  -22.5310 C.ar    1  UNL1        0.0356
     28 C         -65.6139  -54.2291  -22.8033 C.ar    1  UNL1        0.1318
     29 N         -66.2397  -53.5051  -23.7725 N.ar    1  UNL1       -0.2279
     30 C         -65.6068  -52.5213  -24.4647 C.ar    1  UNL1        0.1149
     31 N         -66.3321  -55.2734  -22.1191 N.pl3   1  UNL1       -0.2932
     32 C         -66.4359  -55.2256  -20.6531 C.3     1  UNL1        0.0923
     33 C         -67.4434  -56.2574  -20.1229 C.3     1  UNL1        0.0252
     34 C         -68.6878  -56.2961  -21.0289 C.3     1  UNL1        0.0472
     35 C         -68.3230  -56.6996  -22.4841 C.3     1  UNL1        0.0252
     36 C         -66.8471  -56.4481  -22.8368 C.3     1  UNL1        0.0923
     37 C         -69.7582  -57.2332  -20.4380 C.3     1  UNL1        0.2054
     38 O         -70.8789  -56.4918  -19.9524 O.3     1  UNL1       -0.4755
     39 C         -72.1220  -56.3735  -20.5956 C.ar    1  UNL1        0.1388
     40 C         -73.3436  -56.3659  -19.8969 C.ar    1  UNL1        0.0369
     41 C         -74.5484  -56.2479  -20.5918 C.ar    1  UNL1        0.0033
     42 C         -74.5519  -56.1348  -21.9838 C.ar    1  UNL1        0.0066
     43 C         -73.3422  -56.1354  -22.7000 C.ar    1  UNL1        0.0785
     44 C         -72.1332  -56.2670  -21.9919 C.ar    1  UNL1        0.0433
     45 C         -73.3259  -56.0231  -24.1791 C.2     1  UNL1        0.3381
     46 O         -72.7089  -56.8816  -24.8643 O.2     1  UNL1       -0.2451
     47 O         -73.9659  -54.9774  -24.8439 O.3     1  UNL1       -0.4771
     48 H         -74.3908  -54.1998  -24.3562 H       1  UNL1        0.2954
@<TRIPOS>BOND
     1     5     6    1
     2     6     7   ar
     3     7     1    1
     4     1     2    2
     5     1     3   am
     6     3    25    1
     7    25    26   ar
     8    26    27   ar
     9    27    28   ar
    10    28    31    1
    11    31    32    1
    12    32    33    1
    13    33    34    1
    14    34    37    1
    15    37    38    1
    16    38    39    1
    17    39    40   ar
    18    40    41   ar
    19    41    42   ar
    20    42    43   ar
    21    43    45    1
    22    45    46    2
    23    45    47    1
    24    43    44   ar
    25    34    35    1
    26    35    36    1
    27    28    29   ar
    28    29    30   ar
    29     7     8   ar
    30     8     9   ar
    31     9    10   ar
    32    10    11   ar
    33    11    12   ar
    34    12    15    1
    35    15    16   ar
    36    16    17   ar
    37    17    18   ar
    38    18    21    1
    39    21    22    2
    40    21    23    1
    41    18    19   ar
    42    19    20   ar
    43    12    13   ar
    44    13    14   ar
    45    14     6   ar
    46    30    25   ar
    47    14     9   ar
    48    36    31    1
    49    20    15   ar
    50    44    39   ar
    51     3     4    1
    52    47    48    1
    53    23    24    1
@<TRIPOS>MOLECULE
*****
 48 53 0 0 0
SMALL
GASTEIGER

@<TRIPOS>ATOM
      1 C         -62.6765  -39.8141  -20.7127 C.2     1  UNL1        0.2839
      2 O         -61.6161  -40.0027  -20.0591 O.2     1  UNL1       -0.2665
      3 N         -63.0092  -40.6645  -21.8242 N.am    1  UNL1       -0.2766
      4 H         -63.8913  -40.4816  -22.3503 H       1  UNL1        0.1553
      5 C         -65.8894  -39.8500  -20.3122 C.3     1  UNL1        0.0345
      6 C         -64.9392  -38.6999  -20.1691 C.ar    1  UNL1        0.0202
      7 C         -63.5473  -38.6912  -20.3241 C.ar    1  UNL1        0.1946
      8 O         -63.0695  -37.4907  -20.0466 O.2     1  UNL1       -0.4492
      9 C         -64.0814  -36.7144  -19.7442 C.ar    1  UNL1        0.1452
     10 C         -64.0404  -35.3699  -19.3923 C.ar    1  UNL1        0.0375
     11 C         -65.2563  -34.7263  -19.1021 C.ar    1  UNL1        0.0031
     12 C         -66.4882  -35.4325  -19.1669 C.ar    1  UNL1        0.0002
     13 C         -66.4847  -36.8011  -19.5285 C.ar    1  UNL1        0.0028
     14 C         -65.2601  -37.4060  -19.8115 C.ar    1  UNL1        0.0337
     15 C         -67.7662  -34.7423  -18.8579 C.ar    1  UNL1        0.0000
     16 C         -67.7929  -33.6468  -17.9780 C.ar    1  UNL1        0.0002
     17 C         -68.9958  -32.9969  -17.6865 C.ar    1  UNL1        0.0064
     18 C         -70.2009  -33.4311  -18.2655 C.ar    1  UNL1        0.0755
     19 C         -70.1715  -34.5187  -19.1553 C.ar    1  UNL1        0.0064
     20 C         -68.9692  -35.1696  -19.4450 C.ar    1  UNL1        0.0002
     21 C         -71.4849  -32.7491  -17.9709 C.2     1  UNL1        0.3380
     22 O         -71.6217  -32.1134  -16.8918 O.2     1  UNL1       -0.2451
     23 O         -72.5538  -32.7757  -18.8663 O.3     1  UNL1       -0.4771
     24 H         -72.4804  -33.1768  -19.7920 H       1  UNL1        0.2954
     25 C         -62.2371  -41.8096  -22.2219 C.ar    1  UNL1        0.0702
     26 C         -61.5462  -41.8496  -23.4428 C.ar    1  UNL1        0.0191
     27 C         -60.8309  -42.9919  -23.8056 C.ar    1  UNL1        0.0356
     28 C         -60.8116  -44.1006  -22.9444 C.ar    1  UNL1        0.1318
     29 N         -61.5248  -44.0529  -21.7849 N.ar    1  UNL1       -0.2279
     30 C         -62.2291  -42.9519  -21.4121 C.ar    1  UNL1        0.1149
     31 N         -60.1022  -45.3041  -23.2949 N.pl3   1  UNL1       -0.2932
     32 C         -59.0149  -45.7713  -22.4220 C.3     1  UNL1        0.0923
     33 C         -58.5536  -47.1871  -22.8006 C.3     1  UNL1        0.0252
     34 C         -59.7712  -48.0695  -23.1319 C.3     1  UNL1        0.0472
     35 C         -60.5791  -47.5017  -24.3312 C.3     1  UNL1        0.0252
     36 C         -60.3503  -45.9990  -24.5661 C.3     1  UNL1        0.0923
     37 C         -59.3315  -49.5234  -23.3891 C.3     1  UNL1        0.2054
     38 O         -60.1546  -50.4440  -22.6705 O.3     1  UNL1       -0.4755
     39 C         -61.3717  -50.9790  -23.1240 C.ar    1  UNL1        0.1388
     40 C         -61.7674  -52.3033  -22.8594 C.ar    1  UNL1        0.0369
     41 C         -62.9887  -52.7797  -23.3389 C.ar    1  UNL1        0.0033
     42 C         -63.8278  -51.9471  -24.0826 C.ar    1  UNL1        0.0066
     43 C         -63.4532  -50.6195  -24.3537 C.ar    1  UNL1        0.0785
     44 C         -62.2147  -50.1518  -23.8765 C.ar    1  UNL1        0.0433
     45 C         -64.3279  -49.7220  -25.1476 C.2     1  UNL1        0.3381
     46 O         -64.1212  -49.5797  -26.3822 O.2     1  UNL1       -0.2451
     47 O         -65.3747  -49.0101  -24.5627 O.3     1  UNL1       -0.4771
     48 H         -65.5338  -48.9958  -23.5638 H       1  UNL1        0.2954
@<TRIPOS>BOND
     1     5     6    1
     2     6     7   ar
     3     7     1    1
     4     1     2    2
     5     1     3   am
     6     3    25    1
     7    25    26   ar
     8    26    27   ar
     9    27    28   ar
    10    28    31    1
    11    31    32    1
    12    32    33    1
    13    33    34    1
    14    34    37    1
    15    37    38    1
    16    38    39    1
    17    39    40   ar
    18    40    41   ar
    19    41    42   ar
    20    42    43   ar
    21    43    45    1
    22    45    46    2
    23    45    47    1
    24    43    44   ar
    25    34    35    1
    26    35    36    1
    27    28    29   ar
    28    29    30   ar
    29     7     8   ar
    30     8     9   ar
    31     9    10   ar
    32    10    11   ar
    33    11    12   ar
    34    12    15    1
    35    15    16   ar
    36    16    17   ar
    37    17    18   ar
    38    18    21    1
    39    21    22    2
    40    21    23    1
    41    18    19   ar
    42    19    20   ar
    43    12    13   ar
    44    13    14   ar
    45    14     6   ar
    46    30    25   ar
    47    14     9   ar
    48    36    31    1
    49    20    15   ar
    50    44    39   ar
    51     3     4    1
    52    47    48    1
    53    23    24    1
