@<TRIPOS>MOLECULE
*****
 47 52 0 0 0
SMALL
GASTEIGER

@<TRIPOS>ATOM
      1 C          13.1965   82.7988   24.4927 C.ar    1  UNL1        0.1318
      2 C          13.7829   81.5591   24.7926 C.ar    1  UNL1        0.0356
      3 C          12.9770   80.5008   25.2146 C.ar    1  UNL1        0.0191
      4 C          11.5940   80.6744   25.3445 C.ar    1  UNL1        0.0702
      5 C          11.0400   81.9169   24.9965 C.ar    1  UNL1        0.1149
      6 N          11.8440   82.9327   24.5846 N.ar    1  UNL1       -0.2279
      7 C          14.3770   86.2013   22.4555 C.3     1  UNL1        0.0472
      8 C          14.8389   84.8235   21.9005 C.3     1  UNL1        0.0252
      9 C          15.0047   83.7456   22.9831 C.3     1  UNL1        0.0923
     10 N          13.9919   83.9086   24.0341 N.pl3   1  UNL1       -0.2932
     11 C          13.8756   85.2019   24.7224 C.3     1  UNL1        0.0923
     12 C          14.6240   86.3152   23.9734 C.3     1  UNL1        0.0252
     13 C          15.0397   87.3485   21.6656 C.3     1  UNL1        0.2054
     14 O          14.1665   87.8660   20.6581 O.3     1  UNL1       -0.4755
     15 C          14.1174   88.2447   16.9307 C.ar    1  UNL1        0.0105
     16 C          14.0580   88.5818   18.2907 C.ar    1  UNL1        0.0351
     17 C          14.2178   87.5922   19.2798 C.ar    1  UNL1        0.1385
     18 C          14.4373   86.2665   18.8884 C.ar    1  UNL1        0.0433
     19 C          14.4852   85.9101   17.5306 C.ar    1  UNL1        0.0782
     20 C          14.3159   86.9078   16.5561 C.ar    1  UNL1        0.0048
     21 C          14.7050   84.5004   17.1367 C.2     1  UNL1        0.3381
     22 O          15.8143   84.1349   16.6616 O.2     1  UNL1       -0.2451
     23 O          13.6868   83.5623   17.2877 O.3     1  UNL1       -0.4771
     24 H          13.8268   82.5950   17.0214 H       1  UNL1        0.2954
     25 C          13.8898   89.2986   15.8845 C.3     1  UNL1        0.1688
     26 C          12.7830   89.5061   13.8763 C.3     1  UNL1        0.1746
     27 O          13.6030   88.6654   14.6561 O.3     1  UNL1       -0.3463
     28 N          10.7733   79.5679   25.7571 N.am    1  UNL1       -0.2766
     29 C          11.2923   78.3108   26.2208 C.2     1  UNL1        0.2839
     30 O          12.5076   78.0239   26.0493 O.2     1  UNL1       -0.2665
     31 H           9.7392   79.6553   25.6323 H       1  UNL1        0.1553
     32 C          10.3888   77.3375   26.8632 C.ar    1  UNL1        0.1946
     33 O          10.7795   76.5244   27.8287 O.2     1  UNL1       -0.4492
     34 C           9.7512   75.7911   28.1786 C.ar    1  UNL1        0.1452
     35 C           9.7130   74.8031   29.1562 C.ar    1  UNL1        0.0375
     36 C           8.4964   74.1322   29.3694 C.ar    1  UNL1        0.0031
     37 C           7.3419   74.4568   28.6069 C.ar    1  UNL1        0.0002
     38 C           7.4237   75.4698   27.6213 C.ar    1  UNL1        0.0028
     39 C           8.6473   76.1153   27.4365 C.ar    1  UNL1        0.0337
     40 C           9.0375   77.1198   26.5715 C.ar    1  UNL1        0.0202
     41 C           8.1974   77.8207   25.5468 C.3     1  UNL1        0.0345
     42 C           6.0621   73.7411   28.8410 C.ar    1  UNL1        0.0000
     43 C           5.1729   74.1739   29.8432 C.ar    1  UNL1        0.0000
     44 C           3.9684   73.4981   30.0614 C.ar    1  UNL1        0.0000
     45 C           3.6375   72.3862   29.2838 C.ar    1  UNL1        0.0000
     46 C           4.5108   71.9472   28.2862 C.ar    1  UNL1        0.0000
     47 C           5.7171   72.6187   28.0642 C.ar    1  UNL1        0.0000
@<TRIPOS>BOND
     1    26    27    1
     2    27    25    1
     3    25    15    1
     4    15    16   ar
     5    16    17   ar
     6    17    14    1
     7    14    13    1
     8    13     7    1
     9     7     8    1
    10     8     9    1
    11     9    10    1
    12    10     1    1
    13     1     2   ar
    14     2     3   ar
    15     3     4   ar
    16     4    28    1
    17    28    29   am
    18    29    30    2
    19    29    32    1
    20    32    33   ar
    21    33    34   ar
    22    34    35   ar
    23    35    36   ar
    24    36    37   ar
    25    37    42    1
    26    42    43   ar
    27    43    44   ar
    28    44    45   ar
    29    45    46   ar
    30    46    47   ar
    31    37    38   ar
    32    38    39   ar
    33    39    40   ar
    34    40    41    1
    35     4     5   ar
    36     5     6   ar
    37    10    11    1
    38    11    12    1
    39    17    18   ar
    40    18    19   ar
    41    19    21    1
    42    21    22    2
    43    21    23    1
    44    19    20   ar
    45    20    15   ar
    46    12     7    1
    47     6     1   ar
    48    40    32   ar
    49    39    34   ar
    50    47    42   ar
    51    28    31    1
    52    23    24    1
@<TRIPOS>MOLECULE
*****
 47 52 0 0 0
SMALL
GASTEIGER

@<TRIPOS>ATOM
      1 C           8.7567   77.0737   23.3494 C.ar    1  UNL1        0.1318
      2 C           9.1905   77.3001   24.6651 C.ar    1  UNL1        0.0356
      3 C           9.8371   78.4960   24.9803 C.ar    1  UNL1        0.0191
      4 C          10.0578   79.4616   23.9910 C.ar    1  UNL1        0.0702
      5 C           9.5735   79.2156   22.6961 C.ar    1  UNL1        0.1149
      6 N           8.9435   78.0448   22.4127 N.ar    1  UNL1       -0.2279
      7 C           5.9391   74.4824   21.7786 C.3     1  UNL1        0.0472
      8 C           5.8363   74.8412   23.2887 C.3     1  UNL1        0.0252
      9 C           7.1897   75.1656   23.9401 C.3     1  UNL1        0.0923
     10 N           8.0671   75.8613   22.9898 N.pl3   1  UNL1       -0.2932
     11 C           8.3489   75.2400   21.6880 C.3     1  UNL1        0.0923
     12 C           7.3771   74.0896   21.3836 C.3     1  UNL1        0.0252
     13 C           4.9118   73.3911   21.4142 C.3     1  UNL1        0.2054
     14 O           3.9176   73.8850   20.5125 O.3     1  UNL1       -0.4755
     15 C           2.2143   77.1832   21.0229 C.ar    1  UNL1        0.0105
     16 C           2.5853   75.8460   21.2255 C.ar    1  UNL1        0.0351
     17 C           3.5077   75.2219   20.3636 C.ar    1  UNL1        0.1385
     18 C           4.0507   75.9535   19.3012 C.ar    1  UNL1        0.0433
     19 C           3.6787   77.2893   19.0762 C.ar    1  UNL1        0.0782
     20 C           2.7512   77.8949   19.9402 C.ar    1  UNL1        0.0048
     21 C           4.2540   78.0422   17.9391 C.2     1  UNL1        0.3381
     22 O           4.2708   79.3030   17.9506 O.2     1  UNL1       -0.2451
     23 O           4.7833   77.3642   16.8439 O.3     1  UNL1       -0.4771
     24 H           5.1795   77.8699   16.0606 H       1  UNL1        0.2954
     25 C           1.1874   77.8217   21.9145 C.3     1  UNL1        0.1688
     26 C           2.3295   78.3252   23.8491 C.3     1  UNL1        0.1746
     27 O           1.4303   77.4223   23.2462 O.3     1  UNL1       -0.3463
     28 N          10.7038   80.6992   24.3357 N.am    1  UNL1       -0.2766
     29 C          12.0872   80.8076   24.7089 C.2     1  UNL1        0.2839
     30 O          12.7490   79.7749   24.9989 O.2     1  UNL1       -0.2665
     31 H          10.1102   81.5573   24.3996 H       1  UNL1        0.1553
     32 C          12.7218   82.1368   24.7912 C.ar    1  UNL1        0.1946
     33 O          12.9122   82.9078   23.7352 O.2     1  UNL1       -0.4492
     34 C          13.4954   84.0092   24.1404 C.ar    1  UNL1        0.1452
     35 C          13.8807   85.0955   23.3625 C.ar    1  UNL1        0.0375
     36 C          14.4978   86.1822   24.0057 C.ar    1  UNL1        0.0031
     37 C          14.7195   86.1679   25.4094 C.ar    1  UNL1        0.0002
     38 C          14.3114   85.0422   26.1648 C.ar    1  UNL1        0.0028
     39 C          13.7016   83.9812   25.4936 C.ar    1  UNL1        0.0337
     40 C          13.2071   82.7708   25.9405 C.ar    1  UNL1        0.0202
     41 C          13.1941   82.2525   27.3470 C.3     1  UNL1        0.0345
     42 C          15.3725   87.3218   26.0780 C.ar    1  UNL1        0.0000
     43 C          14.9620   87.7319   27.3609 C.ar    1  UNL1        0.0000
     44 C          15.5788   88.8188   27.9881 C.ar    1  UNL1        0.0000
     45 C          16.6099   89.5068   27.3449 C.ar    1  UNL1        0.0000
     46 C          17.0266   89.1096   26.0724 C.ar    1  UNL1        0.0000
     47 C          16.4128   88.0239   25.4400 C.ar    1  UNL1        0.0000
@<TRIPOS>BOND
     1    26    27    1
     2    27    25    1
     3    25    15    1
     4    15    16   ar
     5    16    17   ar
     6    17    14    1
     7    14    13    1
     8    13     7    1
     9     7     8    1
    10     8     9    1
    11     9    10    1
    12    10     1    1
    13     1     2   ar
    14     2     3   ar
    15     3     4   ar
    16     4    28    1
    17    28    29   am
    18    29    30    2
    19    29    32    1
    20    32    33   ar
    21    33    34   ar
    22    34    35   ar
    23    35    36   ar
    24    36    37   ar
    25    37    42    1
    26    42    43   ar
    27    43    44   ar
    28    44    45   ar
    29    45    46   ar
    30    46    47   ar
    31    37    38   ar
    32    38    39   ar
    33    39    40   ar
    34    40    41    1
    35     4     5   ar
    36     5     6   ar
    37    10    11    1
    38    11    12    1
    39    17    18   ar
    40    18    19   ar
    41    19    21    1
    42    21    22    2
    43    21    23    1
    44    19    20   ar
    45    20    15   ar
    46    12     7    1
    47     6     1   ar
    48    40    32   ar
    49    39    34   ar
    50    47    42   ar
    51    28    31    1
    52    23    24    1
@<TRIPOS>MOLECULE
*****
 47 52 0 0 0
SMALL
GASTEIGER

@<TRIPOS>ATOM
      1 C          13.0929   82.8270   24.5889 C.ar    1  UNL1        0.1318
      2 C          13.6306   81.5616   24.8722 C.ar    1  UNL1        0.0356
      3 C          12.7873   80.5362   25.3021 C.ar    1  UNL1        0.0191
      4 C          11.4153   80.7678   25.4563 C.ar    1  UNL1        0.0702
      5 C          10.9094   82.0350   25.1244 C.ar    1  UNL1        0.1149
      6 N          11.7491   83.0180   24.7044 N.ar    1  UNL1       -0.2279
      7 C          14.4153   86.1366   22.4868 C.3     1  UNL1        0.0472
      8 C          14.8650   84.7322   21.9916 C.3     1  UNL1        0.0252
      9 C          14.9709   83.6866   23.1127 C.3     1  UNL1        0.0923
     10 N          13.9274   83.9045   24.1229 N.pl3   1  UNL1       -0.2932
     11 C          13.8165   85.2216   24.7657 C.3     1  UNL1        0.0923
     12 C          14.6138   86.2942   24.0079 C.3     1  UNL1        0.0252
     13 C          15.1289   87.2436   21.6841 C.3     1  UNL1        0.2054
     14 O          14.3549   87.6560   20.5544 O.3     1  UNL1       -0.4755
     15 C          14.5780   85.2268   17.7103 C.ar    1  UNL1        0.0105
     16 C          14.5497   85.7211   19.0224 C.ar    1  UNL1        0.0351
     17 C          14.3890   87.0992   19.2636 C.ar    1  UNL1        0.1385
     18 C          14.2573   87.9706   18.1764 C.ar    1  UNL1        0.0433
     19 C          14.2979   87.4933   16.8559 C.ar    1  UNL1        0.0782
     20 C          14.4670   86.1166   16.6320 C.ar    1  UNL1        0.0048
     21 C          14.1703   88.4324   15.7190 C.2     1  UNL1        0.3381
     22 O          13.0370   88.7017   15.2365 O.2     1  UNL1       -0.2451
     23 O          15.3029   89.0291   15.1707 O.3     1  UNL1       -0.4771
     24 H          15.2267   89.6733   14.3926 H       1  UNL1        0.2954
     25 C          14.8061   83.7625   17.4635 C.3     1  UNL1        0.1688
     26 C          13.9579   82.4697   15.7577 C.3     1  UNL1        0.1746
     27 O          14.8275   83.5341   16.0709 O.3     1  UNL1       -0.3463
     28 N          10.5550   79.6950   25.8767 N.am    1  UNL1       -0.2766
     29 C           9.8517   79.6721   27.1296 C.2     1  UNL1        0.2839
     30 O          10.1551   80.4864   28.0426 O.2     1  UNL1       -0.2665
     31 H          10.5056   78.8443   25.2713 H       1  UNL1        0.1553
     32 C           8.7988   78.6649   27.3603 C.ar    1  UNL1        0.1946
     33 O           7.5256   78.9809   27.5183 O.2     1  UNL1       -0.4492
     34 C           6.8551   77.8705   27.7051 C.ar    1  UNL1        0.1452
     35 C           5.4871   77.7359   27.9147 C.ar    1  UNL1        0.0375
     36 C           4.9714   76.4410   28.0960 C.ar    1  UNL1        0.0031
     37 C           5.8255   75.3056   28.0653 C.ar    1  UNL1        0.0002
     38 C           7.2128   75.4867   27.8486 C.ar    1  UNL1        0.0028
     39 C           7.6904   76.7862   27.6721 C.ar    1  UNL1        0.0337
     40 C           8.9625   77.2780   27.4499 C.ar    1  UNL1        0.0202
     41 C          10.2362   76.4966   27.3313 C.3     1  UNL1        0.0345
     42 C           5.2692   73.9424   28.2582 C.ar    1  UNL1        0.0000
     43 C           4.2007   73.7248   29.1489 C.ar    1  UNL1        0.0000
     44 C           3.6788   72.4401   29.3286 C.ar    1  UNL1        0.0000
     45 C           4.2148   71.3606   28.6230 C.ar    1  UNL1        0.0000
     46 C           5.2745   71.5634   27.7362 C.ar    1  UNL1        0.0000
     47 C           5.8010   72.8458   27.5532 C.ar    1  UNL1        0.0000
@<TRIPOS>BOND
     1    26    27    1
     2    27    25    1
     3    25    15    1
     4    15    16   ar
     5    16    17   ar
     6    17    14    1
     7    14    13    1
     8    13     7    1
     9     7     8    1
    10     8     9    1
    11     9    10    1
    12    10     1    1
    13     1     2   ar
    14     2     3   ar
    15     3     4   ar
    16     4    28    1
    17    28    29   am
    18    29    30    2
    19    29    32    1
    20    32    33   ar
    21    33    34   ar
    22    34    35   ar
    23    35    36   ar
    24    36    37   ar
    25    37    42    1
    26    42    43   ar
    27    43    44   ar
    28    44    45   ar
    29    45    46   ar
    30    46    47   ar
    31    37    38   ar
    32    38    39   ar
    33    39    40   ar
    34    40    41    1
    35     4     5   ar
    36     5     6   ar
    37    10    11    1
    38    11    12    1
    39    17    18   ar
    40    18    19   ar
    41    19    21    1
    42    21    22    2
    43    21    23    1
    44    19    20   ar
    45    20    15   ar
    46    12     7    1
    47     6     1   ar
    48    40    32   ar
    49    39    34   ar
    50    47    42   ar
    51    28    31    1
    52    23    24    1
@<TRIPOS>MOLECULE
*****
 47 52 0 0 0
SMALL
GASTEIGER

@<TRIPOS>ATOM
      1 C           9.0285   78.8431   26.3517 C.ar    1  UNL1        0.1318
      2 C           9.2675   79.2061   25.0169 C.ar    1  UNL1        0.0356
      3 C          10.0303   80.3410   24.7385 C.ar    1  UNL1        0.0191
      4 C          10.5492   81.1168   25.7819 C.ar    1  UNL1        0.0702
      5 C          10.3223   80.6987   27.1032 C.ar    1  UNL1        0.1149
      6 N           9.5790   79.5878   27.3507 N.ar    1  UNL1       -0.2279
      7 C           7.1824   75.1530   26.0423 C.3     1  UNL1        0.0472
      8 C           6.3152   76.4229   25.8072 C.3     1  UNL1        0.0252
      9 C           6.7981   77.6542   26.5895 C.3     1  UNL1        0.0923
     10 N           8.2639   77.6672   26.6793 N.pl3   1  UNL1       -0.2932
     11 C           8.9579   76.4979   27.2372 C.3     1  UNL1        0.0923
     12 C           8.0332   75.2739   27.3227 C.3     1  UNL1        0.0252
     13 C           6.2969   73.8900   26.0433 C.3     1  UNL1        0.2054
     14 O           6.5147   73.0943   24.8751 O.3     1  UNL1       -0.4755
     15 C           8.9646   74.2321   22.2784 C.ar    1  UNL1        0.0105
     16 C           8.4558   73.8089   23.5148 C.ar    1  UNL1        0.0351
     17 C           7.0854   73.5201   23.6625 C.ar    1  UNL1        0.1385
     18 C           6.2365   73.6604   22.5587 C.ar    1  UNL1        0.0433
     19 C           6.7278   74.0969   21.3172 C.ar    1  UNL1        0.0782
     20 C           8.0960   74.3887   21.1885 C.ar    1  UNL1        0.0048
     21 C           5.8116   74.2519   20.1652 C.2     1  UNL1        0.3381
     22 O           4.6467   74.7047   20.3314 O.2     1  UNL1       -0.2451
     23 O           6.2284   73.8989   18.8841 O.3     1  UNL1       -0.4771
     24 H           5.6093   74.0011   18.0888 H       1  UNL1        0.2954
     25 C          10.4175   74.5912   22.1467 C.3     1  UNL1        0.1688
     26 C          11.5543   72.5951   22.3005 C.3     1  UNL1        0.1746
     27 O          11.1711   73.7573   23.0003 O.3     1  UNL1       -0.3463
     28 N          11.3536   82.2698   25.4798 N.am    1  UNL1       -0.2766
     29 C          12.6049   82.2151   24.7755 C.2     1  UNL1        0.2839
     30 O          13.1895   81.1116   24.6051 O.2     1  UNL1       -0.2665
     31 H          11.0503   83.1911   25.8694 H       1  UNL1        0.1553
     32 C          13.2253   83.4610   24.2865 C.ar    1  UNL1        0.1946
     33 O          12.6395   84.6412   24.3851 O.2     1  UNL1       -0.4492
     34 C          13.4420   85.5345   23.8601 C.ar    1  UNL1        0.1452
     35 C          13.2247   86.9035   23.7505 C.ar    1  UNL1        0.0375
     36 C          14.2247   87.6843   23.1458 C.ar    1  UNL1        0.0031
     37 C          15.4211   87.0890   22.6622 C.ar    1  UNL1        0.0002
     38 C          15.6030   85.6913   22.7939 C.ar    1  UNL1        0.0028
     39 C          14.5896   84.9468   23.3996 C.ar    1  UNL1        0.0337
     40 C          14.4719   83.5957   23.6648 C.ar    1  UNL1        0.0202
     41 C          15.4621   82.5140   23.3544 C.3     1  UNL1        0.0345
     42 C          16.4706   87.9242   22.0249 C.ar    1  UNL1        0.0000
     43 C          16.2379   88.5395   20.7801 C.ar    1  UNL1        0.0000
     44 C          17.2280   89.3254   20.1824 C.ar    1  UNL1        0.0000
     45 C          18.4580   89.5069   20.8184 C.ar    1  UNL1        0.0000
     46 C          18.7010   88.9023   22.0538 C.ar    1  UNL1        0.0000
     47 C          17.7149   88.1146   22.6557 C.ar    1  UNL1        0.0000
@<TRIPOS>BOND
     1    26    27    1
     2    27    25    1
     3    25    15    1
     4    15    16   ar
     5    16    17   ar
     6    17    14    1
     7    14    13    1
     8    13     7    1
     9     7     8    1
    10     8     9    1
    11     9    10    1
    12    10     1    1
    13     1     2   ar
    14     2     3   ar
    15     3     4   ar
    16     4    28    1
    17    28    29   am
    18    29    30    2
    19    29    32    1
    20    32    33   ar
    21    33    34   ar
    22    34    35   ar
    23    35    36   ar
    24    36    37   ar
    25    37    42    1
    26    42    43   ar
    27    43    44   ar
    28    44    45   ar
    29    45    46   ar
    30    46    47   ar
    31    37    38   ar
    32    38    39   ar
    33    39    40   ar
    34    40    41    1
    35     4     5   ar
    36     5     6   ar
    37    10    11    1
    38    11    12    1
    39    17    18   ar
    40    18    19   ar
    41    19    21    1
    42    21    22    2
    43    21    23    1
    44    19    20   ar
    45    20    15   ar
    46    12     7    1
    47     6     1   ar
    48    40    32   ar
    49    39    34   ar
    50    47    42   ar
    51    28    31    1
    52    23    24    1
@<TRIPOS>MOLECULE
*****
 47 52 0 0 0
SMALL
GASTEIGER

@<TRIPOS>ATOM
      1 C          10.3948   79.5758   24.1656 C.ar    1  UNL1        0.1318
      2 C           9.7155   80.1566   23.0831 C.ar    1  UNL1        0.0356
      3 C           8.7632   79.4102   22.3879 C.ar    1  UNL1        0.0191
      4 C           8.4903   78.0891   22.7621 C.ar    1  UNL1        0.0702
      5 C           9.1612   77.5570   23.8751 C.ar    1  UNL1        0.1149
      6 N          10.0826   78.3036   24.5394 N.ar    1  UNL1       -0.2279
      7 C          13.0595   82.5350   25.2894 C.3     1  UNL1        0.0472
      8 C          13.6326   81.2606   24.6058 C.3     1  UNL1        0.0252
      9 C          12.7999   79.9948   24.8618 C.3     1  UNL1        0.0923
     10 N          11.3691   80.3206   24.9210 N.pl3   1  UNL1       -0.2932
     11 C          10.9061   81.3446   25.8681 C.3     1  UNL1        0.0923
     12 C          12.0722   82.1795   26.4193 C.3     1  UNL1        0.0252
     13 C          14.2055   83.4452   25.7765 C.3     1  UNL1        0.2054
     14 O          13.9742   84.8132   25.4293 O.3     1  UNL1       -0.4755
     15 C          13.1958   87.0146   22.4989 C.ar    1  UNL1        0.0105
     16 C          13.2102   86.5260   23.8133 C.ar    1  UNL1        0.0351
     17 C          13.9231   85.3542   24.1324 C.ar    1  UNL1        0.1385
     18 C          14.6182   84.6825   23.1203 C.ar    1  UNL1        0.0433
     19 C          14.6022   85.1509   21.7961 C.ar    1  UNL1        0.0782
     20 C          13.8795   86.3169   21.4926 C.ar    1  UNL1        0.0048
     21 C          15.3327   84.4190   20.7371 C.2     1  UNL1        0.3381
     22 O          15.5320   84.9528   19.6123 O.2     1  UNL1       -0.2451
     23 O          15.8080   83.1315   20.9735 O.3     1  UNL1       -0.4771
     24 H          16.3092   82.6219   20.2556 H       1  UNL1        0.2954
     25 C          12.3864   88.2338   22.1590 C.3     1  UNL1        0.1688
     26 C          11.6627   88.5585   19.9977 C.3     1  UNL1        0.1746
     27 O          12.7595   88.6837   20.8744 O.3     1  UNL1       -0.3463
     28 N           7.4891   77.3403   22.0517 N.am    1  UNL1       -0.2766
     29 C           6.2589   76.8847   22.6381 C.2     1  UNL1        0.2839
     30 O           6.1071   76.9031   23.8892 O.2     1  UNL1       -0.2665
     31 H           7.7081   77.0382   21.0753 H       1  UNL1        0.1553
     32 C           5.1868   76.3562   21.7734 C.ar    1  UNL1        0.1946
     33 O           5.3865   76.0073   20.5147 O.2     1  UNL1       -0.4492
     34 C           4.2454   75.5845   20.0280 C.ar    1  UNL1        0.1452
     35 C           3.9968   75.1220   18.7405 C.ar    1  UNL1        0.0375
     36 C           2.6884   74.7160   18.4262 C.ar    1  UNL1        0.0031
     37 C           1.6531   74.7774   19.3979 C.ar    1  UNL1        0.0002
     38 C           1.9490   75.2543   20.6976 C.ar    1  UNL1        0.0028
     39 C           3.2587   75.6488   20.9750 C.ar    1  UNL1        0.0337
     40 C           3.8470   76.1496   22.1207 C.ar    1  UNL1        0.0202
     41 C           3.1927   76.4131   23.4434 C.3     1  UNL1        0.0345
     42 C           0.2745   74.3458   19.0542 C.ar    1  UNL1        0.0000
     43 C           0.0131   73.0125   18.6845 C.ar    1  UNL1        0.0000
     44 C          -1.2860   72.6089   18.3614 C.ar    1  UNL1        0.0000
     45 C          -2.3368   73.5278   18.4042 C.ar    1  UNL1        0.0000
     46 C          -2.0906   74.8531   18.7698 C.ar    1  UNL1        0.0000
     47 C          -0.7932   75.2626   19.0931 C.ar    1  UNL1        0.0000
@<TRIPOS>BOND
     1    26    27    1
     2    27    25    1
     3    25    15    1
     4    15    16   ar
     5    16    17   ar
     6    17    14    1
     7    14    13    1
     8    13     7    1
     9     7     8    1
    10     8     9    1
    11     9    10    1
    12    10     1    1
    13     1     2   ar
    14     2     3   ar
    15     3     4   ar
    16     4    28    1
    17    28    29   am
    18    29    30    2
    19    29    32    1
    20    32    33   ar
    21    33    34   ar
    22    34    35   ar
    23    35    36   ar
    24    36    37   ar
    25    37    42    1
    26    42    43   ar
    27    43    44   ar
    28    44    45   ar
    29    45    46   ar
    30    46    47   ar
    31    37    38   ar
    32    38    39   ar
    33    39    40   ar
    34    40    41    1
    35     4     5   ar
    36     5     6   ar
    37    10    11    1
    38    11    12    1
    39    17    18   ar
    40    18    19   ar
    41    19    21    1
    42    21    22    2
    43    21    23    1
    44    19    20   ar
    45    20    15   ar
    46    12     7    1
    47     6     1   ar
    48    40    32   ar
    49    39    34   ar
    50    47    42   ar
    51    28    31    1
    52    23    24    1
@<TRIPOS>MOLECULE
*****
 47 52 0 0 0
SMALL
GASTEIGER

@<TRIPOS>ATOM
      1 C           9.1976   78.5509   24.4565 C.ar    1  UNL1        0.1318
      2 C           9.5935   79.0747   23.2158 C.ar    1  UNL1        0.0356
      3 C          10.2794   80.2891   23.1688 C.ar    1  UNL1        0.0191
      4 C          10.5661   80.9845   24.3495 C.ar    1  UNL1        0.0702
      5 C          10.1892   80.4085   25.5735 C.ar    1  UNL1        0.1149
      6 N           9.5248   79.2229   25.5954 N.ar    1  UNL1       -0.2279
      7 C           6.7256   75.3587   23.5507 C.3     1  UNL1        0.0472
      8 C           6.1845   76.4454   24.5235 C.3     1  UNL1        0.0252
      9 C           7.2816   77.1415   25.3439 C.3     1  UNL1        0.0923
     10 N           8.5066   77.2904   24.5476 N.pl3   1  UNL1       -0.2932
     11 C           9.1116   76.0996   23.9345 C.3     1  UNL1        0.0923
     12 C           8.1469   74.9038   23.9394 C.3     1  UNL1        0.0252
     13 C           5.7365   74.1788   23.4590 C.3     1  UNL1        0.2054
     14 O           4.8728   74.3037   22.3259 O.3     1  UNL1       -0.4755
     15 C           4.2089   77.3736   20.2827 C.ar    1  UNL1        0.0105
     16 C           4.8229   76.1940   20.7280 C.ar    1  UNL1        0.0351
     17 C           4.3021   75.4896   21.8307 C.ar    1  UNL1        0.1385
     18 C           3.1626   75.9817   22.4773 C.ar    1  UNL1        0.0433
     19 C           2.5442   77.1693   22.0526 C.ar    1  UNL1        0.0782
     20 C           3.0809   77.8646   20.9561 C.ar    1  UNL1        0.0048
     21 C           1.3477   77.6808   22.7580 C.2     1  UNL1        0.3381
     22 O           1.2261   77.5279   24.0036 O.2     1  UNL1       -0.2451
     23 O           0.3432   78.3373   22.0513 O.3     1  UNL1       -0.4771
     24 H          -0.4796   78.6913   22.5244 H       1  UNL1        0.2954
     25 C           4.8055   78.1466   19.1410 C.3     1  UNL1        0.1688
     26 C           3.3726   76.8773   17.8619 C.3     1  UNL1        0.1746
     27 O           4.6855   77.3809   17.9615 O.3     1  UNL1       -0.3463
     28 N          11.2948   82.2227   24.2874 N.am    1  UNL1       -0.2766
     29 C          12.6644   82.3710   24.6958 C.2     1  UNL1        0.2839
     30 O          13.2262   81.4681   25.3723 O.2     1  UNL1       -0.2665
     31 H          10.7709   83.0828   24.0073 H       1  UNL1        0.1553
     32 C          13.4009   83.6031   24.3557 C.ar    1  UNL1        0.1946
     33 O          12.9410   84.8119   24.6258 O.2     1  UNL1       -0.4492
     34 C          13.8218   85.6831   24.1983 C.ar    1  UNL1        0.1452
     35 C          13.7441   87.0692   24.2757 C.ar    1  UNL1        0.0375
     36 C          14.8086   87.8205   23.7484 C.ar    1  UNL1        0.0031
     37 C          15.9293   87.1791   23.1549 C.ar    1  UNL1        0.0002
     38 C          15.9692   85.7652   23.0968 C.ar    1  UNL1        0.0028
     39 C          14.8952   85.0510   23.6301 C.ar    1  UNL1        0.0337
     40 C          14.6441   83.6951   23.7195 C.ar    1  UNL1        0.0202
     41 C          15.5128   82.5715   23.2401 C.3     1  UNL1        0.0345
     42 C          17.0480   87.9834   22.6011 C.ar    1  UNL1        0.0000
     43 C          18.1417   88.3421   23.4120 C.ar    1  UNL1        0.0000
     44 C          19.1938   89.0994   22.8878 C.ar    1  UNL1        0.0000
     45 C          19.1675   89.5057   21.5519 C.ar    1  UNL1        0.0000
     46 C          18.0885   89.1559   20.7370 C.ar    1  UNL1        0.0000
     47 C          17.0332   88.3995   21.2561 C.ar    1  UNL1        0.0000
@<TRIPOS>BOND
     1    26    27    1
     2    27    25    1
     3    25    15    1
     4    15    16   ar
     5    16    17   ar
     6    17    14    1
     7    14    13    1
     8    13     7    1
     9     7     8    1
    10     8     9    1
    11     9    10    1
    12    10     1    1
    13     1     2   ar
    14     2     3   ar
    15     3     4   ar
    16     4    28    1
    17    28    29   am
    18    29    30    2
    19    29    32    1
    20    32    33   ar
    21    33    34   ar
    22    34    35   ar
    23    35    36   ar
    24    36    37   ar
    25    37    42    1
    26    42    43   ar
    27    43    44   ar
    28    44    45   ar
    29    45    46   ar
    30    46    47   ar
    31    37    38   ar
    32    38    39   ar
    33    39    40   ar
    34    40    41    1
    35     4     5   ar
    36     5     6   ar
    37    10    11    1
    38    11    12    1
    39    17    18   ar
    40    18    19   ar
    41    19    21    1
    42    21    22    2
    43    21    23    1
    44    19    20   ar
    45    20    15   ar
    46    12     7    1
    47     6     1   ar
    48    40    32   ar
    49    39    34   ar
    50    47    42   ar
    51    28    31    1
    52    23    24    1
@<TRIPOS>MOLECULE
*****
 47 52 0 0 0
SMALL
GASTEIGER

@<TRIPOS>ATOM
      1 C          13.4096   83.4796   24.6005 C.ar    1  UNL1        0.1318
      2 C          13.6921   83.1284   25.9299 C.ar    1  UNL1        0.0356
      3 C          12.9491   82.1220   26.5485 C.ar    1  UNL1        0.0191
      4 C          11.9247   81.4705   25.8516 C.ar    1  UNL1        0.0702
      5 C          11.6991   81.8219   24.5109 C.ar    1  UNL1        0.1149
      6 N          12.4374   82.8030   23.9277 N.ar    1  UNL1       -0.2279
      7 C          14.3693   86.7031   22.1903 C.3     1  UNL1        0.0472
      8 C          14.5723   85.2742   21.6099 C.3     1  UNL1        0.0252
      9 C          14.8926   84.2144   22.6755 C.3     1  UNL1        0.0923
     10 N          14.1680   84.4983   23.9210 N.pl3   1  UNL1       -0.2932
     11 C          14.3235   85.8145   24.5562 C.3     1  UNL1        0.0923
     12 C          14.9695   86.8334   23.6049 C.3     1  UNL1        0.0252
     13 C          14.9255   87.7627   21.2172 C.3     1  UNL1        0.2054
     14 O          14.7357   87.3753   19.8536 O.3     1  UNL1       -0.4755
     15 C          11.8100   89.0662   18.2346 C.ar    1  UNL1        0.0105
     16 C          12.6005   88.4556   19.2191 C.ar    1  UNL1        0.0351
     17 C          13.8961   87.9969   18.9123 C.ar    1  UNL1        0.1385
     18 C          14.3859   88.1582   17.6113 C.ar    1  UNL1        0.0433
     19 C          13.6016   88.7548   16.6102 C.ar    1  UNL1        0.0782
     20 C          12.3080   89.1998   16.9304 C.ar    1  UNL1        0.0048
     21 C          14.1324   88.9043   15.2367 C.2     1  UNL1        0.3381
     22 O          15.2990   89.3436   15.0467 O.2     1  UNL1       -0.2451
     23 O          13.3473   88.5604   14.1391 O.3     1  UNL1       -0.4771
     24 H          13.7010   88.6588   13.1950 H       1  UNL1        0.2954
     25 C          10.4089   89.5010   18.5586 C.3     1  UNL1        0.1688
     26 C           8.6460   89.5047   17.0777 C.3     1  UNL1        0.1746
     27 O           9.5037   88.6884   17.8428 O.3     1  UNL1       -0.3463
     28 N          11.1836   80.4188   26.4941 N.am    1  UNL1       -0.2766
     29 C          10.5430   80.5522   27.7733 C.2     1  UNL1        0.2839
     30 O          10.8138   81.5311   28.5197 O.2     1  UNL1       -0.2665
     31 H          11.1828   79.4767   26.0413 H       1  UNL1        0.1553
     32 C           9.5958   79.5174   28.2297 C.ar    1  UNL1        0.1946
     33 O           9.1176   79.4750   29.4607 O.2     1  UNL1       -0.4492
     34 C           8.3123   78.4445   29.5447 C.ar    1  UNL1        0.1452
     35 C           7.5938   78.0236   30.6583 C.ar    1  UNL1        0.0375
     36 C           6.7846   76.8817   30.5289 C.ar    1  UNL1        0.0031
     37 C           6.7054   76.1808   29.2951 C.ar    1  UNL1        0.0002
     38 C           7.4529   76.6432   28.1854 C.ar    1  UNL1        0.0028
     39 C           8.2456   77.7802   28.3495 C.ar    1  UNL1        0.0337
     40 C           9.0742   78.4594   27.4767 C.ar    1  UNL1        0.0202
     41 C           9.3521   78.1333   26.0403 C.3     1  UNL1        0.0345
     42 C           5.8471   74.9755   29.1703 C.ar    1  UNL1        0.0000
     43 C           6.1290   73.9932   28.2018 C.ar    1  UNL1        0.0000
     44 C           5.3191   72.8591   28.0866 C.ar    1  UNL1        0.0000
     45 C           4.2222   72.6920   28.9346 C.ar    1  UNL1        0.0000
     46 C           3.9322   73.6589   29.8998 C.ar    1  UNL1        0.0000
     47 C           4.7382   74.7954   30.0189 C.ar    1  UNL1        0.0000
@<TRIPOS>BOND
     1    26    27    1
     2    27    25    1
     3    25    15    1
     4    15    16   ar
     5    16    17   ar
     6    17    14    1
     7    14    13    1
     8    13     7    1
     9     7     8    1
    10     8     9    1
    11     9    10    1
    12    10     1    1
    13     1     2   ar
    14     2     3   ar
    15     3     4   ar
    16     4    28    1
    17    28    29   am
    18    29    30    2
    19    29    32    1
    20    32    33   ar
    21    33    34   ar
    22    34    35   ar
    23    35    36   ar
    24    36    37   ar
    25    37    42    1
    26    42    43   ar
    27    43    44   ar
    28    44    45   ar
    29    45    46   ar
    30    46    47   ar
    31    37    38   ar
    32    38    39   ar
    33    39    40   ar
    34    40    41    1
    35     4     5   ar
    36     5     6   ar
    37    10    11    1
    38    11    12    1
    39    17    18   ar
    40    18    19   ar
    41    19    21    1
    42    21    22    2
    43    21    23    1
    44    19    20   ar
    45    20    15   ar
    46    12     7    1
    47     6     1   ar
    48    40    32   ar
    49    39    34   ar
    50    47    42   ar
    51    28    31    1
    52    23    24    1
@<TRIPOS>MOLECULE
*****
 47 52 0 0 0
SMALL
GASTEIGER

@<TRIPOS>ATOM
      1 C           9.1175   78.5562   24.4943 C.ar    1  UNL1        0.1318
      2 C           9.6560   78.9722   23.2665 C.ar    1  UNL1        0.0356
      3 C          10.3345   80.1892   23.1897 C.ar    1  UNL1        0.0191
      4 C          10.4727   80.9939   24.3269 C.ar    1  UNL1        0.0702
      5 C           9.9555   80.5248   25.5452 C.ar    1  UNL1        0.1149
      6 N           9.3011   79.3344   25.5972 N.ar    1  UNL1       -0.2279
      7 C           6.9933   75.3891   26.1000 C.3     1  UNL1        0.0472
      8 C           8.5401   75.2544   26.0045 C.3     1  UNL1        0.0252
      9 C           9.1578   76.0413   24.8381 C.3     1  UNL1        0.0923
     10 N           8.4290   77.2972   24.6184 N.pl3   1  UNL1       -0.2932
     11 C           6.9774   77.2530   24.3927 C.3     1  UNL1        0.0923
     12 C           6.3827   75.8889   24.7751 C.3     1  UNL1        0.0252
     13 C           6.3661   74.0610   26.5709 C.3     1  UNL1        0.2054
     14 O           5.9593   74.1281   27.9403 O.3     1  UNL1       -0.4755
     15 C           7.3443   76.9198   30.0206 C.ar    1  UNL1        0.0105
     16 C           7.3014   75.8130   29.1605 C.ar    1  UNL1        0.0351
     17 C           6.0683   75.2385   28.7961 C.ar    1  UNL1        0.1385
     18 C           4.8847   75.7866   29.3034 C.ar    1  UNL1        0.0433
     19 C           4.9113   76.8861   30.1773 C.ar    1  UNL1        0.0782
     20 C           6.1499   77.4426   30.5375 C.ar    1  UNL1        0.0048
     21 C           3.6493   77.4431   30.7139 C.2     1  UNL1        0.3381
     22 O           3.6305   78.5857   31.2466 O.2     1  UNL1       -0.2451
     23 O           2.4683   76.7092   30.6350 O.3     1  UNL1       -0.4771
     24 H           1.5992   77.0812   30.9991 H       1  UNL1        0.2954
     25 C           8.6675   77.4895   30.4471 C.3     1  UNL1        0.1688
     26 C           8.8577   79.7813   30.3371 C.3     1  UNL1        0.1746
     27 O           8.4403   78.6990   31.1381 O.3     1  UNL1       -0.3463
     28 N          11.1953   82.2340   24.2379 N.am    1  UNL1       -0.2766
     29 C          12.5647   82.3974   24.6412 C.2     1  UNL1        0.2839
     30 O          13.1319   81.5114   25.3355 O.2     1  UNL1       -0.2665
     31 H          10.6668   83.0855   23.9408 H       1  UNL1        0.1553
     32 C          13.2948   83.6257   24.2744 C.ar    1  UNL1        0.1946
     33 O          12.8176   84.8376   24.4965 O.2     1  UNL1       -0.4492
     34 C          13.6973   85.7038   24.0568 C.ar    1  UNL1        0.1452
     35 C          13.6041   87.0908   24.0874 C.ar    1  UNL1        0.0375
     36 C          14.6704   87.8360   23.5554 C.ar    1  UNL1        0.0031
     37 C          15.8084   87.1879   23.0036 C.ar    1  UNL1        0.0002
     38 C          15.8638   85.7733   22.9924 C.ar    1  UNL1        0.0028
     39 C          14.7874   85.0652   23.5293 C.ar    1  UNL1        0.0337
     40 C          14.5486   83.7103   23.6583 C.ar    1  UNL1        0.0202
     41 C          15.4375   82.5812   23.2318 C.3     1  UNL1        0.0345
     42 C          16.9289   87.9857   22.4442 C.ar    1  UNL1        0.0000
     43 C          18.1036   88.1928   23.1924 C.ar    1  UNL1        0.0000
     44 C          19.1571   88.9445   22.6631 C.ar    1  UNL1        0.0000
     45 C          19.0517   89.4960   21.3844 C.ar    1  UNL1        0.0000
     46 C          17.8920   89.2974   20.6319 C.ar    1  UNL1        0.0000
     47 C          16.8349   88.5473   21.1566 C.ar    1  UNL1        0.0000
@<TRIPOS>BOND
     1    26    27    1
     2    27    25    1
     3    25    15    1
     4    15    16   ar
     5    16    17   ar
     6    17    14    1
     7    14    13    1
     8    13     7    1
     9     7     8    1
    10     8     9    1
    11     9    10    1
    12    10     1    1
    13     1     2   ar
    14     2     3   ar
    15     3     4   ar
    16     4    28    1
    17    28    29   am
    18    29    30    2
    19    29    32    1
    20    32    33   ar
    21    33    34   ar
    22    34    35   ar
    23    35    36   ar
    24    36    37   ar
    25    37    42    1
    26    42    43   ar
    27    43    44   ar
    28    44    45   ar
    29    45    46   ar
    30    46    47   ar
    31    37    38   ar
    32    38    39   ar
    33    39    40   ar
    34    40    41    1
    35     4     5   ar
    36     5     6   ar
    37    10    11    1
    38    11    12    1
    39    17    18   ar
    40    18    19   ar
    41    19    21    1
    42    21    22    2
    43    21    23    1
    44    19    20   ar
    45    20    15   ar
    46    12     7    1
    47     6     1   ar
    48    40    32   ar
    49    39    34   ar
    50    47    42   ar
    51    28    31    1
    52    23    24    1
@<TRIPOS>MOLECULE
*****
 47 52 0 0 0
SMALL
GASTEIGER

@<TRIPOS>ATOM
      1 C          10.3982   79.6046   24.1963 C.ar    1  UNL1        0.1318
      2 C           9.8121   80.1479   23.0423 C.ar    1  UNL1        0.0356
      3 C           8.8623   79.4064   22.3384 C.ar    1  UNL1        0.0191
      4 C           8.4998   78.1268   22.7754 C.ar    1  UNL1        0.0702
      5 C           9.0782   77.6343   23.9564 C.ar    1  UNL1        0.1149
      6 N           9.9990   78.3756   24.6275 N.ar    1  UNL1       -0.2279
      7 C          12.9698   82.6119   25.4060 C.3     1  UNL1        0.0472
      8 C          13.5724   81.4090   24.6253 C.3     1  UNL1        0.0252
      9 C          12.8070   80.0927   24.8319 C.3     1  UNL1        0.0923
     10 N          11.3665   80.3473   24.9614 N.pl3   1  UNL1       -0.2932
     11 C          10.8949   81.2899   25.9857 C.3     1  UNL1        0.0923
     12 C          12.0428   82.1436   26.5459 C.3     1  UNL1        0.0252
     13 C          14.0919   83.5437   25.9076 C.3     1  UNL1        0.2054
     14 O          13.9493   84.8673   25.3849 O.3     1  UNL1       -0.4755
     15 C          16.0263   87.0478   23.1555 C.ar    1  UNL1        0.0105
     16 C          15.4007   86.5622   24.3128 C.ar    1  UNL1        0.0351
     17 C          14.6038   85.4023   24.2612 C.ar    1  UNL1        0.1385
     18 C          14.4439   84.7390   23.0392 C.ar    1  UNL1        0.0433
     19 C          15.0522   85.2205   21.8681 C.ar    1  UNL1        0.0782
     20 C          15.8374   86.3836   21.9348 C.ar    1  UNL1        0.0048
     21 C          14.8601   84.5126   20.5826 C.2     1  UNL1        0.3381
     22 O          14.0521   84.9570   19.7227 O.2     1  UNL1       -0.2451
     23 O          15.5715   83.3468   20.3098 O.3     1  UNL1       -0.4771
     24 H          15.4476   82.8547   19.4331 H       1  UNL1        0.2954
     25 C          16.8282   88.3172   23.2108 C.3     1  UNL1        0.1688
     26 C          18.9837   88.9224   23.7475 C.3     1  UNL1        0.1746
     27 O          18.1921   88.0015   23.0315 O.3     1  UNL1       -0.3463
     28 N           7.5019   77.3842   22.0538 N.am    1  UNL1       -0.2766
     29 C           6.3194   76.8319   22.6548 C.2     1  UNL1        0.2839
     30 O           6.2217   76.7551   23.9091 O.2     1  UNL1       -0.2665
     31 H           7.6911   77.1621   21.0500 H       1  UNL1        0.1553
     32 C           5.2345   76.3165   21.7982 C.ar    1  UNL1        0.1946
     33 O           5.4365   75.8862   20.5654 O.2     1  UNL1       -0.4492
     34 C           4.2820   75.5014   20.0788 C.ar    1  UNL1        0.1452
     35 C           4.0305   74.9815   18.8140 C.ar    1  UNL1        0.0375
     36 C           2.7069   74.6326   18.4949 C.ar    1  UNL1        0.0031
     37 C           1.6595   74.8072   19.4395 C.ar    1  UNL1        0.0002
     38 C           1.9587   75.3395   20.7167 C.ar    1  UNL1        0.0028
     39 C           3.2837   75.6748   20.9995 C.ar    1  UNL1        0.0337
     40 C           3.8789   76.2057   22.1279 C.ar    1  UNL1        0.0202
     41 C           3.2171   76.5801   23.4197 C.3     1  UNL1        0.0345
     42 C           0.2648   74.4351   19.0911 C.ar    1  UNL1        0.0000
     43 C          -0.7966   75.3270   19.3367 C.ar    1  UNL1        0.0000
     44 C          -2.1090   74.9739   19.0076 C.ar    1  UNL1        0.0000
     45 C          -2.3767   73.7308   18.4302 C.ar    1  UNL1        0.0000
     46 C          -1.3325   72.8374   18.1810 C.ar    1  UNL1        0.0000
     47 C          -0.0183   73.1848   18.5089 C.ar    1  UNL1        0.0000
@<TRIPOS>BOND
     1    26    27    1
     2    27    25    1
     3    25    15    1
     4    15    16   ar
     5    16    17   ar
     6    17    14    1
     7    14    13    1
     8    13     7    1
     9     7     8    1
    10     8     9    1
    11     9    10    1
    12    10     1    1
    13     1     2   ar
    14     2     3   ar
    15     3     4   ar
    16     4    28    1
    17    28    29   am
    18    29    30    2
    19    29    32    1
    20    32    33   ar
    21    33    34   ar
    22    34    35   ar
    23    35    36   ar
    24    36    37   ar
    25    37    42    1
    26    42    43   ar
    27    43    44   ar
    28    44    45   ar
    29    45    46   ar
    30    46    47   ar
    31    37    38   ar
    32    38    39   ar
    33    39    40   ar
    34    40    41    1
    35     4     5   ar
    36     5     6   ar
    37    10    11    1
    38    11    12    1
    39    17    18   ar
    40    18    19   ar
    41    19    21    1
    42    21    22    2
    43    21    23    1
    44    19    20   ar
    45    20    15   ar
    46    12     7    1
    47     6     1   ar
    48    40    32   ar
    49    39    34   ar
    50    47    42   ar
    51    28    31    1
    52    23    24    1
