@<TRIPOS>MOLECULE
*****
 47 52 0 0 0
SMALL
GASTEIGER

@<TRIPOS>ATOM
      1 N         -29.5583   49.8331  -12.6763 N.am    1  UNL1       -0.2945
      2 C         -29.2738   50.8796  -11.7345 C.2     1  UNL1        0.2483
      3 O         -30.2296   51.5247  -11.2236 O.2     1  UNL1       -0.2701
      4 H         -28.7964   49.5057  -13.3116 H       1  UNL1        0.1501
      5 C         -27.8757   51.1875  -11.3289 C.ar    1  UNL1        0.0808
      6 C         -26.8172   51.0496  -12.2480 C.ar    1  UNL1        0.0080
      7 C         -25.4958   51.2634  -11.8524 C.ar    1  UNL1        0.0148
      8 C         -25.1978   51.6215  -10.5314 C.ar    1  UNL1        0.0502
      9 C         -26.2470   51.7751   -9.6125 C.ar    1  UNL1        0.0443
     10 C         -27.5726   51.5583  -10.0022 C.ar    1  UNL1        0.1457
     11 F         -28.5542   51.7146   -9.0779 F       1  UNL1       -0.2040
     12 N         -23.8297   51.8223  -10.1281 N.pl3   1  UNL1       -0.3040
     13 C         -22.8496   52.3766  -11.0701 C.3     1  UNL1        0.1122
     14 C         -21.4840   51.7167  -10.8636 C.3     1  UNL1        0.1122
     15 N         -21.1423   51.6950   -9.4362 N.pl3   1  UNL1       -0.3041
     16 C         -22.1255   51.1286   -8.5055 C.3     1  UNL1        0.1122
     17 C         -23.4791   51.8078   -8.7027 C.3     1  UNL1        0.1122
     18 C         -19.7858   51.9147   -9.0053 C.ar    1  UNL1        0.0480
     19 C         -18.7140   51.4415   -9.7805 C.ar    1  UNL1        0.0154
     20 C         -17.3952   51.6491   -9.3650 C.ar    1  UNL1        0.0127
     21 C         -17.1347   52.3301   -8.1718 C.ar    1  UNL1        0.0578
     22 CL        -15.4797   52.5899   -7.6521 Cl      1  UNL1       -0.0822
     23 C         -18.1956   52.8026   -7.3927 C.ar    1  UNL1        0.0127
     24 C         -19.5154   52.5957   -7.8053 C.ar    1  UNL1        0.0154
     25 C         -30.8563   49.1438  -12.7082 C.3     1  UNL1        0.1535
     26 C         -30.9686   48.2787  -13.9473 C.2     1  UNL1        0.2443
     27 O         -31.5839   47.1782  -13.8985 O.2     1  UNL1       -0.2730
     28 N         -30.4971   48.7740  -15.2107 N.am    1  UNL1       -0.2825
     29 H         -30.3931   49.8082  -15.3223 H       1  UNL1        0.1549
     30 C         -30.2316   47.9384  -16.3503 C.ar    1  UNL1        0.0535
     31 C         -29.5290   48.4649  -17.4429 C.ar    1  UNL1        0.0353
     32 C         -29.2481   47.6500  -18.5423 C.ar    1  UNL1        0.1002
     33 N         -29.6406   46.3487  -18.5446 N.ar    1  UNL1       -0.2422
     34 C         -30.3068   45.8043  -17.4923 C.ar    1  UNL1        0.1002
     35 C         -30.6090   46.5845  -16.3735 C.ar    1  UNL1        0.0353
     36 C         -31.0790   48.3518  -11.3943 C.3     1  UNL1        0.0569
     37 C         -25.7060   47.3455   -7.3143 C.3     1  UNL1        0.0311
     38 C         -26.8552   47.4414   -8.2720 C.ar    1  UNL1       -0.0204
     39 C         -27.8563   48.4279   -8.0897 C.ar    1  UNL1       -0.0042
     40 C         -28.9489   48.5113   -8.9705 C.ar    1  UNL1        0.0008
     41 C         -29.0173   47.5914  -10.0178 C.ar    1  UNL1        0.0131
     42 C         -29.9217   47.4479  -11.0556 C.ar    1  UNL1       -0.0017
     43 C         -29.4621   46.3671  -11.8039 C.ar    1  UNL1        0.0681
     44 N         -28.3295   45.8645  -11.2629 N.ar    1  UNL1       -0.3523
     45 C         -28.0652   46.6194  -10.1829 C.ar    1  UNL1        0.0560
     46 C         -26.9700   46.5113   -9.3275 C.ar    1  UNL1        0.0127
     47 H         -27.7638   45.0664  -11.6283 H       1  UNL1        0.1660
@<TRIPOS>BOND
     1    37    38    1
     2    38    39   ar
     3    39    40   ar
     4    40    41   ar
     5    41    42   ar
     6    42    36    1
     7    36    25    1
     8    25     1    1
     9     1     2   am
    10     2     3    2
    11     2     5    1
    12     5     6   ar
    13     6     7   ar
    14     7     8   ar
    15     8    12    1
    16    12    13    1
    17    13    14    1
    18    14    15    1
    19    15    18    1
    20    18    19   ar
    21    19    20   ar
    22    20    21   ar
    23    21    22    1
    24    21    23   ar
    25    23    24   ar
    26    15    16    1
    27    16    17    1
    28     8     9   ar
    29     9    10   ar
    30    10    11    1
    31    25    26    1
    32    26    27    2
    33    26    28   am
    34    28    30    1
    35    30    31   ar
    36    31    32   ar
    37    32    33   ar
    38    33    34   ar
    39    34    35   ar
    40    42    43   ar
    41    43    44   ar
    42    44    45   ar
    43    45    46   ar
    44    46    38   ar
    45    45    41   ar
    46    10     5   ar
    47    35    30   ar
    48    17    12    1
    49    24    18   ar
    50     1     4    1
    51    28    29    1
    52    44    47    1
@<TRIPOS>MOLECULE
*****
 47 52 0 0 0
SMALL
GASTEIGER

@<TRIPOS>ATOM
      1 N         -30.3528   48.3471   -1.3629 N.am    1  UNL1       -0.2945
      2 C         -29.2712   48.4996   -2.2956 C.2     1  UNL1        0.2483
      3 O         -28.1013   48.6753   -1.8584 O.2     1  UNL1       -0.2701
      4 H         -31.3313   48.4978   -1.6964 H       1  UNL1        0.1501
      5 C         -29.5060   48.4182   -3.7627 C.ar    1  UNL1        0.0808
      6 C         -30.5053   47.5719   -4.2816 C.ar    1  UNL1        0.0080
      7 C         -30.6792   47.4339   -5.6595 C.ar    1  UNL1        0.0148
      8 C         -29.8622   48.1375   -6.5537 C.ar    1  UNL1        0.0502
      9 C         -28.8734   48.9938   -6.0457 C.ar    1  UNL1        0.0443
     10 C         -28.6920   49.1330   -4.6660 C.ar    1  UNL1        0.1457
     11 F         -27.7202   49.9695   -4.2208 F       1  UNL1       -0.2040
     12 N         -30.0373   47.9747   -7.9740 N.pl3   1  UNL1       -0.3040
     13 C         -30.7967   46.8360   -8.5048 C.3     1  UNL1        0.1122
     14 C         -30.1640   46.3372   -9.8063 C.3     1  UNL1        0.1122
     15 N         -29.8879   47.4675  -10.7013 N.pl3   1  UNL1       -0.3041
     16 C         -29.1186   48.5952  -10.1625 C.3     1  UNL1        0.1122
     17 C         -29.7691   49.1009   -8.8767 C.3     1  UNL1        0.1122
     18 C         -30.0760   47.3375  -12.1231 C.ar    1  UNL1        0.0480
     19 C         -29.9152   46.0879  -12.7447 C.ar    1  UNL1        0.0154
     20 C         -30.0932   45.9569  -14.1253 C.ar    1  UNL1        0.0127
     21 C         -30.4323   47.0722  -14.8977 C.ar    1  UNL1        0.0578
     22 CL        -30.6555   46.9061  -16.6295 Cl      1  UNL1       -0.0822
     23 C         -30.5921   48.3204  -14.2877 C.ar    1  UNL1        0.0127
     24 C         -30.4139   48.4545  -12.9074 C.ar    1  UNL1        0.0154
     25 C         -30.1341   47.8924    0.0178 C.3     1  UNL1        0.1535
     26 C         -30.7547   48.8635    1.0020 C.2     1  UNL1        0.2443
     27 O         -31.5788   49.7313    0.6021 O.2     1  UNL1       -0.2730
     28 N         -30.5133   48.7076    2.4095 N.am    1  UNL1       -0.2825
     29 H         -30.2007   47.7704    2.7510 H       1  UNL1        0.1549
     30 C         -30.7473   49.7407    3.3818 C.ar    1  UNL1        0.0535
     31 C         -30.7951   49.4090    4.7428 C.ar    1  UNL1        0.0353
     32 C         -30.9985   50.4130    5.6927 C.ar    1  UNL1        0.1002
     33 N         -31.1332   51.7070    5.2992 N.ar    1  UNL1       -0.2422
     34 C         -31.0727   52.0624    3.9887 C.ar    1  UNL1        0.1002
     35 C         -30.8720   51.0896    3.0062 C.ar    1  UNL1        0.0353
     36 C         -30.6464   46.4401    0.1951 C.3     1  UNL1        0.0569
     37 C         -26.1089   44.1183   -4.3378 C.3     1  UNL1        0.0311
     38 C         -27.2042   44.5504   -3.4100 C.ar    1  UNL1       -0.0204
     39 C         -26.8940   45.2388   -2.2107 C.ar    1  UNL1       -0.0042
     40 C         -27.9133   45.6288   -1.3244 C.ar    1  UNL1        0.0008
     41 C         -29.2299   45.3102   -1.6597 C.ar    1  UNL1        0.0131
     42 C         -30.4308   45.5923   -1.0320 C.ar    1  UNL1       -0.0017
     43 C         -31.4160   45.0393   -1.8462 C.ar    1  UNL1        0.0681
     44 N         -30.8594   44.4458   -2.9260 N.ar    1  UNL1       -0.3523
     45 C         -29.5325   44.6219   -2.8057 C.ar    1  UNL1        0.0560
     46 C         -28.5450   44.2225   -3.7048 C.ar    1  UNL1        0.0127
     47 H         -31.3642   43.9696   -3.7063 H       1  UNL1        0.1660
@<TRIPOS>BOND
     1    37    38    1
     2    38    39   ar
     3    39    40   ar
     4    40    41   ar
     5    41    42   ar
     6    42    36    1
     7    36    25    1
     8    25     1    1
     9     1     2   am
    10     2     3    2
    11     2     5    1
    12     5     6   ar
    13     6     7   ar
    14     7     8   ar
    15     8    12    1
    16    12    13    1
    17    13    14    1
    18    14    15    1
    19    15    18    1
    20    18    19   ar
    21    19    20   ar
    22    20    21   ar
    23    21    22    1
    24    21    23   ar
    25    23    24   ar
    26    15    16    1
    27    16    17    1
    28     8     9   ar
    29     9    10   ar
    30    10    11    1
    31    25    26    1
    32    26    27    2
    33    26    28   am
    34    28    30    1
    35    30    31   ar
    36    31    32   ar
    37    32    33   ar
    38    33    34   ar
    39    34    35   ar
    40    42    43   ar
    41    43    44   ar
    42    44    45   ar
    43    45    46   ar
    44    46    38   ar
    45    45    41   ar
    46    10     5   ar
    47    35    30   ar
    48    17    12    1
    49    24    18   ar
    50     1     4    1
    51    28    29    1
    52    44    47    1
@<TRIPOS>MOLECULE
*****
 47 52 0 0 0
SMALL
GASTEIGER

@<TRIPOS>ATOM
      1 N         -29.2313   46.4938   -0.9388 N.am    1  UNL1       -0.2945
      2 C         -28.4891   45.8156   -1.9645 C.2     1  UNL1        0.2483
      3 O         -28.4519   44.5549   -1.9663 O.2     1  UNL1       -0.2701
      4 H         -29.0302   47.5021   -0.7539 H       1  UNL1        0.1501
      5 C         -27.7961   46.5756   -3.0399 C.ar    1  UNL1        0.0808
      6 C         -27.4817   47.9375   -2.8649 C.ar    1  UNL1        0.0080
      7 C         -26.9009   48.6745   -3.8981 C.ar    1  UNL1        0.0148
      8 C         -26.6178   48.0714   -5.1303 C.ar    1  UNL1        0.0502
      9 C         -26.9146   46.7116   -5.3088 C.ar    1  UNL1        0.0443
     10 C         -27.5003   45.9691   -4.2785 C.ar    1  UNL1        0.1457
     11 F         -27.7734   44.6578   -4.4983 F       1  UNL1       -0.2040
     12 N         -26.0351   48.8446   -6.1966 N.pl3   1  UNL1       -0.3040
     13 C         -25.7746   50.2785   -6.0200 C.3     1  UNL1        0.1122
     14 C         -26.0412   51.0306   -7.3262 C.3     1  UNL1        0.1122
     15 N         -25.3970   50.3394   -8.4496 N.pl3   1  UNL1       -0.3041
     16 C         -25.6736   48.9085   -8.6222 C.3     1  UNL1        0.1122
     17 C         -25.3837   48.1625   -7.3216 C.3     1  UNL1        0.1122
     18 C         -24.7877   51.0893   -9.5174 C.ar    1  UNL1        0.0480
     19 C         -23.6634   51.8925   -9.2632 C.ar    1  UNL1        0.0154
     20 C         -23.0702   52.6254  -10.2956 C.ar    1  UNL1        0.0127
     21 C         -23.5944   52.5636  -11.5906 C.ar    1  UNL1        0.0578
     22 CL        -22.8487   53.4834  -12.8846 Cl      1  UNL1       -0.0822
     23 C         -24.7146   51.7685  -11.8521 C.ar    1  UNL1        0.0127
     24 C         -25.3105   51.0353  -10.8215 C.ar    1  UNL1        0.0154
     25 C         -30.3287   45.8420   -0.2095 C.3     1  UNL1        0.1535
     26 C         -30.6115   46.5713    1.0885 C.2     1  UNL1        0.2443
     27 O         -31.5823   46.2206    1.8141 O.2     1  UNL1       -0.2730
     28 N         -29.6936   47.5695    1.5628 N.am    1  UNL1       -0.2825
     29 H         -28.7145   47.5462    1.1975 H       1  UNL1        0.1549
     30 C         -30.0217   48.5491    2.5628 C.ar    1  UNL1        0.0535
     31 C         -31.0256   49.4919    2.3016 C.ar    1  UNL1        0.0353
     32 C         -31.3642   50.4306    3.2793 C.ar    1  UNL1        0.1002
     33 N         -30.7338   50.4188    4.4834 N.ar    1  UNL1       -0.2422
     34 C         -29.7698   49.5056    4.7732 C.ar    1  UNL1        0.1002
     35 C         -29.3999   48.5500    3.8235 C.ar    1  UNL1        0.0353
     36 C         -31.5788   45.7142   -1.1173 C.3     1  UNL1        0.0569
     37 C         -30.3089   45.9682   -7.8144 C.3     1  UNL1        0.0311
     38 C         -30.6184   46.0518   -6.3500 C.ar    1  UNL1       -0.0204
     39 C         -30.7565   44.8695   -5.5807 C.ar    1  UNL1       -0.0042
     40 C         -31.0680   44.9380   -4.2115 C.ar    1  UNL1        0.0008
     41 C         -31.2430   46.2001   -3.6422 C.ar    1  UNL1        0.0131
     42 C         -31.5029   46.5915   -2.3403 C.ar    1  UNL1       -0.0017
     43 C         -31.5487   47.9830   -2.3714 C.ar    1  UNL1        0.0681
     44 N         -31.3266   48.4358   -3.6259 N.ar    1  UNL1       -0.3523
     45 C         -31.1359   47.3451   -4.3877 C.ar    1  UNL1        0.0560
     46 C         -30.8273   47.3105   -5.7466 C.ar    1  UNL1        0.0127
     47 H         -31.2872   49.4335   -3.9318 H       1  UNL1        0.1660
@<TRIPOS>BOND
     1    37    38    1
     2    38    39   ar
     3    39    40   ar
     4    40    41   ar
     5    41    42   ar
     6    42    36    1
     7    36    25    1
     8    25     1    1
     9     1     2   am
    10     2     3    2
    11     2     5    1
    12     5     6   ar
    13     6     7   ar
    14     7     8   ar
    15     8    12    1
    16    12    13    1
    17    13    14    1
    18    14    15    1
    19    15    18    1
    20    18    19   ar
    21    19    20   ar
    22    20    21   ar
    23    21    22    1
    24    21    23   ar
    25    23    24   ar
    26    15    16    1
    27    16    17    1
    28     8     9   ar
    29     9    10   ar
    30    10    11    1
    31    25    26    1
    32    26    27    2
    33    26    28   am
    34    28    30    1
    35    30    31   ar
    36    31    32   ar
    37    32    33   ar
    38    33    34   ar
    39    34    35   ar
    40    42    43   ar
    41    43    44   ar
    42    44    45   ar
    43    45    46   ar
    44    46    38   ar
    45    45    41   ar
    46    10     5   ar
    47    35    30   ar
    48    17    12    1
    49    24    18   ar
    50     1     4    1
    51    28    29    1
    52    44    47    1
@<TRIPOS>MOLECULE
*****
 47 52 0 0 0
SMALL
GASTEIGER

@<TRIPOS>ATOM
      1 N         -29.5453   48.4224   -1.5190 N.am    1  UNL1       -0.2945
      2 C         -28.4886   48.5992   -2.4757 C.2     1  UNL1        0.2483
      3 O         -27.2911   48.5843   -2.0803 O.2     1  UNL1       -0.2701
      4 H         -30.5126   48.7228   -1.7749 H       1  UNL1        0.1501
      5 C         -28.7851   48.7635   -3.9246 C.ar    1  UNL1        0.0808
      6 C         -29.9208   49.4827   -4.3456 C.ar    1  UNL1        0.0080
      7 C         -30.2455   49.5754   -5.6998 C.ar    1  UNL1        0.0148
      8 C         -29.4451   48.9548   -6.6675 C.ar    1  UNL1        0.0502
      9 C         -28.3040   48.2481   -6.2584 C.ar    1  UNL1        0.0443
     10 C         -27.9758   48.1485   -4.9026 C.ar    1  UNL1        0.1457
     11 F         -26.8648   47.4512   -4.5537 F       1  UNL1       -0.2040
     12 N         -29.7984   49.0408   -8.0612 N.pl3   1  UNL1       -0.3040
     13 C         -29.7288   47.8533   -8.9214 C.3     1  UNL1        0.1122
     14 C         -29.2526   48.2415  -10.3233 C.3     1  UNL1        0.1122
     15 N         -29.9998   49.4086  -10.8073 N.pl3   1  UNL1       -0.3041
     16 C         -30.0532   50.5936   -9.9433 C.3     1  UNL1        0.1122
     17 C         -30.5504   50.2015   -8.5536 C.3     1  UNL1        0.1122
     18 C         -30.3842   49.5085  -12.1916 C.ar    1  UNL1        0.0480
     19 C         -30.1610   48.4312  -13.0653 C.ar    1  UNL1        0.0154
     20 C         -30.5291   48.5242  -14.4109 C.ar    1  UNL1        0.0127
     21 C         -31.1225   49.6936  -14.8965 C.ar    1  UNL1        0.0578
     22 CL        -31.5840   49.8086  -16.5848 Cl      1  UNL1       -0.0822
     23 C         -31.3463   50.7718  -14.0344 C.ar    1  UNL1        0.0127
     24 C         -30.9785   50.6819  -12.6885 C.ar    1  UNL1        0.0154
     25 C         -29.3275   47.7458   -0.2323 C.3     1  UNL1        0.1535
     26 C         -30.1575   48.3949    0.8569 C.2     1  UNL1        0.2443
     27 O         -31.3179   48.8195    0.6016 O.2     1  UNL1       -0.2730
     28 N         -29.6804   48.4013    2.2120 N.am    1  UNL1       -0.2825
     29 H         -28.9567   47.6956    2.4788 H       1  UNL1        0.1549
     30 C         -30.1921   49.2696    3.2374 C.ar    1  UNL1        0.0535
     31 C         -30.2577   50.6499    3.0030 C.ar    1  UNL1        0.0353
     32 C         -30.7762   51.4948    3.9873 C.ar    1  UNL1        0.1002
     33 N         -31.2293   50.9782    5.1600 N.ar    1  UNL1       -0.2422
     34 C         -31.1963   49.6425    5.4093 C.ar    1  UNL1        0.1002
     35 C         -30.6846   48.7624    4.4524 C.ar    1  UNL1        0.0353
     36 C         -29.5930   46.2248   -0.3709 C.3     1  UNL1        0.0569
     37 C         -31.0187   44.1817   -6.7208 C.3     1  UNL1        0.0311
     38 C         -30.5687   44.6001   -5.3534 C.ar    1  UNL1       -0.0204
     39 C         -31.4513   45.3017   -4.4948 C.ar    1  UNL1       -0.0042
     40 C         -31.0307   45.7168   -3.2191 C.ar    1  UNL1        0.0008
     41 C         -29.7219   45.4234   -2.8336 C.ar    1  UNL1        0.0131
     42 C         -29.0408   45.6512   -1.6505 C.ar    1  UNL1       -0.0017
     43 C         -27.7693   45.1170   -1.8434 C.ar    1  UNL1        0.0681
     44 N         -27.6636   44.5820   -3.0807 N.ar    1  UNL1       -0.3523
     45 C         -28.8567   44.7680   -3.6705 C.ar    1  UNL1        0.0560
     46 C         -29.2438   44.3428   -4.9403 C.ar    1  UNL1        0.0127
     47 H         -26.8292   44.1002   -3.4834 H       1  UNL1        0.1660
@<TRIPOS>BOND
     1    37    38    1
     2    38    39   ar
     3    39    40   ar
     4    40    41   ar
     5    41    42   ar
     6    42    36    1
     7    36    25    1
     8    25     1    1
     9     1     2   am
    10     2     3    2
    11     2     5    1
    12     5     6   ar
    13     6     7   ar
    14     7     8   ar
    15     8    12    1
    16    12    13    1
    17    13    14    1
    18    14    15    1
    19    15    18    1
    20    18    19   ar
    21    19    20   ar
    22    20    21   ar
    23    21    22    1
    24    21    23   ar
    25    23    24   ar
    26    15    16    1
    27    16    17    1
    28     8     9   ar
    29     9    10   ar
    30    10    11    1
    31    25    26    1
    32    26    27    2
    33    26    28   am
    34    28    30    1
    35    30    31   ar
    36    31    32   ar
    37    32    33   ar
    38    33    34   ar
    39    34    35   ar
    40    42    43   ar
    41    43    44   ar
    42    44    45   ar
    43    45    46   ar
    44    46    38   ar
    45    45    41   ar
    46    10     5   ar
    47    35    30   ar
    48    17    12    1
    49    24    18   ar
    50     1     4    1
    51    28    29    1
    52    44    47    1
@<TRIPOS>MOLECULE
*****
 47 52 0 0 0
SMALL
GASTEIGER

@<TRIPOS>ATOM
      1 N         -29.3534   46.6234   -0.9853 N.am    1  UNL1       -0.2945
      2 C         -28.4978   46.0631   -1.9938 C.2     1  UNL1        0.2483
      3 O         -28.1852   44.8430   -1.9277 O.2     1  UNL1       -0.2701
      4 H         -29.3752   47.6605   -0.8617 H       1  UNL1        0.1501
      5 C         -28.0064   46.8902   -3.1289 C.ar    1  UNL1        0.0808
      6 C         -28.0205   46.3826   -4.4428 C.ar    1  UNL1        0.0080
      7 C         -27.4909   47.1239   -5.5003 C.ar    1  UNL1        0.0148
      8 C         -26.9359   48.3899   -5.2738 C.ar    1  UNL1        0.0502
      9 C         -26.9303   48.9095   -3.9703 C.ar    1  UNL1        0.0443
     10 C         -27.4560   48.1696   -2.9063 C.ar    1  UNL1        0.1457
     11 F         -27.4251   48.7111   -1.6621 F       1  UNL1       -0.2040
     12 N         -26.3754   49.1397   -6.3684 N.pl3   1  UNL1       -0.3040
     13 C         -26.4404   48.6176   -7.7389 C.3     1  UNL1        0.1122
     14 C         -25.1625   48.9731   -8.5027 C.3     1  UNL1        0.1122
     15 N         -24.8368   50.3918   -8.3132 N.pl3   1  UNL1       -0.3041
     16 C         -24.7641   50.8997   -6.9383 C.3     1  UNL1        0.1122
     17 C         -26.0516   50.5605   -6.1902 C.3     1  UNL1        0.1122
     18 C         -24.2959   51.1694   -9.3980 C.ar    1  UNL1        0.0480
     19 C         -23.0862   51.8646   -9.2330 C.ar    1  UNL1        0.0154
     20 C         -22.5584   52.6238  -10.2817 C.ar    1  UNL1        0.0127
     21 C         -23.2338   52.6965  -11.5041 C.ar    1  UNL1        0.0578
     22 CL        -22.5701   53.6492  -12.8188 Cl      1  UNL1       -0.0822
     23 C         -24.4396   52.0096  -11.6764 C.ar    1  UNL1        0.0127
     24 C         -24.9703   51.2503  -10.6291 C.ar    1  UNL1        0.0154
     25 C         -30.2689   45.7929   -0.1895 C.3     1  UNL1        0.1535
     26 C         -30.5028   46.4147    1.1726 C.2     1  UNL1        0.2443
     27 O         -31.3337   45.8998    1.9703 O.2     1  UNL1       -0.2730
     28 N         -29.6789   47.5068    1.6113 N.am    1  UNL1       -0.2825
     29 H         -28.7509   47.6360    1.1478 H       1  UNL1        0.1549
     30 C         -30.0230   48.3839    2.6974 C.ar    1  UNL1        0.0535
     31 C         -29.2715   48.3451    3.8800 C.ar    1  UNL1        0.0353
     32 C         -29.5872   49.2121    4.9289 C.ar    1  UNL1        0.1002
     33 N         -30.6081   50.0996    4.7964 N.ar    1  UNL1       -0.2422
     34 C         -31.3428   50.1741    3.6553 C.ar    1  UNL1        0.1002
     35 C         -31.0613   49.3245    2.5826 C.ar    1  UNL1        0.0353
     36 C         -31.5823   45.5362   -0.9718 C.3     1  UNL1        0.0569
     37 C         -31.5831   50.2555   -5.8969 C.3     1  UNL1        0.0311
     38 C         -31.5536   49.1222   -4.9161 C.ar    1  UNL1       -0.0204
     39 C         -31.5447   49.3834   -3.5232 C.ar    1  UNL1       -0.0042
     40 C         -31.4953   48.3273   -2.5965 C.ar    1  UNL1        0.0008
     41 C         -31.4477   47.0234   -3.0917 C.ar    1  UNL1        0.0131
     42 C         -31.4411   45.7975   -2.4493 C.ar    1  UNL1       -0.0017
     43 C         -31.4101   44.8447   -3.4645 C.ar    1  UNL1        0.0681
     44 N         -31.4005   45.4446   -4.6762 N.ar    1  UNL1       -0.3523
     45 C         -31.4300   46.7669   -4.4379 C.ar    1  UNL1        0.0560
     46 C         -31.4790   47.7917   -5.3815 C.ar    1  UNL1        0.0127
     47 H         -31.3963   44.9714   -5.6071 H       1  UNL1        0.1660
@<TRIPOS>BOND
     1    37    38    1
     2    38    39   ar
     3    39    40   ar
     4    40    41   ar
     5    41    42   ar
     6    42    36    1
     7    36    25    1
     8    25     1    1
     9     1     2   am
    10     2     3    2
    11     2     5    1
    12     5     6   ar
    13     6     7   ar
    14     7     8   ar
    15     8    12    1
    16    12    13    1
    17    13    14    1
    18    14    15    1
    19    15    18    1
    20    18    19   ar
    21    19    20   ar
    22    20    21   ar
    23    21    22    1
    24    21    23   ar
    25    23    24   ar
    26    15    16    1
    27    16    17    1
    28     8     9   ar
    29     9    10   ar
    30    10    11    1
    31    25    26    1
    32    26    27    2
    33    26    28   am
    34    28    30    1
    35    30    31   ar
    36    31    32   ar
    37    32    33   ar
    38    33    34   ar
    39    34    35   ar
    40    42    43   ar
    41    43    44   ar
    42    44    45   ar
    43    45    46   ar
    44    46    38   ar
    45    45    41   ar
    46    10     5   ar
    47    35    30   ar
    48    17    12    1
    49    24    18   ar
    50     1     4    1
    51    28    29    1
    52    44    47    1
@<TRIPOS>MOLECULE
*****
 47 52 0 0 0
SMALL
GASTEIGER

@<TRIPOS>ATOM
      1 N         -29.5973   47.7977   -1.2337 N.am    1  UNL1       -0.2945
      2 C         -28.4516   47.2577   -1.9111 C.2     1  UNL1        0.2483
      3 O         -27.7857   46.3399   -1.3589 O.2     1  UNL1       -0.2701
      4 H         -29.9658   48.7291   -1.5303 H       1  UNL1        0.1501
      5 C         -28.0626   47.7397   -3.2641 C.ar    1  UNL1        0.0808
      6 C         -27.9786   49.1193   -3.5355 C.ar    1  UNL1        0.0080
      7 C         -27.6888   49.5776   -4.8216 C.ar    1  UNL1        0.0148
      8 C         -27.4741   48.6716   -5.8681 C.ar    1  UNL1        0.0502
      9 C         -27.5418   47.2951   -5.6040 C.ar    1  UNL1        0.0443
     10 C         -27.8356   46.8302   -4.3181 C.ar    1  UNL1        0.1457
     11 F         -27.8947   45.4901   -4.1107 F       1  UNL1       -0.2040
     12 N         -27.1936   49.1542   -7.1959 N.pl3   1  UNL1       -0.3040
     13 C         -26.0275   50.0102   -7.4459 C.3     1  UNL1        0.1122
     14 C         -26.3616   51.0657   -8.5028 C.3     1  UNL1        0.1122
     15 N         -27.0245   50.4392   -9.6530 N.pl3   1  UNL1       -0.3041
     16 C         -28.1956   49.5944   -9.3914 C.3     1  UNL1        0.1122
     17 C         -27.8473   48.5303   -8.3528 C.3     1  UNL1        0.1122
     18 C         -26.7449   50.8884  -10.9924 C.ar    1  UNL1        0.0480
     19 C         -25.4234   51.1613  -11.3836 C.ar    1  UNL1        0.0154
     20 C         -25.1469   51.6010  -12.6816 C.ar    1  UNL1        0.0127
     21 C         -26.1869   51.7731  -13.6004 C.ar    1  UNL1        0.0578
     22 CL        -25.8382   52.3245  -15.2286 Cl      1  UNL1       -0.0822
     23 C         -27.5056   51.5060  -13.2189 C.ar    1  UNL1        0.0127
     24 C         -27.7852   51.0670  -11.9213 C.ar    1  UNL1        0.0154
     25 C         -30.3240   47.0400   -0.2047 C.3     1  UNL1        0.1535
     26 C         -30.7386   47.9513    0.9330 C.2     1  UNL1        0.2443
     27 O         -31.2086   49.0965    0.6888 O.2     1  UNL1       -0.2730
     28 N         -30.7283   47.4602    2.2830 N.am    1  UNL1       -0.2825
     29 H         -30.7559   46.4251    2.4268 H       1  UNL1        0.1549
     30 C         -30.7571   48.3077    3.4441 C.ar    1  UNL1        0.0535
     31 C         -31.5699   47.9601    4.5318 C.ar    1  UNL1        0.0353
     32 C         -31.5831   48.7678    5.6715 C.ar    1  UNL1        0.1002
     33 N         -30.7990   49.8765    5.7307 N.ar    1  UNL1       -0.2422
     34 C         -29.9862   50.2293    4.7000 C.ar    1  UNL1        0.1002
     35 C         -29.9437   49.4500    3.5412 C.ar    1  UNL1        0.0353
     36 C         -31.5175   46.2792   -0.8371 C.3     1  UNL1        0.0569
     37 C         -31.3573   47.2016   -7.5937 C.3     1  UNL1        0.0311
     38 C         -31.3347   46.8703   -6.1319 C.ar    1  UNL1       -0.0204
     39 C         -31.5840   47.8782   -5.1673 C.ar    1  UNL1       -0.0042
     40 C         -31.5436   47.5811   -3.7937 C.ar    1  UNL1        0.0008
     41 C         -31.2441   46.2716   -3.4157 C.ar    1  UNL1        0.0131
     42 C         -31.1773   45.6679   -2.1719 C.ar    1  UNL1       -0.0017
     43 C         -30.8575   44.3356   -2.4208 C.ar    1  UNL1        0.0681
     44 N         -30.7338   44.1190   -3.7497 N.ar    1  UNL1       -0.3523
     45 C         -30.9769   45.2995   -4.3442 C.ar    1  UNL1        0.0560
     46 C         -31.0101   45.5621   -5.7127 C.ar    1  UNL1        0.0127
     47 H         -30.5176   43.2103   -4.2167 H       1  UNL1        0.1660
@<TRIPOS>BOND
     1    37    38    1
     2    38    39   ar
     3    39    40   ar
     4    40    41   ar
     5    41    42   ar
     6    42    36    1
     7    36    25    1
     8    25     1    1
     9     1     2   am
    10     2     3    2
    11     2     5    1
    12     5     6   ar
    13     6     7   ar
    14     7     8   ar
    15     8    12    1
    16    12    13    1
    17    13    14    1
    18    14    15    1
    19    15    18    1
    20    18    19   ar
    21    19    20   ar
    22    20    21   ar
    23    21    22    1
    24    21    23   ar
    25    23    24   ar
    26    15    16    1
    27    16    17    1
    28     8     9   ar
    29     9    10   ar
    30    10    11    1
    31    25    26    1
    32    26    27    2
    33    26    28   am
    34    28    30    1
    35    30    31   ar
    36    31    32   ar
    37    32    33   ar
    38    33    34   ar
    39    34    35   ar
    40    42    43   ar
    41    43    44   ar
    42    44    45   ar
    43    45    46   ar
    44    46    38   ar
    45    45    41   ar
    46    10     5   ar
    47    35    30   ar
    48    17    12    1
    49    24    18   ar
    50     1     4    1
    51    28    29    1
    52    44    47    1
@<TRIPOS>MOLECULE
*****
 47 52 0 0 0
SMALL
GASTEIGER

@<TRIPOS>ATOM
      1 N         -20.5431   55.8737   -9.0479 N.am    1  UNL1       -0.2945
      2 C         -20.5303   54.8619  -10.0673 C.2     1  UNL1        0.2483
      3 O         -19.5426   54.7869  -10.8480 O.2     1  UNL1       -0.2701
      4 H         -21.4534   56.1321   -8.6054 H       1  UNL1        0.1501
      5 C         -21.6447   53.8837  -10.1913 C.ar    1  UNL1        0.0808
      6 C         -22.9795   54.2919  -10.0026 C.ar    1  UNL1        0.0080
      7 C         -24.0221   53.3648  -10.0424 C.ar    1  UNL1        0.0148
      8 C         -23.7594   52.0083  -10.2729 C.ar    1  UNL1        0.0502
      9 C         -22.4340   51.5947  -10.4761 C.ar    1  UNL1        0.0443
     10 C         -21.3850   52.5186  -10.4335 C.ar    1  UNL1        0.1457
     11 F         -20.1187   52.0717  -10.6316 F       1  UNL1       -0.2040
     12 N         -24.8400   51.0563  -10.2941 N.pl3   1  UNL1       -0.3040
     13 C         -25.6657   50.8941  -11.4970 C.3     1  UNL1        0.1122
     14 C         -27.1220   50.6278  -11.1084 C.3     1  UNL1        0.1122
     15 N         -27.1885   49.5890  -10.0733 N.pl3   1  UNL1       -0.3041
     16 C         -26.3668   49.7676   -8.8706 C.3     1  UNL1        0.1122
     17 C         -24.9119   50.0104   -9.2665 C.3     1  UNL1        0.1122
     18 C         -28.2463   48.6118  -10.0845 C.ar    1  UNL1        0.0480
     19 C         -27.9693   47.2688   -9.7793 C.ar    1  UNL1        0.0154
     20 C         -28.9919   46.3154   -9.7922 C.ar    1  UNL1        0.0127
     21 C         -30.2998   46.6941  -10.1106 C.ar    1  UNL1        0.0578
     22 CL        -31.5816   45.4968  -10.1260 Cl      1  UNL1       -0.0822
     23 C         -30.5842   48.0283  -10.4179 C.ar    1  UNL1        0.0127
     24 C         -29.5635   48.9837  -10.4067 C.ar    1  UNL1        0.0154
     25 C         -19.3066   56.4863   -8.5412 C.3     1  UNL1        0.1535
     26 C         -19.4912   57.9786   -8.3523 C.2     1  UNL1        0.2443
     27 O         -19.7086   58.7215   -9.3487 O.2     1  UNL1       -0.2730
     28 N         -19.5585   58.5289   -7.0270 N.am    1  UNL1       -0.2825
     29 H         -19.8053   57.8843   -6.2420 H       1  UNL1        0.1549
     30 C         -19.3797   59.9240   -6.7288 C.ar    1  UNL1        0.0535
     31 C         -18.6023   60.7179   -7.5833 C.ar    1  UNL1        0.0353
     32 C         -18.4453   62.0790   -7.3106 C.ar    1  UNL1        0.1002
     33 N         -19.0570   62.6331   -6.2307 N.ar    1  UNL1       -0.2422
     34 C         -19.8322   61.8935   -5.3944 C.ar    1  UNL1        0.1002
     35 C         -20.0146   60.5286   -5.6299 C.ar    1  UNL1        0.0353
     36 C         -18.8370   55.7660   -7.2514 C.3     1  UNL1        0.0569
     37 C         -16.5062   49.6383   -9.1346 C.3     1  UNL1        0.0311
     38 C         -17.1311   50.9173   -8.6645 C.ar    1  UNL1       -0.0204
     39 C         -16.3875   52.1236   -8.6812 C.ar    1  UNL1       -0.0042
     40 C         -16.9583   53.3236   -8.2221 C.ar    1  UNL1        0.0008
     41 C         -18.2694   53.2846   -7.7456 C.ar    1  UNL1        0.0131
     42 C         -19.1069   54.2836   -7.2806 C.ar    1  UNL1       -0.0017
     43 C         -20.3062   53.6489   -6.9671 C.ar    1  UNL1        0.0681
     44 N         -20.2220   52.3244   -7.2252 N.ar    1  UNL1       -0.3523
     45 C         -18.9836   52.1155   -7.7034 C.ar    1  UNL1        0.0560
     46 C         -18.4462   50.9101   -8.1521 C.ar    1  UNL1        0.0127
     47 H         -20.9778   51.6147   -7.1003 H       1  UNL1        0.1660
@<TRIPOS>BOND
     1    37    38    1
     2    38    39   ar
     3    39    40   ar
     4    40    41   ar
     5    41    42   ar
     6    42    36    1
     7    36    25    1
     8    25     1    1
     9     1     2   am
    10     2     3    2
    11     2     5    1
    12     5     6   ar
    13     6     7   ar
    14     7     8   ar
    15     8    12    1
    16    12    13    1
    17    13    14    1
    18    14    15    1
    19    15    18    1
    20    18    19   ar
    21    19    20   ar
    22    20    21   ar
    23    21    22    1
    24    21    23   ar
    25    23    24   ar
    26    15    16    1
    27    16    17    1
    28     8     9   ar
    29     9    10   ar
    30    10    11    1
    31    25    26    1
    32    26    27    2
    33    26    28   am
    34    28    30    1
    35    30    31   ar
    36    31    32   ar
    37    32    33   ar
    38    33    34   ar
    39    34    35   ar
    40    42    43   ar
    41    43    44   ar
    42    44    45   ar
    43    45    46   ar
    44    46    38   ar
    45    45    41   ar
    46    10     5   ar
    47    35    30   ar
    48    17    12    1
    49    24    18   ar
    50     1     4    1
    51    28    29    1
    52    44    47    1
