@<TRIPOS>MOLECULE
*****
 33 36 0 0 0
SMALL
GASTEIGER

@<TRIPOS>ATOM
      1 N         -24.1506   -9.2996  -12.3368 N.am    1  UNL1       -0.2698
      2 C         -24.9916   -9.9414  -13.3141 C.2     1  UNL1        0.2510
      3 O         -25.9921   -9.3217  -13.7669 O.2     1  UNL1       -0.2698
      4 C         -24.7056  -11.3108  -13.7960 C.ar    1  UNL1        0.0727
      5 C         -25.6625  -12.3289  -13.6521 C.ar    1  UNL1        0.1033
      6 N         -25.4009  -13.5876  -14.0938 N.ar    1  UNL1       -0.2437
      7 C         -24.2237  -13.9065  -14.6933 C.ar    1  UNL1        0.0813
      8 C         -23.9904  -15.2142  -15.1344 C.ar    1  UNL1        0.0191
      9 C         -22.7796  -15.5373  -15.7552 C.ar    1  UNL1        0.0015
     10 C         -21.7992  -14.5566  -15.9381 C.ar    1  UNL1        0.0001
     11 C         -22.0236  -13.2470  -15.5008 C.ar    1  UNL1        0.0015
     12 C         -23.2351  -12.9151  -14.8753 C.ar    1  UNL1        0.0178
     13 C         -23.4887  -11.6136  -14.4265 C.ar    1  UNL1        0.0076
     14 C         -24.6899   -6.8906  -12.4697 C.3     1  UNL1        0.0264
     15 C         -23.6041   -7.9635  -12.6380 C.3     1  UNL1        0.0985
     16 C         -22.9081   -7.9569  -13.9900 C.ar    1  UNL1       -0.0034
     17 C         -21.5793   -8.3980  -14.1661 C.ar    1  UNL1       -0.0026
     18 C         -20.9692   -8.3227  -15.4217 C.ar    1  UNL1        0.0006
     19 C         -21.6654   -7.7957  -16.5108 C.ar    1  UNL1        0.0114
     20 C         -22.9761   -7.3407  -16.3479 C.ar    1  UNL1        0.0574
     21 CL        -23.8396   -6.6498  -17.7089 Cl      1  UNL1       -0.0823
     22 C         -23.5941   -7.4215  -15.0957 C.ar    1  UNL1        0.0087
     23 C         -23.8684   -9.9755  -11.0569 C.3     1  UNL1        0.1207
     24 C         -22.3952   -9.9207  -10.7406 C.ar    1  UNL1       -0.0021
     25 C         -21.5107  -10.8348  -11.3329 C.ar    1  UNL1       -0.0026
     26 C         -20.1563  -10.8231  -10.9958 C.ar    1  UNL1       -0.0001
     27 C         -19.6717   -9.9030  -10.0632 C.ar    1  UNL1        0.0064
     28 C         -20.5402   -8.9774   -9.4604 C.ar    1  UNL1        0.0752
     29 C         -21.9027   -8.9918   -9.8095 C.ar    1  UNL1        0.0038
     30 C         -20.0257   -8.0059   -8.4698 C.2     1  UNL1        0.3380
     31 O         -20.6628   -6.9461   -8.2233 O.2     1  UNL1       -0.2451
     32 O         -18.8311   -8.2540   -7.7986 O.3     1  UNL1       -0.4771
     33 H         -18.4706   -7.5961   -7.1179 H       1  UNL1        0.2954
@<TRIPOS>BOND
     1    14    15    1
     2    15    16    1
     3    16    17   ar
     4    17    18   ar
     5    18    19   ar
     6    19    20   ar
     7    20    21    1
     8    20    22   ar
     9    15     1    1
    10     1    23    1
    11    23    24    1
    12    24    25   ar
    13    25    26   ar
    14    26    27   ar
    15    27    28   ar
    16    28    30    1
    17    30    31    2
    18    30    32    1
    19    28    29   ar
    20     1     2   am
    21     2     3    2
    22     2     4    1
    23     4     5   ar
    24     5     6   ar
    25     6     7   ar
    26     7     8   ar
    27     8     9   ar
    28     9    10   ar
    29    10    11   ar
    30    11    12   ar
    31    12    13   ar
    32    22    16   ar
    33    29    24   ar
    34    13     4   ar
    35    12     7   ar
    36    32    33    1
@<TRIPOS>MOLECULE
*****
 33 36 0 0 0
SMALL
GASTEIGER

@<TRIPOS>ATOM
      1 N         -24.2177   -9.2716  -12.4098 N.am    1  UNL1       -0.2698
      2 C         -25.0047   -9.9598  -13.4003 C.2     1  UNL1        0.2510
      3 O         -26.0025   -9.3780  -13.9063 O.2     1  UNL1       -0.2698
      4 C         -24.6666  -11.3332  -13.8349 C.ar    1  UNL1        0.0727
      5 C         -25.5007  -12.4112  -13.4960 C.ar    1  UNL1        0.1033
      6 N         -25.1909  -13.6735  -13.8940 N.ar    1  UNL1       -0.2437
      7 C         -24.0827  -13.9400  -14.6341 C.ar    1  UNL1        0.0813
      8 C         -23.7965  -15.2532  -15.0245 C.ar    1  UNL1        0.0191
      9 C         -22.6576  -15.5227  -15.7901 C.ar    1  UNL1        0.0015
     10 C         -21.8022  -14.4827  -16.1686 C.ar    1  UNL1        0.0001
     11 C         -22.0803  -13.1671  -15.7833 C.ar    1  UNL1        0.0015
     12 C         -23.2200  -12.8887  -15.0135 C.ar    1  UNL1        0.0178
     13 C         -23.5248  -11.5826  -14.6122 C.ar    1  UNL1        0.0076
     14 C         -24.8063   -6.8784  -12.6040 C.3     1  UNL1        0.0264
     15 C         -23.6936   -7.9299  -12.7257 C.3     1  UNL1        0.0985
     16 C         -22.9669   -7.9347  -14.0615 C.ar    1  UNL1       -0.0034
     17 C         -21.6348   -8.3780  -14.2036 C.ar    1  UNL1       -0.0026
     18 C         -20.9961   -8.3132  -15.4454 C.ar    1  UNL1        0.0006
     19 C         -21.6668   -7.7946  -16.5544 C.ar    1  UNL1        0.0114
     20 C         -22.9804   -7.3374  -16.4251 C.ar    1  UNL1        0.0574
     21 CL        -23.8120   -6.6569  -17.8110 Cl      1  UNL1       -0.0823
     22 C         -23.6270   -7.4077  -15.1867 C.ar    1  UNL1        0.0087
     23 C         -23.9673   -9.9071  -11.1028 C.3     1  UNL1        0.1207
     24 C         -22.5022  -10.2224  -10.9372 C.ar    1  UNL1       -0.0021
     25 C         -21.6380   -9.2818  -10.3564 C.ar    1  UNL1       -0.0026
     26 C         -20.2717   -9.5489  -10.2564 C.ar    1  UNL1       -0.0001
     27 C         -19.7537  -10.7537  -10.7372 C.ar    1  UNL1        0.0064
     28 C         -20.6022  -11.7101  -11.3200 C.ar    1  UNL1        0.0752
     29 C         -21.9788  -11.4360  -11.4120 C.ar    1  UNL1        0.0038
     30 C         -20.0511  -12.9843  -11.8323 C.2     1  UNL1        0.3380
     31 O         -20.4724  -13.4735  -12.9154 O.2     1  UNL1       -0.2451
     32 O         -19.0594  -13.6559  -11.1219 O.3     1  UNL1       -0.4771
     33 H         -18.6746  -14.5282  -11.4643 H       1  UNL1        0.2954
@<TRIPOS>BOND
     1    14    15    1
     2    15    16    1
     3    16    17   ar
     4    17    18   ar
     5    18    19   ar
     6    19    20   ar
     7    20    21    1
     8    20    22   ar
     9    15     1    1
    10     1    23    1
    11    23    24    1
    12    24    25   ar
    13    25    26   ar
    14    26    27   ar
    15    27    28   ar
    16    28    30    1
    17    30    31    2
    18    30    32    1
    19    28    29   ar
    20     1     2   am
    21     2     3    2
    22     2     4    1
    23     4     5   ar
    24     5     6   ar
    25     6     7   ar
    26     7     8   ar
    27     8     9   ar
    28     9    10   ar
    29    10    11   ar
    30    11    12   ar
    31    12    13   ar
    32    22    16   ar
    33    29    24   ar
    34    13     4   ar
    35    12     7   ar
    36    32    33    1
@<TRIPOS>MOLECULE
*****
 33 36 0 0 0
SMALL
GASTEIGER

@<TRIPOS>ATOM
      1 N         -22.0835   -8.4030  -12.9801 N.am    1  UNL1       -0.2698
      2 C         -22.1974   -9.6390  -12.2496 C.2     1  UNL1        0.2510
      3 O         -22.0252   -9.6335  -11.0004 O.2     1  UNL1       -0.2698
      4 C         -22.5112  -10.9125  -12.9344 C.ar    1  UNL1        0.0727
      5 C         -21.4871  -11.8202  -13.2507 C.ar    1  UNL1        0.1033
      6 N         -21.7740  -12.9903  -13.8805 N.ar    1  UNL1       -0.2437
      7 C         -23.0462  -13.3302  -14.2165 C.ar    1  UNL1        0.0813
      8 C         -23.3021  -14.5437  -14.8652 C.ar    1  UNL1        0.0191
      9 C         -24.6131  -14.8921  -15.2051 C.ar    1  UNL1        0.0015
     10 C         -25.6718  -14.0311  -14.8979 C.ar    1  UNL1        0.0001
     11 C         -25.4257  -12.8164  -14.2495 C.ar    1  UNL1        0.0015
     12 C         -24.1128  -12.4587  -13.9068 C.ar    1  UNL1        0.0178
     13 C         -23.8347  -11.2498  -13.2579 C.ar    1  UNL1        0.0076
     14 C         -22.2929   -6.6455  -11.2541 C.3     1  UNL1        0.0264
     15 C         -22.8807   -7.2426  -12.5412 C.3     1  UNL1        0.0985
     16 C         -24.3563   -7.6008  -12.4596 C.ar    1  UNL1       -0.0034
     17 C         -25.2086   -7.5839  -13.5841 C.ar    1  UNL1       -0.0026
     18 C         -26.5695   -7.8719  -13.4450 C.ar    1  UNL1        0.0006
     19 C         -27.1009   -8.1648  -12.1877 C.ar    1  UNL1        0.0114
     20 C         -26.2720   -8.1699  -11.0632 C.ar    1  UNL1        0.0574
     21 CL        -26.9455   -8.5068   -9.4795 Cl      1  UNL1       -0.0823
     22 C         -24.9081   -7.8906  -11.1982 C.ar    1  UNL1        0.0087
     23 C         -21.1670   -8.3152  -14.1321 C.3     1  UNL1        0.1207
     24 C         -21.8981   -8.6131  -15.4167 C.ar    1  UNL1       -0.0021
     25 C         -22.4909   -7.5738  -16.1498 C.ar    1  UNL1       -0.0026
     26 C         -23.2181   -7.8551  -17.3075 C.ar    1  UNL1       -0.0001
     27 C         -23.3641   -9.1742  -17.7432 C.ar    1  UNL1        0.0064
     28 C         -22.7762  -10.2292  -17.0250 C.ar    1  UNL1        0.0752
     29 C         -22.0402   -9.9372  -15.8625 C.ar    1  UNL1        0.0038
     30 C         -22.9352  -11.6263  -17.4860 C.2     1  UNL1        0.3380
     31 O         -21.9234  -12.3360  -17.7362 O.2     1  UNL1       -0.2451
     32 O         -24.2062  -12.1717  -17.6474 O.3     1  UNL1       -0.4771
     33 H         -24.3261  -13.1273  -17.9614 H       1  UNL1        0.2954
@<TRIPOS>BOND
     1    14    15    1
     2    15    16    1
     3    16    17   ar
     4    17    18   ar
     5    18    19   ar
     6    19    20   ar
     7    20    21    1
     8    20    22   ar
     9    15     1    1
    10     1    23    1
    11    23    24    1
    12    24    25   ar
    13    25    26   ar
    14    26    27   ar
    15    27    28   ar
    16    28    30    1
    17    30    31    2
    18    30    32    1
    19    28    29   ar
    20     1     2   am
    21     2     3    2
    22     2     4    1
    23     4     5   ar
    24     5     6   ar
    25     6     7   ar
    26     7     8   ar
    27     8     9   ar
    28     9    10   ar
    29    10    11   ar
    30    11    12   ar
    31    12    13   ar
    32    22    16   ar
    33    29    24   ar
    34    13     4   ar
    35    12     7   ar
    36    32    33    1
@<TRIPOS>MOLECULE
*****
 33 36 0 0 0
SMALL
GASTEIGER

@<TRIPOS>ATOM
      1 N         -22.9794  -11.6927  -14.4240 N.am    1  UNL1       -0.2698
      2 C         -21.7309  -11.6781  -13.7062 C.2     1  UNL1        0.2510
      3 O         -20.7915  -12.4265  -14.0905 O.2     1  UNL1       -0.2698
      4 C         -21.5291  -10.8045  -12.5292 C.ar    1  UNL1        0.0727
      5 C         -21.2417  -11.3613  -11.2722 C.ar    1  UNL1        0.1033
      6 N         -21.0568  -10.5599  -10.1898 N.ar    1  UNL1       -0.2437
      7 C         -21.1313   -9.2059  -10.2795 C.ar    1  UNL1        0.0813
      8 C         -20.9358   -8.4138   -9.1423 C.ar    1  UNL1        0.0191
      9 C         -21.0086   -7.0205   -9.2396 C.ar    1  UNL1        0.0015
     10 C         -21.2758   -6.4145  -10.4716 C.ar    1  UNL1        0.0001
     11 C         -21.4723   -7.1980  -11.6135 C.ar    1  UNL1        0.0015
     12 C         -21.4027   -8.5967  -11.5239 C.ar    1  UNL1        0.0178
     13 C         -21.5953   -9.4076  -12.6486 C.ar    1  UNL1        0.0076
     14 C         -22.3036  -12.6736  -16.5903 C.3     1  UNL1        0.0264
     15 C         -22.9622  -11.4800  -15.8832 C.3     1  UNL1        0.0985
     16 C         -22.3587  -10.1267  -16.2246 C.ar    1  UNL1       -0.0034
     17 C         -20.9718   -9.8732  -16.1658 C.ar    1  UNL1       -0.0026
     18 C         -20.4735   -8.5962  -16.4401 C.ar    1  UNL1        0.0006
     19 C         -21.3465   -7.5552  -16.7608 C.ar    1  UNL1        0.0114
     20 C         -22.7232   -7.7876  -16.8075 C.ar    1  UNL1        0.0574
     21 CL        -23.8220   -6.4724  -17.1794 Cl      1  UNL1       -0.0823
     22 C         -23.2263   -9.0655  -16.5420 C.ar    1  UNL1        0.0087
     23 C         -24.2391  -11.9358  -13.6969 C.3     1  UNL1        0.1207
     24 C         -24.6020  -10.7428  -12.8491 C.ar    1  UNL1       -0.0021
     25 C         -24.8677   -9.5031  -13.4502 C.ar    1  UNL1       -0.0026
     26 C         -25.1457   -8.3845  -12.6632 C.ar    1  UNL1       -0.0001
     27 C         -25.1581   -8.4901  -11.2703 C.ar    1  UNL1        0.0064
     28 C         -24.8973   -9.7229  -10.6486 C.ar    1  UNL1        0.0752
     29 C         -24.6235  -10.8469  -11.4488 C.ar    1  UNL1        0.0038
     30 C         -24.9071   -9.8321   -9.1729 C.2     1  UNL1        0.3380
     31 O         -25.4849  -10.7996   -8.6073 O.2     1  UNL1       -0.2451
     32 O         -24.2764   -8.8657   -8.3936 O.3     1  UNL1       -0.4771
     33 H         -24.2764   -8.9314   -7.3827 H       1  UNL1        0.2954
@<TRIPOS>BOND
     1    14    15    1
     2    15    16    1
     3    16    17   ar
     4    17    18   ar
     5    18    19   ar
     6    19    20   ar
     7    20    21    1
     8    20    22   ar
     9    15     1    1
    10     1    23    1
    11    23    24    1
    12    24    25   ar
    13    25    26   ar
    14    26    27   ar
    15    27    28   ar
    16    28    30    1
    17    30    31    2
    18    30    32    1
    19    28    29   ar
    20     1     2   am
    21     2     3    2
    22     2     4    1
    23     4     5   ar
    24     5     6   ar
    25     6     7   ar
    26     7     8   ar
    27     8     9   ar
    28     9    10   ar
    29    10    11   ar
    30    11    12   ar
    31    12    13   ar
    32    22    16   ar
    33    29    24   ar
    34    13     4   ar
    35    12     7   ar
    36    32    33    1
@<TRIPOS>MOLECULE
*****
 33 36 0 0 0
SMALL
GASTEIGER

@<TRIPOS>ATOM
      1 N         -21.1397   -8.9665  -10.8966 N.am    1  UNL1       -0.2698
      2 C         -19.7245   -8.9281  -10.6322 C.2     1  UNL1        0.2510
      3 O         -18.9379   -8.5568  -11.5452 O.2     1  UNL1       -0.2698
      4 C         -19.1763   -9.3152   -9.3135 C.ar    1  UNL1        0.0727
      5 C         -18.2581  -10.3728   -9.2086 C.ar    1  UNL1        0.1033
      6 N         -17.7541  -10.7300   -7.9977 N.ar    1  UNL1       -0.2437
      7 C         -18.1050  -10.0817   -6.8559 C.ar    1  UNL1        0.0813
      8 C         -17.5654  -10.4790   -5.6271 C.ar    1  UNL1        0.0191
      9 C         -17.9253   -9.8063   -4.4551 C.ar    1  UNL1        0.0015
     10 C         -18.8236   -8.7353   -4.5063 C.ar    1  UNL1        0.0001
     11 C         -19.3677   -8.3310   -5.7298 C.ar    1  UNL1        0.0015
     12 C         -19.0131   -9.0020   -6.9101 C.ar    1  UNL1        0.0178
     13 C         -19.5411   -8.6210   -8.1494 C.ar    1  UNL1        0.0076
     14 C         -22.9233   -7.3040  -10.4884 C.3     1  UNL1        0.0264
     15 C         -21.7961   -7.7575  -11.4277 C.3     1  UNL1        0.0985
     16 C         -22.2179   -7.9632  -12.8741 C.ar    1  UNL1       -0.0034
     17 C         -23.5516   -8.2317  -13.2489 C.ar    1  UNL1       -0.0026
     18 C         -23.8771   -8.4641  -14.5884 C.ar    1  UNL1        0.0006
     19 C         -22.8814   -8.4470  -15.5668 C.ar    1  UNL1        0.0114
     20 C         -21.5544   -8.1980  -15.2083 C.ar    1  UNL1        0.0574
     21 CL        -20.2991   -8.2078  -16.4328 Cl      1  UNL1       -0.0823
     22 C         -21.2246   -7.9567  -13.8706 C.ar    1  UNL1        0.0087
     23 C         -21.8969  -10.2078  -10.6509 C.3     1  UNL1        0.1207
     24 C         -21.4543  -11.2962  -11.5959 C.ar    1  UNL1       -0.0021
     25 C         -20.5013  -12.2419  -11.1881 C.ar    1  UNL1       -0.0026
     26 C         -20.0473  -13.2137  -12.0811 C.ar    1  UNL1       -0.0001
     27 C         -20.5360  -13.2500  -13.3892 C.ar    1  UNL1        0.0064
     28 C         -21.4926  -12.3138  -13.8168 C.ar    1  UNL1        0.0752
     29 C         -21.9494  -11.3410  -12.9093 C.ar    1  UNL1        0.0038
     30 C         -22.0064  -12.3514  -15.2040 C.2     1  UNL1        0.3380
     31 O         -21.5823  -11.5339  -16.0652 O.2     1  UNL1       -0.2451
     32 O         -22.9645  -13.2925  -15.5722 O.3     1  UNL1       -0.4771
     33 H         -23.3221  -13.3275  -16.5194 H       1  UNL1        0.2954
@<TRIPOS>BOND
     1    14    15    1
     2    15    16    1
     3    16    17   ar
     4    17    18   ar
     5    18    19   ar
     6    19    20   ar
     7    20    21    1
     8    20    22   ar
     9    15     1    1
    10     1    23    1
    11    23    24    1
    12    24    25   ar
    13    25    26   ar
    14    26    27   ar
    15    27    28   ar
    16    28    30    1
    17    30    31    2
    18    30    32    1
    19    28    29   ar
    20     1     2   am
    21     2     3    2
    22     2     4    1
    23     4     5   ar
    24     5     6   ar
    25     6     7   ar
    26     7     8   ar
    27     8     9   ar
    28     9    10   ar
    29    10    11   ar
    30    11    12   ar
    31    12    13   ar
    32    22    16   ar
    33    29    24   ar
    34    13     4   ar
    35    12     7   ar
    36    32    33    1
@<TRIPOS>MOLECULE
*****
 33 36 0 0 0
SMALL
GASTEIGER

@<TRIPOS>ATOM
      1 N         -22.2939   -8.2455  -13.3739 N.am    1  UNL1       -0.2698
      2 C         -22.3100   -9.4653  -12.6085 C.2     1  UNL1        0.2510
      3 O         -22.0438   -9.4223  -11.3766 O.2     1  UNL1       -0.2698
      4 C         -22.6317  -10.7653  -13.2375 C.ar    1  UNL1        0.0727
      5 C         -21.6043  -11.6448  -13.6165 C.ar    1  UNL1        0.1033
      6 N         -21.8984  -12.8392  -14.1952 N.ar    1  UNL1       -0.2437
      7 C         -23.1804  -13.2308  -14.4189 C.ar    1  UNL1        0.0813
      8 C         -23.4437  -14.4680  -15.0180 C.ar    1  UNL1        0.0191
      9 C         -24.7644  -14.8695  -15.2422 C.ar    1  UNL1        0.0015
     10 C         -25.8254  -14.0381  -14.8684 C.ar    1  UNL1        0.0001
     11 C         -25.5719  -12.8001  -14.2688 C.ar    1  UNL1        0.0015
     12 C         -24.2495  -12.3891  -14.0422 C.ar    1  UNL1        0.0178
     13 C         -23.9640  -11.1558  -13.4446 C.ar    1  UNL1        0.0076
     14 C         -22.4309   -6.4520  -11.6779 C.3     1  UNL1        0.0264
     15 C         -23.0942   -7.1003  -12.9020 C.3     1  UNL1        0.0985
     16 C         -24.5464   -7.5032  -12.6993 C.ar    1  UNL1       -0.0034
     17 C         -25.4938   -7.4935  -13.7450 C.ar    1  UNL1       -0.0026
     18 C         -26.8287   -7.8239  -13.4935 C.ar    1  UNL1        0.0006
     19 C         -27.2398   -8.1523  -12.2005 C.ar    1  UNL1        0.0114
     20 C         -26.3162   -8.1508  -11.1525 C.ar    1  UNL1        0.0574
     21 CL        -26.8391   -8.5328   -9.5228 Cl      1  UNL1       -0.0823
     22 C         -24.9776   -7.8292  -11.4002 C.ar    1  UNL1        0.0087
     23 C         -21.4711   -8.1579  -14.5946 C.3     1  UNL1        0.1207
     24 C         -22.3310   -8.2922  -15.8258 C.ar    1  UNL1       -0.0021
     25 C         -22.4507   -9.5317  -16.4726 C.ar    1  UNL1       -0.0026
     26 C         -23.1986   -9.6442  -17.6456 C.ar    1  UNL1       -0.0001
     27 C         -23.8311   -8.5223  -18.1866 C.ar    1  UNL1        0.0064
     28 C         -23.7260   -7.2725  -17.5532 C.ar    1  UNL1        0.0752
     29 C         -22.9751   -7.1684  -16.3684 C.ar    1  UNL1        0.0038
     30 C         -24.3935   -6.0844  -18.1299 C.2     1  UNL1        0.3380
     31 O         -24.9130   -5.2153  -17.3785 O.2     1  UNL1       -0.2451
     32 O         -24.4535   -5.9143  -19.5107 O.3     1  UNL1       -0.4771
     33 H         -24.9072   -5.1041  -19.9157 H       1  UNL1        0.2954
@<TRIPOS>BOND
     1    14    15    1
     2    15    16    1
     3    16    17   ar
     4    17    18   ar
     5    18    19   ar
     6    19    20   ar
     7    20    21    1
     8    20    22   ar
     9    15     1    1
    10     1    23    1
    11    23    24    1
    12    24    25   ar
    13    25    26   ar
    14    26    27   ar
    15    27    28   ar
    16    28    30    1
    17    30    31    2
    18    30    32    1
    19    28    29   ar
    20     1     2   am
    21     2     3    2
    22     2     4    1
    23     4     5   ar
    24     5     6   ar
    25     6     7   ar
    26     7     8   ar
    27     8     9   ar
    28     9    10   ar
    29    10    11   ar
    30    11    12   ar
    31    12    13   ar
    32    22    16   ar
    33    29    24   ar
    34    13     4   ar
    35    12     7   ar
    36    32    33    1
@<TRIPOS>MOLECULE
*****
 33 36 0 0 0
SMALL
GASTEIGER

@<TRIPOS>ATOM
      1 N         -22.6047   -8.9428  -12.3928 N.am    1  UNL1       -0.2698
      2 C         -23.2008  -10.1774  -11.9516 C.2     1  UNL1        0.2510
      3 O         -23.2825  -10.4140  -10.7157 O.2     1  UNL1       -0.2698
      4 C         -23.7177  -11.1717  -12.9178 C.ar    1  UNL1        0.0727
      5 C         -24.9683  -10.9846  -13.5292 C.ar    1  UNL1        0.1033
      6 N         -25.4447  -11.8976  -14.4165 N.ar    1  UNL1       -0.2437
      7 C         -24.7370  -13.0083  -14.7516 C.ar    1  UNL1        0.0813
      8 C         -25.2613  -13.9264  -15.6688 C.ar    1  UNL1        0.0191
      9 C         -24.5278  -15.0658  -16.0147 C.ar    1  UNL1        0.0015
     10 C         -23.2695  -15.2914  -15.4471 C.ar    1  UNL1        0.0001
     11 C         -22.7374  -14.3793  -14.5298 C.ar    1  UNL1        0.0015
     12 C         -23.4678  -13.2346  -14.1760 C.ar    1  UNL1        0.0178
     13 C         -22.9622  -12.3038  -13.2607 C.ar    1  UNL1        0.0076
     14 C         -22.7657   -7.5527  -10.3548 C.3     1  UNL1        0.0264
     15 C         -23.1153   -7.6722  -11.8454 C.3     1  UNL1        0.0985
     16 C         -24.5913   -7.4996  -12.1680 C.ar    1  UNL1       -0.0034
     17 C         -25.6119   -8.1508  -11.4431 C.ar    1  UNL1       -0.0026
     18 C         -26.9511   -7.9981  -11.8138 C.ar    1  UNL1        0.0006
     19 C         -27.2899   -7.2106  -12.9155 C.ar    1  UNL1        0.0114
     20 C         -26.2890   -6.5725  -13.6521 C.ar    1  UNL1        0.0574
     21 CL        -26.7123   -5.6089  -15.0548 Cl      1  UNL1       -0.0823
     22 C         -24.9481   -6.7152  -13.2804 C.ar    1  UNL1        0.0087
     23 C         -21.4929   -8.9715  -13.3611 C.3     1  UNL1        0.1207
     24 C         -22.0191   -8.9936  -14.7740 C.ar    1  UNL1       -0.0021
     25 C         -22.5085   -7.8185  -15.3643 C.ar    1  UNL1       -0.0026
     26 C         -23.0501   -7.8497  -16.6503 C.ar    1  UNL1       -0.0001
     27 C         -23.1122   -9.0523  -17.3582 C.ar    1  UNL1        0.0064
     28 C         -22.6252  -10.2398  -16.7862 C.ar    1  UNL1        0.0752
     29 C         -22.0758  -10.1991  -15.4920 C.ar    1  UNL1        0.0038
     30 C         -22.6953  -11.5135  -17.5361 C.2     1  UNL1        0.3380
     31 O         -21.9676  -12.4895  -17.2079 O.2     1  UNL1       -0.2451
     32 O         -23.5680  -11.6467  -18.6131 O.3     1  UNL1       -0.4771
     33 H         -23.6246  -12.5146  -19.1325 H       1  UNL1        0.2954
@<TRIPOS>BOND
     1    14    15    1
     2    15    16    1
     3    16    17   ar
     4    17    18   ar
     5    18    19   ar
     6    19    20   ar
     7    20    21    1
     8    20    22   ar
     9    15     1    1
    10     1    23    1
    11    23    24    1
    12    24    25   ar
    13    25    26   ar
    14    26    27   ar
    15    27    28   ar
    16    28    30    1
    17    30    31    2
    18    30    32    1
    19    28    29   ar
    20     1     2   am
    21     2     3    2
    22     2     4    1
    23     4     5   ar
    24     5     6   ar
    25     6     7   ar
    26     7     8   ar
    27     8     9   ar
    28     9    10   ar
    29    10    11   ar
    30    11    12   ar
    31    12    13   ar
    32    22    16   ar
    33    29    24   ar
    34    13     4   ar
    35    12     7   ar
    36    32    33    1
@<TRIPOS>MOLECULE
*****
 33 36 0 0 0
SMALL
GASTEIGER

@<TRIPOS>ATOM
      1 N         -23.5198   -9.1862  -12.3794 N.am    1  UNL1       -0.2698
      2 C         -24.1160  -10.4622  -12.0785 C.2     1  UNL1        0.2510
      3 O         -24.4487  -10.7209  -10.8900 O.2     1  UNL1       -0.2698
      4 C         -24.3448  -11.4737  -13.1339 C.ar    1  UNL1        0.0727
      5 C         -25.4605  -11.3760  -13.9816 C.ar    1  UNL1        0.1033
      6 N         -25.6724  -12.3048  -14.9512 N.ar    1  UNL1       -0.2437
      7 C         -24.8207  -13.3461  -15.1446 C.ar    1  UNL1        0.0813
      8 C         -25.0729  -14.2832  -16.1530 C.ar    1  UNL1        0.0191
      9 C         -24.1915  -15.3507  -16.3520 C.ar    1  UNL1        0.0015
     10 C         -23.0563  -15.4852  -15.5459 C.ar    1  UNL1        0.0001
     11 C         -22.7960  -14.5533  -14.5358 C.ar    1  UNL1        0.0015
     12 C         -23.6764  -13.4805  -14.3285 C.ar    1  UNL1        0.0178
     13 C         -23.4432  -12.5321  -13.3255 C.ar    1  UNL1        0.0076
     14 C         -25.0681   -7.4021  -13.1087 C.3     1  UNL1        0.0264
     15 C         -24.2187   -7.9584  -11.9565 C.3     1  UNL1        0.0985
     16 C         -23.2425   -6.9635  -11.3485 C.ar    1  UNL1       -0.0034
     17 C         -23.1194   -5.6359  -11.8105 C.ar    1  UNL1       -0.0026
     18 C         -22.1695   -4.7768  -11.2504 C.ar    1  UNL1        0.0006
     19 C         -21.3227   -5.2302  -10.2373 C.ar    1  UNL1        0.0114
     20 C         -21.4226   -6.5466   -9.7807 C.ar    1  UNL1        0.0574
     21 CL        -20.3378   -7.1252   -8.5302 Cl      1  UNL1       -0.0823
     22 C         -22.3770   -7.4078  -10.3320 C.ar    1  UNL1        0.0087
     23 C         -22.2247   -9.1307  -13.0824 C.3     1  UNL1        0.1207
     24 C         -22.4321   -9.0723  -14.5747 C.ar    1  UNL1       -0.0021
     25 C         -22.6687   -7.8427  -15.2078 C.ar    1  UNL1       -0.0026
     26 C         -22.9194   -7.7943  -16.5800 C.ar    1  UNL1       -0.0001
     27 C         -22.9400   -8.9707  -17.3330 C.ar    1  UNL1        0.0064
     28 C         -22.7030  -10.2120  -16.7188 C.ar    1  UNL1        0.0752
     29 C         -22.4456  -10.2520  -15.3365 C.ar    1  UNL1        0.0038
     30 C         -22.7291  -11.4576  -17.5174 C.2     1  UNL1        0.3380
     31 O         -22.0235  -12.4471  -17.1816 O.2     1  UNL1       -0.2451
     32 O         -23.5354  -11.5488  -18.6491 O.3     1  UNL1       -0.4771
     33 H         -23.5615  -12.3971  -19.2022 H       1  UNL1        0.2954
@<TRIPOS>BOND
     1    14    15    1
     2    15    16    1
     3    16    17   ar
     4    17    18   ar
     5    18    19   ar
     6    19    20   ar
     7    20    21    1
     8    20    22   ar
     9    15     1    1
    10     1    23    1
    11    23    24    1
    12    24    25   ar
    13    25    26   ar
    14    26    27   ar
    15    27    28   ar
    16    28    30    1
    17    30    31    2
    18    30    32    1
    19    28    29   ar
    20     1     2   am
    21     2     3    2
    22     2     4    1
    23     4     5   ar
    24     5     6   ar
    25     6     7   ar
    26     7     8   ar
    27     8     9   ar
    28     9    10   ar
    29    10    11   ar
    30    11    12   ar
    31    12    13   ar
    32    22    16   ar
    33    29    24   ar
    34    13     4   ar
    35    12     7   ar
    36    32    33    1
@<TRIPOS>MOLECULE
*****
 33 36 0 0 0
SMALL
GASTEIGER

@<TRIPOS>ATOM
      1 N         -24.8892   -9.0577  -11.9679 N.am    1  UNL1       -0.2698
      2 C         -25.3523   -9.6566  -13.1931 C.2     1  UNL1        0.2510
      3 O         -26.4588   -9.2926  -13.6761 O.2     1  UNL1       -0.2698
      4 C         -24.5573  -10.6887  -13.8946 C.ar    1  UNL1        0.0727
      5 C         -23.4007  -10.3319  -14.6072 C.ar    1  UNL1        0.1033
      6 N         -22.6698  -11.2789  -15.2527 N.ar    1  UNL1       -0.2437
      7 C         -23.0168  -12.5926  -15.2277 C.ar    1  UNL1        0.0813
      8 C         -22.2394  -13.5386  -15.9056 C.ar    1  UNL1        0.0191
      9 C         -22.5972  -14.8902  -15.8735 C.ar    1  UNL1        0.0015
     10 C         -23.7308  -15.3011  -15.1646 C.ar    1  UNL1        0.0001
     11 C         -24.5137  -14.3628  -14.4839 C.ar    1  UNL1        0.0015
     12 C         -24.1625  -13.0045  -14.5128 C.ar    1  UNL1        0.0178
     13 C         -24.9261  -12.0419  -13.8420 C.ar    1  UNL1        0.0076
     14 C         -25.7790   -6.9445  -12.8921 C.3     1  UNL1        0.0264
     15 C         -24.8226   -7.5874  -11.8770 C.3     1  UNL1        0.0985
     16 C         -23.3830   -7.1055  -11.9664 C.ar    1  UNL1       -0.0034
     17 C         -22.4807   -7.5751  -12.9443 C.ar    1  UNL1       -0.0026
     18 C         -21.1529   -7.1378  -12.9504 C.ar    1  UNL1        0.0006
     19 C         -20.7036   -6.2424  -11.9783 C.ar    1  UNL1        0.0114
     20 C         -21.5816   -5.7810  -10.9945 C.ar    1  UNL1        0.0574
     21 CL        -21.0090   -4.6808   -9.7548 Cl      1  UNL1       -0.0823
     22 C         -22.9133   -6.2090  -10.9889 C.ar    1  UNL1        0.0087
     23 C         -24.5107   -9.9166  -10.8305 C.3     1  UNL1        0.1207
     24 C         -23.0107   -9.9932  -10.6984 C.ar    1  UNL1       -0.0021
     25 C         -22.2742  -10.8741  -11.5049 C.ar    1  UNL1       -0.0026
     26 C         -20.8927  -10.9887  -11.3427 C.ar    1  UNL1       -0.0001
     27 C         -20.2331  -10.2293  -10.3734 C.ar    1  UNL1        0.0064
     28 C         -20.9516   -9.3393   -9.5572 C.ar    1  UNL1        0.0752
     29 C         -22.3428   -9.2254   -9.7306 C.ar    1  UNL1        0.0038
     30 C         -20.2517   -8.5386   -8.5284 C.2     1  UNL1        0.3380
     31 O         -20.8602   -7.6278   -7.9039 O.2     1  UNL1       -0.2451
     32 O         -18.9120   -8.7844   -8.2391 O.3     1  UNL1       -0.4771
     33 H         -18.4237   -8.2428   -7.5359 H       1  UNL1        0.2954
@<TRIPOS>BOND
     1    14    15    1
     2    15    16    1
     3    16    17   ar
     4    17    18   ar
     5    18    19   ar
     6    19    20   ar
     7    20    21    1
     8    20    22   ar
     9    15     1    1
    10     1    23    1
    11    23    24    1
    12    24    25   ar
    13    25    26   ar
    14    26    27   ar
    15    27    28   ar
    16    28    30    1
    17    30    31    2
    18    30    32    1
    19    28    29   ar
    20     1     2   am
    21     2     3    2
    22     2     4    1
    23     4     5   ar
    24     5     6   ar
    25     6     7   ar
    26     7     8   ar
    27     8     9   ar
    28     9    10   ar
    29    10    11   ar
    30    11    12   ar
    31    12    13   ar
    32    22    16   ar
    33    29    24   ar
    34    13     4   ar
    35    12     7   ar
    36    32    33    1
