@<TRIPOS>MOLECULE
*****
 47 52 0 0 0
SMALL
GASTEIGER

@<TRIPOS>ATOM
      1 C          61.1531   86.8009   10.7421 C.ar    1  UNL1        0.0401
      2 C          60.8764   87.4368    9.5228 C.ar    1  UNL1        0.0172
      3 C          60.4950   86.6890    8.3982 C.ar    1  UNL1        0.0699
      4 C          60.4340   85.2962    8.5108 C.ar    1  UNL1        0.1149
      5 N          60.7167   84.6908    9.6927 N.ar    1  UNL1       -0.2281
      6 C          61.0733   85.3930   10.8014 C.ar    1  UNL1        0.1300
      7 N          61.3780   84.6759   12.0039 N.pl3   1  UNL1       -0.2934
      8 C          62.7575   84.2630   12.2826 C.3     1  UNL1        0.0923
      9 C          62.8365   82.7469   12.5276 C.3     1  UNL1        0.0252
     10 C          61.5975   82.1647   13.2653 C.3     1  UNL1        0.0472
     11 C          60.7573   83.2653   13.9436 C.3     1  UNL1        0.0252
     12 C          60.2833   84.2813   12.8972 C.3     1  UNL1        0.0923
     13 C          62.0216   81.0870   14.2827 C.3     1  UNL1        0.2054
     14 O          61.4342   79.8215   13.9742 O.3     1  UNL1       -0.4755
     15 C          60.4889   79.5819   12.9630 C.ar    1  UNL1        0.1388
     16 C          59.3676   78.8092   13.2827 C.ar    1  UNL1        0.0369
     17 C          58.3935   78.5404   12.3202 C.ar    1  UNL1        0.0033
     18 C          58.5307   79.0402   11.0239 C.ar    1  UNL1        0.0066
     19 C          59.6509   79.8150   10.6759 C.ar    1  UNL1        0.0785
     20 C          60.6297   80.0796   11.6514 C.ar    1  UNL1        0.0433
     21 C          59.8013   80.3463    9.3026 C.2     1  UNL1        0.3381
     22 O          60.4761   79.7158    8.4441 O.2     1  UNL1       -0.2451
     23 O          59.1973   81.5491    8.9444 O.3     1  UNL1       -0.4771
     24 H          59.2936   81.9209    8.0071 H       1  UNL1        0.2954
     25 N          60.2189   87.3143    7.1332 N.am    1  UNL1       -0.2767
     26 C          59.8545   88.6952    6.9896 C.2     1  UNL1        0.2839
     27 O          59.2976   89.3021    7.9438 O.2     1  UNL1       -0.2665
     28 H          60.1711   86.7073    6.2845 H       1  UNL1        0.1553
     29 C          60.0437   89.4050    5.7123 C.ar    1  UNL1        0.1946
     30 O          61.2372   89.5913    5.1764 O.2     1  UNL1       -0.4492
     31 C          61.0776   90.2568    4.0587 C.ar    1  UNL1        0.1452
     32 C          62.0665   90.6762    3.1756 C.ar    1  UNL1        0.0375
     33 C          61.6695   91.3868    2.0293 C.ar    1  UNL1        0.0031
     34 C          60.2976   91.6662    1.7837 C.ar    1  UNL1        0.0002
     35 C          59.3229   91.2191    2.7077 C.ar    1  UNL1        0.0028
     36 C          59.7532   90.5166    3.8336 C.ar    1  UNL1        0.0337
     37 C          59.0568   89.9593    4.8876 C.ar    1  UNL1        0.0202
     38 C          57.5702   89.9568    5.0794 C.3     1  UNL1        0.0345
     39 C          59.8899   92.4187    0.5702 C.ar    1  UNL1        0.0000
     40 C          58.5283   92.5687    0.2448 C.ar    1  UNL1        0.0000
     41 C          58.1472   93.2779   -0.8984 C.ar    1  UNL1        0.0000
     42 C          59.1175   93.8452   -1.7273 C.ar    1  UNL1        0.0000
     43 C          60.4713   93.7040   -1.4151 C.ar    1  UNL1        0.0000
     44 C          60.8584   92.9951   -0.2738 C.ar    1  UNL1        0.0000
     45 C          61.5074   87.6441   11.9463 C.3     1  UNL1        0.1715
     46 C          63.2742   88.6267   13.0793 C.3     1  UNL1        0.1746
     47 O          62.8932   87.5713   12.2229 O.3     1  UNL1       -0.3462
@<TRIPOS>BOND
     1    46    47    1
     2    47    45    1
     3    45     1    1
     4     1     2   ar
     5     2     3   ar
     6     3    25    1
     7    25    26   am
     8    26    27    2
     9    26    29    1
    10    29    30   ar
    11    30    31   ar
    12    31    32   ar
    13    32    33   ar
    14    33    34   ar
    15    34    39    1
    16    39    40   ar
    17    40    41   ar
    18    41    42   ar
    19    42    43   ar
    20    43    44   ar
    21    34    35   ar
    22    35    36   ar
    23    36    37   ar
    24    37    38    1
    25     3     4   ar
    26     4     5   ar
    27     5     6   ar
    28     6     7    1
    29     7     8    1
    30     8     9    1
    31     9    10    1
    32    10    13    1
    33    13    14    1
    34    14    15    1
    35    15    16   ar
    36    16    17   ar
    37    17    18   ar
    38    18    19   ar
    39    19    21    1
    40    21    22    2
    41    21    23    1
    42    19    20   ar
    43    10    11    1
    44    11    12    1
    45     6     1   ar
    46    12     7    1
    47    37    29   ar
    48    20    15   ar
    49    36    31   ar
    50    44    39   ar
    51    25    28    1
    52    23    24    1
@<TRIPOS>MOLECULE
*****
 47 52 0 0 0
SMALL
GASTEIGER

@<TRIPOS>ATOM
      1 C          60.7030   87.2474    9.8963 C.ar    1  UNL1        0.0401
      2 C          60.7738   87.8345    8.6243 C.ar    1  UNL1        0.0172
      3 C          59.9623   87.3704    7.5778 C.ar    1  UNL1        0.0699
      4 C          59.1112   86.2875    7.8216 C.ar    1  UNL1        0.1149
      5 N          59.0607   85.7189    9.0534 N.ar    1  UNL1       -0.2281
      6 C          59.8247   86.1595   10.0886 C.ar    1  UNL1        0.1300
      7 N          59.7285   85.4891   11.3513 N.pl3   1  UNL1       -0.2934
      8 C          58.6657   85.8509   12.2952 C.3     1  UNL1        0.0923
      9 C          59.2557   86.2411   13.6608 C.3     1  UNL1        0.0252
     10 C          60.5174   85.4229   14.0566 C.3     1  UNL1        0.0472
     11 C          60.6686   84.1447   13.2076 C.3     1  UNL1        0.0252
     12 C          60.7576   84.5113   11.7212 C.3     1  UNL1        0.0923
     13 C          60.5042   85.0886   15.5614 C.3     1  UNL1        0.2054
     14 O          61.5406   85.7840   16.2572 O.3     1  UNL1       -0.4755
     15 C          62.3783   86.7686   15.7074 C.ar    1  UNL1        0.1388
     16 C          63.2441   86.3919   14.6753 C.ar    1  UNL1        0.0369
     17 C          64.0974   87.3272   14.0882 C.ar    1  UNL1        0.0033
     18 C          64.0965   88.6519   14.5289 C.ar    1  UNL1        0.0066
     19 C          63.2397   89.0546   15.5681 C.ar    1  UNL1        0.0785
     20 C          62.3840   88.1051   16.1562 C.ar    1  UNL1        0.0433
     21 C          63.2358   90.4578   16.0393 C.2     1  UNL1        0.3381
     22 O          64.2752   91.1655   15.9466 O.2     1  UNL1       -0.2451
     23 O          62.0822   91.0111   16.5894 O.3     1  UNL1       -0.4771
     24 H          62.0690   91.9706   16.9141 H       1  UNL1        0.2954
     25 N          60.0247   87.9453    6.2612 N.am    1  UNL1       -0.2767
     26 C          59.3333   89.1446    5.8820 C.2     1  UNL1        0.2839
     27 O          58.2868   89.4888    6.4945 O.2     1  UNL1       -0.2665
     28 H          60.5070   87.4030    5.5101 H       1  UNL1        0.1553
     29 C          59.7763   89.9480    4.7290 C.ar    1  UNL1        0.1946
     30 O          58.9424   90.6892    4.0207 O.2     1  UNL1       -0.4492
     31 C          59.6293   91.2690    3.0669 C.ar    1  UNL1        0.1452
     32 C          59.1519   92.1290    2.0841 C.ar    1  UNL1        0.0375
     33 C          60.0704   92.6370    1.1488 C.ar    1  UNL1        0.0031
     34 C          61.4450   92.2799    1.2092 C.ar    1  UNL1        0.0002
     35 C          61.8893   91.4028    2.2275 C.ar    1  UNL1        0.0028
     36 C          60.9500   90.9188    3.1385 C.ar    1  UNL1        0.0337
     37 C          61.0757   90.0715    4.2214 C.ar    1  UNL1        0.0202
     38 C          62.3388   89.4410    4.7254 C.3     1  UNL1        0.0345
     39 C          62.4061   92.8215    0.2151 C.ar    1  UNL1        0.0000
     40 C          63.7692   92.9599    0.5393 C.ar    1  UNL1        0.0000
     41 C          64.6721   93.4700   -0.3987 C.ar    1  UNL1        0.0000
     42 C          64.2268   93.8459   -1.6679 C.ar    1  UNL1        0.0000
     43 C          62.8773   93.7129   -2.0019 C.ar    1  UNL1        0.0000
     44 C          61.9697   93.2043   -1.0676 C.ar    1  UNL1        0.0000
     45 C          61.5528   87.8103   11.0133 C.3     1  UNL1        0.1715
     46 C          63.2445   89.3923   10.9329 C.3     1  UNL1        0.1746
     47 O          62.8646   88.0851   10.5596 O.3     1  UNL1       -0.3462
@<TRIPOS>BOND
     1    46    47    1
     2    47    45    1
     3    45     1    1
     4     1     2   ar
     5     2     3   ar
     6     3    25    1
     7    25    26   am
     8    26    27    2
     9    26    29    1
    10    29    30   ar
    11    30    31   ar
    12    31    32   ar
    13    32    33   ar
    14    33    34   ar
    15    34    39    1
    16    39    40   ar
    17    40    41   ar
    18    41    42   ar
    19    42    43   ar
    20    43    44   ar
    21    34    35   ar
    22    35    36   ar
    23    36    37   ar
    24    37    38    1
    25     3     4   ar
    26     4     5   ar
    27     5     6   ar
    28     6     7    1
    29     7     8    1
    30     8     9    1
    31     9    10    1
    32    10    13    1
    33    13    14    1
    34    14    15    1
    35    15    16   ar
    36    16    17   ar
    37    17    18   ar
    38    18    19   ar
    39    19    21    1
    40    21    22    2
    41    21    23    1
    42    19    20   ar
    43    10    11    1
    44    11    12    1
    45     6     1   ar
    46    12     7    1
    47    37    29   ar
    48    20    15   ar
    49    36    31   ar
    50    44    39   ar
    51    25    28    1
    52    23    24    1
@<TRIPOS>MOLECULE
*****
 47 52 0 0 0
SMALL
GASTEIGER

@<TRIPOS>ATOM
      1 C          59.7927   85.4772    8.2117 C.ar    1  UNL1        0.0401
      2 C          60.6782   86.5301    8.4856 C.ar    1  UNL1        0.0172
      3 C          61.8406   86.3074    9.2396 C.ar    1  UNL1        0.0699
      4 C          62.0758   85.0234    9.7419 C.ar    1  UNL1        0.1149
      5 N          61.2050   84.0150    9.4812 N.ar    1  UNL1       -0.2281
      6 C          60.0797   84.2004    8.7404 C.ar    1  UNL1        0.1300
      7 N          59.2005   83.0886    8.5309 N.pl3   1  UNL1       -0.2934
      8 C          57.9089   83.0336    9.2237 C.3     1  UNL1        0.0923
      9 C          57.7715   81.7271   10.0232 C.3     1  UNL1        0.0252
     10 C          58.4341   80.4987    9.3374 C.3     1  UNL1        0.0472
     11 C          58.7256   80.7558    7.8453 C.3     1  UNL1        0.0252
     12 C          59.6498   81.9702    7.6946 C.3     1  UNL1        0.0923
     13 C          57.5699   79.2356    9.5221 C.3     1  UNL1        0.2054
     14 O          57.9463   78.5160   10.6979 O.3     1  UNL1       -0.4755
     15 C          58.9144   78.9215   11.6316 C.ar    1  UNL1        0.1388
     16 C          58.6823   78.6396   12.9819 C.ar    1  UNL1        0.0369
     17 C          59.6098   79.0153   13.9547 C.ar    1  UNL1        0.0033
     18 C          60.7811   79.6806   13.5880 C.ar    1  UNL1        0.0066
     19 C          61.0354   79.9802   12.2382 C.ar    1  UNL1        0.0785
     20 C          60.0943   79.6000   11.2638 C.ar    1  UNL1        0.0433
     21 C          62.2754   80.6862   11.8447 C.2     1  UNL1        0.3381
     22 O          63.2924   80.6541   12.5893 O.2     1  UNL1       -0.2451
     23 O          62.3313   81.3930   10.6459 O.3     1  UNL1       -0.4771
     24 H          63.1753   81.8789   10.3672 H       1  UNL1        0.2954
     25 N          62.7579   87.3715    9.5461 N.am    1  UNL1       -0.2767
     26 C          62.4754   88.4218   10.4828 C.2     1  UNL1        0.2839
     27 O          61.2817   88.7490   10.7211 O.2     1  UNL1       -0.2665
     28 H          63.6299   87.4486    8.9764 H       1  UNL1        0.1553
     29 C          63.5610   89.1896   11.1177 C.ar    1  UNL1        0.1946
     30 O          64.2045   90.1577   10.4891 O.2     1  UNL1       -0.4492
     31 C          65.1103   90.6364   11.3064 C.ar    1  UNL1        0.1452
     32 C          66.0190   91.6588   11.0564 C.ar    1  UNL1        0.0375
     33 C          66.9129   92.0127   12.0822 C.ar    1  UNL1        0.0031
     34 C          66.8857   91.3432   13.3358 C.ar    1  UNL1        0.0002
     35 C          65.9430   90.3090   13.5491 C.ar    1  UNL1        0.0028
     36 C          65.0713   89.9850   12.5091 C.ar    1  UNL1        0.0337
     37 C          64.0609   89.0485   12.4183 C.ar    1  UNL1        0.0202
     38 C          63.6132   88.1046   13.4933 C.3     1  UNL1        0.0345
     39 C          67.8356   91.7244   14.4117 C.ar    1  UNL1        0.0000
     40 C          67.7860   93.0079   14.9885 C.ar    1  UNL1        0.0000
     41 C          68.6816   93.3642   16.0015 C.ar    1  UNL1        0.0000
     42 C          69.6335   92.4462   16.4504 C.ar    1  UNL1        0.0000
     43 C          69.6925   91.1699   15.8868 C.ar    1  UNL1        0.0000
     44 C          68.8001   90.8083   14.8729 C.ar    1  UNL1        0.0000
     45 C          58.5791   85.7436    7.3498 C.3     1  UNL1        0.1715
     46 C          59.1317   87.8480    6.5517 C.3     1  UNL1        0.1746
     47 O          58.2403   87.1173    7.3666 O.3     1  UNL1       -0.3462
@<TRIPOS>BOND
     1    46    47    1
     2    47    45    1
     3    45     1    1
     4     1     2   ar
     5     2     3   ar
     6     3    25    1
     7    25    26   am
     8    26    27    2
     9    26    29    1
    10    29    30   ar
    11    30    31   ar
    12    31    32   ar
    13    32    33   ar
    14    33    34   ar
    15    34    39    1
    16    39    40   ar
    17    40    41   ar
    18    41    42   ar
    19    42    43   ar
    20    43    44   ar
    21    34    35   ar
    22    35    36   ar
    23    36    37   ar
    24    37    38    1
    25     3     4   ar
    26     4     5   ar
    27     5     6   ar
    28     6     7    1
    29     7     8    1
    30     8     9    1
    31     9    10    1
    32    10    13    1
    33    13    14    1
    34    14    15    1
    35    15    16   ar
    36    16    17   ar
    37    17    18   ar
    38    18    19   ar
    39    19    21    1
    40    21    22    2
    41    21    23    1
    42    19    20   ar
    43    10    11    1
    44    11    12    1
    45     6     1   ar
    46    12     7    1
    47    37    29   ar
    48    20    15   ar
    49    36    31   ar
    50    44    39   ar
    51    25    28    1
    52    23    24    1
@<TRIPOS>MOLECULE
*****
 47 52 0 0 0
SMALL
GASTEIGER

@<TRIPOS>ATOM
      1 C          59.7641   85.6089   10.2222 C.ar    1  UNL1        0.0401
      2 C          59.3636   86.3723    9.1157 C.ar    1  UNL1        0.0172
      3 C          60.1965   86.4933    7.9928 C.ar    1  UNL1        0.0699
      4 C          61.4474   85.8679    8.0178 C.ar    1  UNL1        0.1149
      5 N          61.8296   85.1423    9.0997 N.ar    1  UNL1       -0.2281
      6 C          61.0352   84.9963   10.1939 C.ar    1  UNL1        0.1300
      7 N          61.5232   84.2328   11.3039 N.pl3   1  UNL1       -0.2934
      8 C          60.8880   84.3622   12.6196 C.3     1  UNL1        0.0923
      9 C          61.9227   84.7416   13.6922 C.3     1  UNL1        0.0252
     10 C          63.3213   84.0991   13.4705 C.3     1  UNL1        0.0472
     11 C          63.2666   82.9209   12.4773 C.3     1  UNL1        0.0252
     12 C          62.7176   83.3994   11.1278 C.3     1  UNL1        0.0923
     13 C          63.9430   83.6627   14.8119 C.3     1  UNL1        0.2054
     14 O          64.5499   84.7665   15.4867 O.3     1  UNL1       -0.4755
     15 C          64.0447   86.0765   15.5327 C.ar    1  UNL1        0.1388
     16 C          63.0788   86.3738   16.4998 C.ar    1  UNL1        0.0369
     17 C          62.5427   87.6587   16.5954 C.ar    1  UNL1        0.0033
     18 C          62.9653   88.6625   15.7220 C.ar    1  UNL1        0.0066
     19 C          63.9309   88.3880   14.7379 C.ar    1  UNL1        0.0785
     20 C          64.4649   87.0895   14.6466 C.ar    1  UNL1        0.0433
     21 C          64.3815   89.4487   13.8090 C.2     1  UNL1        0.3381
     22 O          63.5622   90.0038   13.0277 O.2     1  UNL1       -0.2451
     23 O          65.7165   89.8451   13.7895 O.3     1  UNL1       -0.4771
     24 H          66.0347   90.5705   13.1580 H       1  UNL1        0.2954
     25 N          59.8162   87.2805    6.8511 N.am    1  UNL1       -0.2767
     26 C          59.9629   88.7066    6.7821 C.2     1  UNL1        0.2839
     27 O          59.9728   89.3908    7.8407 O.2     1  UNL1       -0.2665
     28 H          59.3032   86.8055    6.0751 H       1  UNL1        0.1553
     29 C          60.0211   89.4053    5.4861 C.ar    1  UNL1        0.1946
     30 O          61.1591   89.6257    4.8514 O.2     1  UNL1       -0.4492
     31 C          60.8846   90.2701    3.7438 C.ar    1  UNL1        0.1452
     32 C          61.7819   90.7117    2.7777 C.ar    1  UNL1        0.0375
     33 C          61.2670   91.3925    1.6606 C.ar    1  UNL1        0.0031
     34 C          59.8705   91.6208    1.5263 C.ar    1  UNL1        0.0002
     35 C          58.9915   91.1527    2.5323 C.ar    1  UNL1        0.0028
     36 C          59.5377   90.4808    3.6262 C.ar    1  UNL1        0.0337
     37 C          58.9507   89.9139    4.7399 C.ar    1  UNL1        0.0202
     38 C          57.4859   89.8623    5.0538 C.3     1  UNL1        0.0345
     39 C          59.3378   92.3423    0.3427 C.ar    1  UNL1        0.0000
     40 C          60.1768   93.1685   -0.4293 C.ar    1  UNL1        0.0000
     41 C          59.6726   93.8466   -1.5434 C.ar    1  UNL1        0.0000
     42 C          58.3295   93.7077   -1.8999 C.ar    1  UNL1        0.0000
     43 C          57.4872   92.8907   -1.1427 C.ar    1  UNL1        0.0000
     44 C          57.9856   92.2110   -0.0270 C.ar    1  UNL1        0.0000
     45 C          58.8167   85.4565   11.3910 C.3     1  UNL1        0.1715
     46 C          57.9317   86.4837   13.2704 C.3     1  UNL1        0.1746
     47 O          58.6671   86.6821   12.0821 O.3     1  UNL1       -0.3462
@<TRIPOS>BOND
     1    46    47    1
     2    47    45    1
     3    45     1    1
     4     1     2   ar
     5     2     3   ar
     6     3    25    1
     7    25    26   am
     8    26    27    2
     9    26    29    1
    10    29    30   ar
    11    30    31   ar
    12    31    32   ar
    13    32    33   ar
    14    33    34   ar
    15    34    39    1
    16    39    40   ar
    17    40    41   ar
    18    41    42   ar
    19    42    43   ar
    20    43    44   ar
    21    34    35   ar
    22    35    36   ar
    23    36    37   ar
    24    37    38    1
    25     3     4   ar
    26     4     5   ar
    27     5     6   ar
    28     6     7    1
    29     7     8    1
    30     8     9    1
    31     9    10    1
    32    10    13    1
    33    13    14    1
    34    14    15    1
    35    15    16   ar
    36    16    17   ar
    37    17    18   ar
    38    18    19   ar
    39    19    21    1
    40    21    22    2
    41    21    23    1
    42    19    20   ar
    43    10    11    1
    44    11    12    1
    45     6     1   ar
    46    12     7    1
    47    37    29   ar
    48    20    15   ar
    49    36    31   ar
    50    44    39   ar
    51    25    28    1
    52    23    24    1
@<TRIPOS>MOLECULE
*****
 47 52 0 0 0
SMALL
GASTEIGER

@<TRIPOS>ATOM
      1 C          59.7771   84.8627    9.9085 C.ar    1  UNL1        0.0401
      2 C          60.6589   85.9161   10.1919 C.ar    1  UNL1        0.0172
      3 C          61.6823   86.2518    9.2923 C.ar    1  UNL1        0.0699
      4 C          61.8256   85.4898    8.1281 C.ar    1  UNL1        0.1149
      5 N          60.9741   84.4642    7.8708 N.ar    1  UNL1       -0.2281
      6 C          59.9647   84.1283    8.7180 C.ar    1  UNL1        0.1300
      7 N          59.1242   83.0171    8.3835 N.pl3   1  UNL1       -0.2934
      8 C          57.7555   82.9486    8.9063 C.3     1  UNL1        0.0923
      9 C          57.5239   81.6305    9.6638 C.3     1  UNL1        0.0252
     10 C          58.2735   80.4139    9.0506 C.3     1  UNL1        0.0472
     11 C          58.7506   80.6930    7.6112 C.3     1  UNL1        0.0252
     12 C          59.6809   81.9120    7.5955 C.3     1  UNL1        0.0923
     13 C          57.3987   79.1458    9.1069 C.3     1  UNL1        0.2054
     14 O          57.6642   78.3834   10.2859 O.3     1  UNL1       -0.4755
     15 C          58.6180   78.6989   11.2678 C.ar    1  UNL1        0.1388
     16 C          58.2917   78.4470   12.6045 C.ar    1  UNL1        0.0369
     17 C          59.2003   78.7369   13.6233 C.ar    1  UNL1        0.0033
     18 C          60.4470   79.2852   13.3169 C.ar    1  UNL1        0.0066
     19 C          60.7971   79.5527   11.9819 C.ar    1  UNL1        0.0785
     20 C          59.8746   79.2596   10.9608 C.ar    1  UNL1        0.0433
     21 C          62.1174   80.1349   11.6522 C.2     1  UNL1        0.3381
     22 O          62.5005   80.2110   10.4534 O.2     1  UNL1       -0.2451
     23 O          62.9502   80.6060   12.6643 O.3     1  UNL1       -0.4771
     24 H          63.8553   81.0067   12.4490 H       1  UNL1        0.2954
     25 N          62.6080   87.3180    9.5644 N.am    1  UNL1       -0.2767
     26 C          62.3377   88.3949   10.4739 C.2     1  UNL1        0.2839
     27 O          61.1475   88.7360   10.7105 O.2     1  UNL1       -0.2665
     28 H          63.4769   87.3741    8.9876 H       1  UNL1        0.1553
     29 C          63.4319   89.1728   11.0813 C.ar    1  UNL1        0.1946
     30 O          64.0639   90.1332   10.4297 O.2     1  UNL1       -0.4492
     31 C          64.9816   90.6242   11.2261 C.ar    1  UNL1        0.1452
     32 C          65.8846   91.6444   10.9481 C.ar    1  UNL1        0.0375
     33 C          66.7939   92.0134   11.9548 C.ar    1  UNL1        0.0031
     34 C          66.7875   91.3609   13.2176 C.ar    1  UNL1        0.0002
     35 C          65.8499   90.3284   13.4597 C.ar    1  UNL1        0.0028
     36 C          64.9625   89.9891   12.4380 C.ar    1  UNL1        0.0337
     37 C          63.9523   89.0501   12.3757 C.ar    1  UNL1        0.0202
     38 C          63.5231   88.1201   13.4702 C.3     1  UNL1        0.0345
     39 C          67.7535   91.7581   14.2732 C.ar    1  UNL1        0.0000
     40 C          68.7799   90.8803   14.6711 C.ar    1  UNL1        0.0000
     41 C          69.6882   91.2569   15.6652 C.ar    1  UNL1        0.0000
     42 C          69.5840   92.5107   16.2714 C.ar    1  UNL1        0.0000
     43 C          68.5707   93.3907   15.8852 C.ar    1  UNL1        0.0000
     44 C          67.6590   93.0191   14.8923 C.ar    1  UNL1        0.0000
     45 C          58.6529   84.5658   10.8754 C.3     1  UNL1        0.1715
     46 C          59.6296   83.1442   12.4233 C.3     1  UNL1        0.1746
     47 O          59.1425   84.4497   12.1979 O.3     1  UNL1       -0.3462
@<TRIPOS>BOND
     1    46    47    1
     2    47    45    1
     3    45     1    1
     4     1     2   ar
     5     2     3   ar
     6     3    25    1
     7    25    26   am
     8    26    27    2
     9    26    29    1
    10    29    30   ar
    11    30    31   ar
    12    31    32   ar
    13    32    33   ar
    14    33    34   ar
    15    34    39    1
    16    39    40   ar
    17    40    41   ar
    18    41    42   ar
    19    42    43   ar
    20    43    44   ar
    21    34    35   ar
    22    35    36   ar
    23    36    37   ar
    24    37    38    1
    25     3     4   ar
    26     4     5   ar
    27     5     6   ar
    28     6     7    1
    29     7     8    1
    30     8     9    1
    31     9    10    1
    32    10    13    1
    33    13    14    1
    34    14    15    1
    35    15    16   ar
    36    16    17   ar
    37    17    18   ar
    38    18    19   ar
    39    19    21    1
    40    21    22    2
    41    21    23    1
    42    19    20   ar
    43    10    11    1
    44    11    12    1
    45     6     1   ar
    46    12     7    1
    47    37    29   ar
    48    20    15   ar
    49    36    31   ar
    50    44    39   ar
    51    25    28    1
    52    23    24    1
