@<TRIPOS>MOLECULE
*****
 39 43 0 0 0
SMALL
GASTEIGER

@<TRIPOS>ATOM
      1 C         -27.9727   49.4246   -6.1198 C.3     1  UNL1        0.0439
      2 C         -27.6102   50.7744   -6.7517 C.3     1  UNL1        0.1375
      3 C         -28.2690   51.9236   -5.9760 C.3     1  UNL1        0.0439
      4 C         -26.0587   50.9662   -6.8403 C.3     1  UNL1        0.0709
      5 C         -25.8459   51.1331   -8.3000 C.ar    1  UNL1        0.0325
      6 C         -27.0345   51.0374   -8.9786 C.ar    1  UNL1        0.1401
      7 C         -27.1119   51.1695  -10.3888 C.ar    1  UNL1        0.0889
      8 C         -25.9015   51.3684  -11.1067 C.ar    1  UNL1        0.0282
      9 C         -24.7053   51.4543  -10.3793 C.ar    1  UNL1        0.0997
     10 N         -23.4623   51.6483  -10.8545 N.ar    1  UNL1       -0.2137
     11 C         -22.7088   51.6508   -9.7198 C.ar    1  UNL1        0.1983
     12 N         -23.4195   51.4613   -8.5809 N.ar    1  UNL1       -0.3255
     13 C         -24.6777   51.3434   -9.0184 C.ar    1  UNL1        0.0755
     14 O         -28.0750   50.8002   -8.1046 O.3     1  UNL1       -0.4824
     15 H         -23.0689   51.4180   -7.5982 H       1  UNL1        0.1686
     16 C         -28.4042   51.0875  -11.1073 C.2     1  UNL1        0.2535
     17 O         -28.8759   52.1261  -11.6429 O.2     1  UNL1       -0.2697
     18 N         -29.1234   49.8518  -11.2407 N.am    1  UNL1       -0.2657
     19 H         -29.7093   49.7202  -12.0963 H       1  UNL1        0.1566
     20 C         -29.1873   48.8546  -10.2090 C.ar    1  UNL1        0.1344
     21 C         -30.3239   48.7580   -9.3988 C.ar    1  UNL1        0.0344
     22 C         -30.3877   47.7664   -8.4187 C.ar    1  UNL1        0.0083
     23 C         -29.3064   46.8924   -8.2268 C.ar    1  UNL1        0.0906
     24 C         -28.1877   47.0209   -9.0652 C.ar    1  UNL1        0.1041
     25 N         -28.1530   47.9894  -10.0179 N.ar    1  UNL1       -0.2291
     26 C         -29.3883   45.7759   -7.2179 C.3     1  UNL1        0.4200
     27 F         -28.2570   45.7975   -6.4239 F       1  UNL1       -0.1658
     28 F         -29.4708   44.5490   -7.8532 F       1  UNL1       -0.1658
     29 F         -30.5062   45.9244   -6.4151 F       1  UNL1       -0.1658
     30 N         -21.2858   51.8125   -9.7233 N.pl3   1  UNL1       -0.2827
     31 H         -20.7056   51.0854  -10.1987 H       1  UNL1        0.1551
     32 C         -20.6543   53.0274   -9.2961 C.ar    1  UNL1        0.0718
     33 C         -19.8028   53.0420   -8.1712 C.ar    1  UNL1        0.0719
     34 CL        -19.4254   51.5694   -7.2849 Cl      1  UNL1       -0.0809
     35 C         -19.1949   54.2377   -7.7714 C.ar    1  UNL1        0.0127
     36 C         -19.4186   55.4151   -8.4873 C.ar    1  UNL1        0.0018
     37 C         -20.2443   55.4035   -9.6128 C.ar    1  UNL1        0.0127
     38 C         -20.8580   54.2152  -10.0241 C.ar    1  UNL1        0.0719
     39 CL        -21.9060   54.2439  -11.4360 Cl      1  UNL1       -0.0809
@<TRIPOS>BOND
     1     1     2    1
     2     2     3    1
     3     2     4    1
     4     4     5    1
     5     5     6   ar
     6     6     7   ar
     7     7    16    1
     8    16    17    2
     9    16    18   am
    10    18    20    1
    11    20    21   ar
    12    21    22   ar
    13    22    23   ar
    14    23    26    1
    15    26    27    1
    16    26    28    1
    17    26    29    1
    18    23    24   ar
    19    24    25   ar
    20     7     8   ar
    21     8     9   ar
    22     9    10   ar
    23    10    11   ar
    24    11    30    1
    25    30    32    1
    26    32    33   ar
    27    33    34    1
    28    33    35   ar
    29    35    36   ar
    30    36    37   ar
    31    37    38   ar
    32    38    39    1
    33    11    12   ar
    34    12    13   ar
    35     6    14    1
    36    14     2    1
    37    13     5   ar
    38    25    20   ar
    39    13     9   ar
    40    38    32   ar
    41    18    19    1
    42    30    31    1
    43    12    15    1
@<TRIPOS>MOLECULE
*****
 39 43 0 0 0
SMALL
GASTEIGER

@<TRIPOS>ATOM
      1 C         -29.1117   51.2124   -9.1850 C.3     1  UNL1        0.0439
      2 C         -30.0805   50.0266   -9.2752 C.3     1  UNL1        0.1375
      3 C         -31.2174   50.1846   -8.2559 C.3     1  UNL1        0.0439
      4 C         -30.6405   49.8548  -10.7273 C.3     1  UNL1        0.0709
      5 C         -30.1932   48.4829  -11.0760 C.ar    1  UNL1        0.0325
      6 C         -29.4757   47.9291  -10.0460 C.ar    1  UNL1        0.1401
      7 C         -28.9392   46.6180  -10.1186 C.ar    1  UNL1        0.0889
      8 C         -29.1295   45.8860  -11.3219 C.ar    1  UNL1        0.0282
      9 C         -29.8624   46.4876  -12.3555 C.ar    1  UNL1        0.0997
     10 N         -30.1657   45.9728  -13.5603 N.ar    1  UNL1       -0.2137
     11 C         -30.8843   46.9755  -14.1379 C.ar    1  UNL1        0.1983
     12 N         -31.0298   48.0749  -13.3580 N.ar    1  UNL1       -0.3255
     13 C         -30.3811   47.7453  -12.2361 C.ar    1  UNL1        0.0755
     14 O         -29.3700   48.8166   -8.9954 O.3     1  UNL1       -0.4824
     15 H         -31.5286   48.9651  -13.5799 H       1  UNL1        0.1686
     16 C         -28.1865   46.0227   -8.9908 C.2     1  UNL1        0.2535
     17 O         -28.7364   45.1341   -8.2865 O.2     1  UNL1       -0.2697
     18 N         -26.8345   46.4042   -8.6927 N.am    1  UNL1       -0.2657
     19 H         -26.2096   45.6846   -8.2637 H       1  UNL1        0.1566
     20 C         -26.3402   47.7462   -8.8259 C.ar    1  UNL1        0.1344
     21 C         -25.8508   48.4259   -7.7051 C.ar    1  UNL1        0.0344
     22 C         -25.3457   49.7188   -7.8512 C.ar    1  UNL1        0.0083
     23 C         -25.3574   50.3439   -9.1077 C.ar    1  UNL1        0.0906
     24 C         -25.8525   49.6239  -10.2066 C.ar    1  UNL1        0.1041
     25 N         -26.3314   48.3630  -10.0401 N.ar    1  UNL1       -0.2291
     26 C         -24.7550   51.7129   -9.2925 C.3     1  UNL1        0.4200
     27 F         -24.5074   51.9226  -10.6362 F       1  UNL1       -0.1658
     28 F         -23.5662   51.8217   -8.5920 F       1  UNL1       -0.1658
     29 F         -25.6192   52.6924   -8.8344 F       1  UNL1       -0.1658
     30 N         -31.4205   46.8934  -15.4633 N.pl3   1  UNL1       -0.2827
     31 H         -32.4505   47.0140  -15.5897 H       1  UNL1        0.1551
     32 C         -30.5815   46.8711  -16.6264 C.ar    1  UNL1        0.0718
     33 C         -30.2496   45.6521  -17.2544 C.ar    1  UNL1        0.0719
     34 CL        -30.8975   44.1184  -16.6847 Cl      1  UNL1       -0.0809
     35 C         -29.4305   45.6518  -18.3894 C.ar    1  UNL1        0.0127
     36 C         -28.9486   46.8540  -18.9102 C.ar    1  UNL1        0.0018
     37 C         -29.2893   48.0651  -18.3054 C.ar    1  UNL1        0.0127
     38 C         -30.1077   48.0801  -17.1705 C.ar    1  UNL1        0.0719
     39 CL        -30.5001   49.6241  -16.4256 Cl      1  UNL1       -0.0809
@<TRIPOS>BOND
     1     1     2    1
     2     2     3    1
     3     2     4    1
     4     4     5    1
     5     5     6   ar
     6     6     7   ar
     7     7    16    1
     8    16    17    2
     9    16    18   am
    10    18    20    1
    11    20    21   ar
    12    21    22   ar
    13    22    23   ar
    14    23    26    1
    15    26    27    1
    16    26    28    1
    17    26    29    1
    18    23    24   ar
    19    24    25   ar
    20     7     8   ar
    21     8     9   ar
    22     9    10   ar
    23    10    11   ar
    24    11    30    1
    25    30    32    1
    26    32    33   ar
    27    33    34    1
    28    33    35   ar
    29    35    36   ar
    30    36    37   ar
    31    37    38   ar
    32    38    39    1
    33    11    12   ar
    34    12    13   ar
    35     6    14    1
    36    14     2    1
    37    13     5   ar
    38    25    20   ar
    39    13     9   ar
    40    38    32   ar
    41    18    19    1
    42    30    31    1
    43    12    15    1
@<TRIPOS>MOLECULE
*****
 39 43 0 0 0
SMALL
GASTEIGER

@<TRIPOS>ATOM
      1 C         -31.1201   44.9909  -10.0023 C.3     1  UNL1        0.0439
      2 C         -29.9765   45.9389  -10.3844 C.3     1  UNL1        0.1375
      3 C         -28.6251   45.3468   -9.9608 C.3     1  UNL1        0.0439
      4 C         -29.9957   46.2707  -11.9146 C.3     1  UNL1        0.0709
      5 C         -30.1485   47.7473  -11.9138 C.ar    1  UNL1        0.0325
      6 C         -30.2321   48.2267  -10.6310 C.ar    1  UNL1        0.1401
      7 C         -30.3739   49.6096  -10.3492 C.ar    1  UNL1        0.0889
      8 C         -30.4695   50.5069  -11.4472 C.ar    1  UNL1        0.0282
      9 C         -30.3867   49.9792  -12.7442 C.ar    1  UNL1        0.0997
     10 N         -30.4429   50.6448  -13.9114 N.ar    1  UNL1       -0.2137
     11 C         -30.3068   49.6466  -14.8281 C.ar    1  UNL1        0.1983
     12 N         -30.1792   48.4098  -14.2874 N.ar    1  UNL1       -0.3255
     13 C         -30.2281   48.6419  -12.9714 C.ar    1  UNL1        0.0755
     14 O         -30.1634   47.1926   -9.7206 O.3     1  UNL1       -0.4824
     15 H         -30.0689   47.4957  -14.7801 H       1  UNL1        0.1686
     16 C         -30.4395   50.1168   -8.9595 C.2     1  UNL1        0.2535
     17 O         -31.5576   50.4395   -8.4757 O.2     1  UNL1       -0.2697
     18 N         -29.2705   50.2230   -8.1323 N.am    1  UNL1       -0.2657
     19 H         -29.3926   50.1069   -7.1007 H       1  UNL1        0.1566
     20 C         -27.9794   50.6107   -8.6280 C.ar    1  UNL1        0.1344
     21 C         -27.5654   51.9439   -8.5342 C.ar    1  UNL1        0.0344
     22 C         -26.2972   52.3042   -8.9921 C.ar    1  UNL1        0.0083
     23 C         -25.4555   51.3417   -9.5710 C.ar    1  UNL1        0.0906
     24 C         -25.9084   50.0146   -9.6407 C.ar    1  UNL1        0.1041
     25 N         -27.1444   49.6873   -9.1802 N.ar    1  UNL1       -0.2291
     26 C         -24.0594   51.7027  -10.0089 C.3     1  UNL1        0.4200
     27 F         -23.9751   53.0726  -10.1734 F       1  UNL1       -0.1658
     28 F         -23.7483   51.0841  -11.2073 F       1  UNL1       -0.1658
     29 F         -23.1322   51.3038   -9.0617 F       1  UNL1       -0.1658
     30 N         -30.3227   49.8725  -16.2422 N.pl3   1  UNL1       -0.2827
     31 H         -30.9140   50.6497  -16.6133 H       1  UNL1        0.1551
     32 C         -29.4023   49.2225  -17.1297 C.ar    1  UNL1        0.0718
     33 C         -28.0231   49.5162  -17.0818 C.ar    1  UNL1        0.0719
     34 CL        -27.3625   50.6362  -15.8961 Cl      1  UNL1       -0.0809
     35 C         -27.1411   48.8701  -17.9556 C.ar    1  UNL1        0.0127
     36 C         -27.6182   47.9272  -18.8679 C.ar    1  UNL1        0.0018
     37 C         -28.9788   47.6175  -18.9069 C.ar    1  UNL1        0.0127
     38 C         -29.8717   48.2555  -18.0390 C.ar    1  UNL1        0.0719
     39 CL        -31.5810   47.8524  -18.1304 Cl      1  UNL1       -0.0809
@<TRIPOS>BOND
     1     1     2    1
     2     2     3    1
     3     2     4    1
     4     4     5    1
     5     5     6   ar
     6     6     7   ar
     7     7    16    1
     8    16    17    2
     9    16    18   am
    10    18    20    1
    11    20    21   ar
    12    21    22   ar
    13    22    23   ar
    14    23    26    1
    15    26    27    1
    16    26    28    1
    17    26    29    1
    18    23    24   ar
    19    24    25   ar
    20     7     8   ar
    21     8     9   ar
    22     9    10   ar
    23    10    11   ar
    24    11    30    1
    25    30    32    1
    26    32    33   ar
    27    33    34    1
    28    33    35   ar
    29    35    36   ar
    30    36    37   ar
    31    37    38   ar
    32    38    39    1
    33    11    12   ar
    34    12    13   ar
    35     6    14    1
    36    14     2    1
    37    13     5   ar
    38    25    20   ar
    39    13     9   ar
    40    38    32   ar
    41    18    19    1
    42    30    31    1
    43    12    15    1
@<TRIPOS>MOLECULE
*****
 39 43 0 0 0
SMALL
GASTEIGER

@<TRIPOS>ATOM
      1 C         -28.0980   50.3109   -4.7226 C.3     1  UNL1        0.0439
      2 C         -28.4143   50.7929   -6.1440 C.3     1  UNL1        0.1375
      3 C         -29.8168   51.4145   -6.1996 C.3     1  UNL1        0.0439
      4 C         -27.3288   51.7951   -6.6628 C.3     1  UNL1        0.0709
      5 C         -26.8165   51.1042   -7.8728 C.ar    1  UNL1        0.0325
      6 C         -27.4482   49.8991   -8.0486 C.ar    1  UNL1        0.1401
      7 C         -27.1497   49.0416   -9.1383 C.ar    1  UNL1        0.0889
      8 C         -26.1320   49.4456  -10.0445 C.ar    1  UNL1        0.0282
      9 C         -25.5038   50.6810   -9.8286 C.ar    1  UNL1        0.0997
     10 N         -24.5334   51.2531  -10.5631 N.ar    1  UNL1       -0.2137
     11 C         -24.3158   52.4252   -9.9041 C.ar    1  UNL1        0.1983
     12 N         -25.0917   52.5970   -8.8057 N.ar    1  UNL1       -0.3255
     13 C         -25.8371   51.4872   -8.7779 C.ar    1  UNL1        0.0755
     14 O         -28.3636   49.6789   -7.0404 O.3     1  UNL1       -0.4824
     15 H         -25.1044   53.4025   -8.1411 H       1  UNL1        0.1686
     16 C         -27.8552   47.7538   -9.3300 C.2     1  UNL1        0.2535
     17 O         -28.7428   47.6666  -10.2204 O.2     1  UNL1       -0.2697
     18 N         -27.5372   46.5890   -8.5528 N.am    1  UNL1       -0.2657
     19 H         -27.6688   45.6542   -9.0016 H       1  UNL1        0.1566
     20 C         -27.1813   46.6350   -7.1620 C.ar    1  UNL1        0.1344
     21 C         -28.1776   46.5646   -6.1822 C.ar    1  UNL1        0.0344
     22 C         -27.8184   46.5805   -4.8337 C.ar    1  UNL1        0.0083
     23 C         -26.4697   46.6977   -4.4633 C.ar    1  UNL1        0.0906
     24 C         -25.5020   46.7603   -5.4785 C.ar    1  UNL1        0.1041
     25 N         -25.8765   46.7347   -6.7846 N.ar    1  UNL1       -0.2291
     26 C         -26.0623   46.6494   -3.0132 C.3     1  UNL1        0.4200
     27 F         -24.7173   46.3413   -2.9294 F       1  UNL1       -0.1658
     28 F         -26.7891   45.6872   -2.3337 F       1  UNL1       -0.1658
     29 F         -26.2844   47.8717   -2.4028 F       1  UNL1       -0.1658
     30 N         -23.3359   53.3857  -10.3144 N.pl3   1  UNL1       -0.2827
     31 H         -23.5813   54.3996  -10.2570 H       1  UNL1        0.1551
     32 C         -21.9763   53.0202  -10.5886 C.ar    1  UNL1        0.0718
     33 C         -21.1946   52.3630   -9.6151 C.ar    1  UNL1        0.0719
     34 CL        -21.8651   51.9049   -8.0539 Cl      1  UNL1       -0.0809
     35 C         -19.8703   52.0134   -9.9028 C.ar    1  UNL1        0.0127
     36 C         -19.3216   52.3024  -11.1535 C.ar    1  UNL1        0.0018
     37 C         -20.0956   52.9348  -12.1280 C.ar    1  UNL1        0.0127
     38 C         -21.4211   53.2894  -11.8541 C.ar    1  UNL1        0.0719
     39 CL        -22.3590   54.1012  -13.1007 Cl      1  UNL1       -0.0809
@<TRIPOS>BOND
     1     1     2    1
     2     2     3    1
     3     2     4    1
     4     4     5    1
     5     5     6   ar
     6     6     7   ar
     7     7    16    1
     8    16    17    2
     9    16    18   am
    10    18    20    1
    11    20    21   ar
    12    21    22   ar
    13    22    23   ar
    14    23    26    1
    15    26    27    1
    16    26    28    1
    17    26    29    1
    18    23    24   ar
    19    24    25   ar
    20     7     8   ar
    21     8     9   ar
    22     9    10   ar
    23    10    11   ar
    24    11    30    1
    25    30    32    1
    26    32    33   ar
    27    33    34    1
    28    33    35   ar
    29    35    36   ar
    30    36    37   ar
    31    37    38   ar
    32    38    39    1
    33    11    12   ar
    34    12    13   ar
    35     6    14    1
    36    14     2    1
    37    13     5   ar
    38    25    20   ar
    39    13     9   ar
    40    38    32   ar
    41    18    19    1
    42    30    31    1
    43    12    15    1
@<TRIPOS>MOLECULE
*****
 39 43 0 0 0
SMALL
GASTEIGER

@<TRIPOS>ATOM
      1 C         -27.9608   49.4229   -6.1243 C.3     1  UNL1        0.0439
      2 C         -27.5993   50.7747   -6.7526 C.3     1  UNL1        0.1375
      3 C         -28.2560   51.9215   -5.9717 C.3     1  UNL1        0.0439
      4 C         -26.0479   50.9663   -6.8440 C.3     1  UNL1        0.0709
      5 C         -25.8383   51.1379   -8.3036 C.ar    1  UNL1        0.0325
      6 C         -27.0284   51.0447   -8.9799 C.ar    1  UNL1        0.1401
      7 C         -27.1088   51.1813  -10.3895 C.ar    1  UNL1        0.0889
      8 C         -25.9000   51.3822  -11.1094 C.ar    1  UNL1        0.0282
      9 C         -24.7021   51.4654  -10.3844 C.ar    1  UNL1        0.0997
     10 N         -23.4601   51.6607  -10.8617 N.ar    1  UNL1       -0.2137
     11 C         -22.7042   51.6593   -9.7287 C.ar    1  UNL1        0.1983
     12 N         -23.4124   51.4663   -8.5888 N.ar    1  UNL1       -0.3255
     13 C         -24.6715   51.3501   -9.0239 C.ar    1  UNL1        0.0755
     14 O         -28.0670   50.8049   -8.1044 O.3     1  UNL1       -0.4824
     15 H         -23.0596   51.4197   -7.6070 H       1  UNL1        0.1686
     16 C         -28.4027   51.1020  -11.1054 C.2     1  UNL1        0.2535
     17 O         -28.8741   52.1420  -11.6387 O.2     1  UNL1       -0.2697
     18 N         -29.1239   49.8674  -11.2390 N.am    1  UNL1       -0.2657
     19 H         -29.7117   49.7378  -12.0935 H       1  UNL1        0.1566
     20 C         -29.1869   48.8689  -10.2085 C.ar    1  UNL1        0.1344
     21 C         -30.3192   48.7771   -9.3917 C.ar    1  UNL1        0.0344
     22 C         -30.3825   47.7843   -8.4128 C.ar    1  UNL1        0.0083
     23 C         -29.3047   46.9042   -8.2287 C.ar    1  UNL1        0.0906
     24 C         -28.1903   47.0281   -9.0736 C.ar    1  UNL1        0.1041
     25 N         -28.1561   47.9980  -10.0249 N.ar    1  UNL1       -0.2291
     26 C         -29.3865   45.7866   -7.2211 C.3     1  UNL1        0.4200
     27 F         -28.2696   45.8258   -6.4076 F       1  UNL1       -0.1658
     28 F         -29.4388   44.5585   -7.8574 F       1  UNL1       -0.1658
     29 F         -30.5203   45.9175   -6.4378 F       1  UNL1       -0.1658
     30 N         -21.2811   51.8206   -9.7348 N.pl3   1  UNL1       -0.2827
     31 H         -20.7014   51.0890  -10.2039 H       1  UNL1        0.1551
     32 C         -20.6490   53.0392   -9.3194 C.ar    1  UNL1        0.0718
     33 C         -20.9054   54.2521   -9.9932 C.ar    1  UNL1        0.0719
     34 CL        -22.0544   54.3395  -11.3232 Cl      1  UNL1       -0.0809
     35 C         -20.2796   55.4308   -9.5714 C.ar    1  UNL1        0.0127
     36 C         -19.4102   55.4145   -8.4792 C.ar    1  UNL1        0.0018
     37 C         -19.1675   54.2217   -7.7959 C.ar    1  UNL1        0.0127
     38 C         -19.7867   53.0360   -8.2064 C.ar    1  UNL1        0.0719
     39 CL        -19.4419   51.5497   -7.3320 Cl      1  UNL1       -0.0809
@<TRIPOS>BOND
     1     1     2    1
     2     2     3    1
     3     2     4    1
     4     4     5    1
     5     5     6   ar
     6     6     7   ar
     7     7    16    1
     8    16    17    2
     9    16    18   am
    10    18    20    1
    11    20    21   ar
    12    21    22   ar
    13    22    23   ar
    14    23    26    1
    15    26    27    1
    16    26    28    1
    17    26    29    1
    18    23    24   ar
    19    24    25   ar
    20     7     8   ar
    21     8     9   ar
    22     9    10   ar
    23    10    11   ar
    24    11    30    1
    25    30    32    1
    26    32    33   ar
    27    33    34    1
    28    33    35   ar
    29    35    36   ar
    30    36    37   ar
    31    37    38   ar
    32    38    39    1
    33    11    12   ar
    34    12    13   ar
    35     6    14    1
    36    14     2    1
    37    13     5   ar
    38    25    20   ar
    39    13     9   ar
    40    38    32   ar
    41    18    19    1
    42    30    31    1
    43    12    15    1
@<TRIPOS>MOLECULE
*****
 39 43 0 0 0
SMALL
GASTEIGER

@<TRIPOS>ATOM
      1 C         -28.0592   50.2805   -4.7049 C.3     1  UNL1        0.0439
      2 C         -28.3791   50.7668   -6.1240 C.3     1  UNL1        0.1375
      3 C         -29.7784   51.3960   -6.1724 C.3     1  UNL1        0.0439
      4 C         -27.2905   51.7641   -6.6458 C.3     1  UNL1        0.0709
      5 C         -26.7872   51.0728   -7.8593 C.ar    1  UNL1        0.0325
      6 C         -27.4261   49.8713   -8.0345 C.ar    1  UNL1        0.1401
      7 C         -27.1370   49.0143   -9.1272 C.ar    1  UNL1        0.0889
      8 C         -26.1211   49.4145  -10.0370 C.ar    1  UNL1        0.0282
      9 C         -25.4854   50.6462   -9.8216 C.ar    1  UNL1        0.0997
     10 N         -24.5151   51.2144  -10.5593 N.ar    1  UNL1       -0.2137
     11 C         -24.2883   52.3841   -9.8991 C.ar    1  UNL1        0.1983
     12 N         -25.0585   52.5580   -8.7970 N.ar    1  UNL1       -0.3255
     13 C         -25.8097   51.4521   -8.7679 C.ar    1  UNL1        0.0755
     14 O         -28.3383   49.6542   -7.0227 O.3     1  UNL1       -0.4824
     15 H         -25.0639   53.3623   -8.1309 H       1  UNL1        0.1686
     16 C         -27.8503   47.7307   -9.3181 C.2     1  UNL1        0.2535
     17 O         -28.7398   47.6489  -10.2070 O.2     1  UNL1       -0.2697
     18 N         -27.5376   46.5638   -8.5419 N.am    1  UNL1       -0.2657
     19 H         -27.6754   45.6299   -8.9908 H       1  UNL1        0.1566
     20 C         -27.1790   46.6072   -7.1517 C.ar    1  UNL1        0.1344
     21 C         -28.1724   46.5233   -6.1700 C.ar    1  UNL1        0.0344
     22 C         -27.8104   46.5368   -4.8222 C.ar    1  UNL1        0.0083
     23 C         -26.4620   46.6650   -4.4543 C.ar    1  UNL1        0.0906
     24 C         -25.4972   46.7409   -5.4714 C.ar    1  UNL1        0.1041
     25 N         -25.8744   46.7174   -6.7767 N.ar    1  UNL1       -0.2291
     26 C         -26.0509   46.6143   -3.0053 C.3     1  UNL1        0.4200
     27 F         -26.3549   47.8216   -2.4045 F       1  UNL1       -0.1658
     28 F         -24.6910   46.3832   -2.8916 F       1  UNL1       -0.1658
     29 F         -26.7199   45.5994   -2.3432 F       1  UNL1       -0.1658
     30 N         -23.3051   53.3401  -10.3120 N.pl3   1  UNL1       -0.2827
     31 H         -23.5351   54.3556  -10.2274 H       1  UNL1        0.1551
     32 C         -21.9574   52.9625  -10.6257 C.ar    1  UNL1        0.0718
     33 C         -21.4044   53.2452  -11.8926 C.ar    1  UNL1        0.0719
     34 CL        -22.3121   54.1262  -13.1159 Cl      1  UNL1       -0.0809
     35 C         -20.0867   52.8697  -12.1786 C.ar    1  UNL1        0.0127
     36 C         -19.3124   52.2258  -11.2118 C.ar    1  UNL1        0.0018
     37 C         -19.8470   51.9609   -9.9498 C.ar    1  UNL1        0.0127
     38 C         -21.1626   52.3311   -9.6501 C.ar    1  UNL1        0.0719
     39 CL        -21.8070   51.9640   -8.0555 Cl      1  UNL1       -0.0809
@<TRIPOS>BOND
     1     1     2    1
     2     2     3    1
     3     2     4    1
     4     4     5    1
     5     5     6   ar
     6     6     7   ar
     7     7    16    1
     8    16    17    2
     9    16    18   am
    10    18    20    1
    11    20    21   ar
    12    21    22   ar
    13    22    23   ar
    14    23    26    1
    15    26    27    1
    16    26    28    1
    17    26    29    1
    18    23    24   ar
    19    24    25   ar
    20     7     8   ar
    21     8     9   ar
    22     9    10   ar
    23    10    11   ar
    24    11    30    1
    25    30    32    1
    26    32    33   ar
    27    33    34    1
    28    33    35   ar
    29    35    36   ar
    30    36    37   ar
    31    37    38   ar
    32    38    39    1
    33    11    12   ar
    34    12    13   ar
    35     6    14    1
    36    14     2    1
    37    13     5   ar
    38    25    20   ar
    39    13     9   ar
    40    38    32   ar
    41    18    19    1
    42    30    31    1
    43    12    15    1
@<TRIPOS>MOLECULE
*****
 39 43 0 0 0
SMALL
GASTEIGER

@<TRIPOS>ATOM
      1 C         -30.2515   52.2842  -11.7883 C.3     1  UNL1        0.0439
      2 C         -29.3641   51.1180  -11.3352 C.3     1  UNL1        0.1375
      3 C         -29.9903   49.7775  -11.7443 C.3     1  UNL1        0.0439
      4 C         -27.9076   51.2572  -11.8930 C.3     1  UNL1        0.0709
      5 C         -27.0985   51.3058  -10.6494 C.ar    1  UNL1        0.0325
      6 C         -27.9049   51.2352   -9.5417 C.ar    1  UNL1        0.1401
      7 C         -27.3811   51.2530   -8.2236 C.ar    1  UNL1        0.0889
      8 C         -25.9749   51.3882   -8.0674 C.ar    1  UNL1        0.0282
      9 C         -25.1834   51.4644   -9.2229 C.ar    1  UNL1        0.0997
     10 N         -23.8461   51.5830   -9.3010 N.ar    1  UNL1       -0.2137
     11 C         -23.6291   51.6035  -10.6456 C.ar    1  UNL1        0.1983
     12 N         -24.7575   51.5124  -11.3917 N.ar    1  UNL1       -0.3255
     13 C         -25.7268   51.4215  -10.4750 C.ar    1  UNL1        0.0755
     14 O         -29.2315   51.1538   -9.9110 O.3     1  UNL1       -0.4824
     15 H         -24.8480   51.5129  -12.4320 H       1  UNL1        0.1686
     16 C         -28.2604   51.1525   -7.0364 C.2     1  UNL1        0.2535
     17 O         -28.0193   51.8730   -6.0309 O.2     1  UNL1       -0.2697
     18 N         -29.4012   50.2808   -7.0061 N.am    1  UNL1       -0.2657
     19 H         -30.2187   50.5701   -6.4225 H       1  UNL1        0.1566
     20 C         -29.4252   48.9824   -7.6197 C.ar    1  UNL1        0.1344
     21 C         -30.6029   48.5079   -8.2073 C.ar    1  UNL1        0.0344
     22 C         -30.6072   47.2572   -8.8267 C.ar    1  UNL1        0.0083
     23 C         -29.4465   46.4681   -8.8326 C.ar    1  UNL1        0.0906
     24 C         -28.2853   46.9848   -8.2362 C.ar    1  UNL1        0.1041
     25 N         -28.3044   48.2091   -7.6466 N.ar    1  UNL1       -0.2291
     26 C         -29.4181   45.1456   -9.5546 C.3     1  UNL1        0.4200
     27 F         -30.2940   45.1925  -10.6230 F       1  UNL1       -0.1658
     28 F         -29.7946   44.1184   -8.7067 F       1  UNL1       -0.1658
     29 F         -28.1453   44.8740  -10.0259 F       1  UNL1       -0.1658
     30 N         -22.3276   51.7360  -11.2283 N.pl3   1  UNL1       -0.2827
     31 H         -22.1828   51.3873  -12.2024 H       1  UNL1        0.1551
     32 C         -21.2918   52.5153  -10.6143 C.ar    1  UNL1        0.0718
     33 C         -20.0452   51.9365  -10.2953 C.ar    1  UNL1        0.0719
     34 CL        -19.6811   50.2613  -10.6925 Cl      1  UNL1       -0.0809
     35 C         -19.0469   52.7143   -9.6976 C.ar    1  UNL1        0.0127
     36 C         -19.2748   54.0644   -9.4251 C.ar    1  UNL1        0.0018
     37 C         -20.4988   54.6481   -9.7562 C.ar    1  UNL1        0.0127
     38 C         -21.5055   53.8824  -10.3545 C.ar    1  UNL1        0.0719
     39 CL        -23.0408   54.6486  -10.7402 Cl      1  UNL1       -0.0809
@<TRIPOS>BOND
     1     1     2    1
     2     2     3    1
     3     2     4    1
     4     4     5    1
     5     5     6   ar
     6     6     7   ar
     7     7    16    1
     8    16    17    2
     9    16    18   am
    10    18    20    1
    11    20    21   ar
    12    21    22   ar
    13    22    23   ar
    14    23    26    1
    15    26    27    1
    16    26    28    1
    17    26    29    1
    18    23    24   ar
    19    24    25   ar
    20     7     8   ar
    21     8     9   ar
    22     9    10   ar
    23    10    11   ar
    24    11    30    1
    25    30    32    1
    26    32    33   ar
    27    33    34    1
    28    33    35   ar
    29    35    36   ar
    30    36    37   ar
    31    37    38   ar
    32    38    39    1
    33    11    12   ar
    34    12    13   ar
    35     6    14    1
    36    14     2    1
    37    13     5   ar
    38    25    20   ar
    39    13     9   ar
    40    38    32   ar
    41    18    19    1
    42    30    31    1
    43    12    15    1
@<TRIPOS>MOLECULE
*****
 39 43 0 0 0
SMALL
GASTEIGER

@<TRIPOS>ATOM
      1 C         -26.0588   47.1687   -7.9883 C.3     1  UNL1        0.0439
      2 C         -26.2015   48.6709   -7.7129 C.3     1  UNL1        0.1375
      3 C         -27.1131   48.9095   -6.5011 C.3     1  UNL1        0.0439
      4 C         -24.8052   49.3512   -7.5149 C.3     1  UNL1        0.0709
      5 C         -24.7941   50.3662   -8.5982 C.ar    1  UNL1        0.0325
      6 C         -25.9500   50.3040   -9.3345 C.ar    1  UNL1        0.1401
      7 C         -26.1973   51.1740  -10.4272 C.ar    1  UNL1        0.0889
      8 C         -25.1845   52.1073  -10.7781 C.ar    1  UNL1        0.0282
      9 C         -24.0136   52.1369  -10.0064 C.ar    1  UNL1        0.0997
     10 N         -22.9457   52.9402  -10.1572 N.ar    1  UNL1       -0.2137
     11 C         -22.1283   52.5389   -9.1442 C.ar    1  UNL1        0.1983
     12 N         -22.6326   51.5318   -8.3896 N.ar    1  UNL1       -0.3255
     13 C         -23.8247   51.2953   -8.9475 C.ar    1  UNL1        0.0755
     14 O         -26.7757   49.3065   -8.8590 O.3     1  UNL1       -0.4824
     15 H         -22.1955   51.0553   -7.5695 H       1  UNL1        0.1686
     16 C         -27.4593   51.1124  -11.1995 C.2     1  UNL1        0.2535
     17 O         -27.4586   51.4741  -12.4067 O.2     1  UNL1       -0.2697
     18 N         -28.6803   50.6222  -10.6242 N.am    1  UNL1       -0.2657
     19 H         -29.3635   50.1525  -11.2607 H       1  UNL1        0.1566
     20 C         -29.0684   50.8610   -9.2621 C.ar    1  UNL1        0.1344
     21 C         -30.1661   50.1847   -8.7186 C.ar    1  UNL1        0.0344
     22 C         -30.5165   50.4021   -7.3852 C.ar    1  UNL1        0.0083
     23 C         -29.7919   51.3160   -6.6045 C.ar    1  UNL1        0.0906
     24 C         -28.6945   51.9690   -7.1879 C.ar    1  UNL1        0.1041
     25 N         -28.3683   51.7341   -8.4860 N.ar    1  UNL1       -0.2291
     26 C         -30.1177   51.5111   -5.1460 C.3     1  UNL1        0.4200
     27 F         -28.9537   51.4253   -4.4053 F       1  UNL1       -0.1658
     28 F         -31.0031   50.5409   -4.7096 F       1  UNL1       -0.1658
     29 F         -30.6957   52.7512   -4.9366 F       1  UNL1       -0.1658
     30 N         -20.8358   53.1082   -8.9066 N.pl3   1  UNL1       -0.2827
     31 H         -20.7315   53.7909   -8.1227 H       1  UNL1        0.1551
     32 C         -19.6543   52.6174   -9.5549 C.ar    1  UNL1        0.0718
     33 C         -19.4838   52.7573  -10.9484 C.ar    1  UNL1        0.0719
     34 CL        -20.6730   53.5929  -11.9405 Cl      1  UNL1       -0.0809
     35 C         -18.3228   52.2728  -11.5618 C.ar    1  UNL1        0.0127
     36 C         -17.3265   51.6607  -10.7992 C.ar    1  UNL1        0.0018
     37 C         -17.4800   51.5367   -9.4174 C.ar    1  UNL1        0.0127
     38 C         -18.6353   52.0170   -8.7910 C.ar    1  UNL1        0.0719
     39 CL        -18.8008   51.8262   -7.0506 Cl      1  UNL1       -0.0809
@<TRIPOS>BOND
     1     1     2    1
     2     2     3    1
     3     2     4    1
     4     4     5    1
     5     5     6   ar
     6     6     7   ar
     7     7    16    1
     8    16    17    2
     9    16    18   am
    10    18    20    1
    11    20    21   ar
    12    21    22   ar
    13    22    23   ar
    14    23    26    1
    15    26    27    1
    16    26    28    1
    17    26    29    1
    18    23    24   ar
    19    24    25   ar
    20     7     8   ar
    21     8     9   ar
    22     9    10   ar
    23    10    11   ar
    24    11    30    1
    25    30    32    1
    26    32    33   ar
    27    33    34    1
    28    33    35   ar
    29    35    36   ar
    30    36    37   ar
    31    37    38   ar
    32    38    39    1
    33    11    12   ar
    34    12    13   ar
    35     6    14    1
    36    14     2    1
    37    13     5   ar
    38    25    20   ar
    39    13     9   ar
    40    38    32   ar
    41    18    19    1
    42    30    31    1
    43    12    15    1
@<TRIPOS>MOLECULE
*****
 39 43 0 0 0
SMALL
GASTEIGER

@<TRIPOS>ATOM
      1 C         -30.2604   47.3580   -9.1896 C.3     1  UNL1        0.0439
      2 C         -29.0045   47.6684   -8.3655 C.3     1  UNL1        0.1375
      3 C         -28.5857   46.4413   -7.5438 C.3     1  UNL1        0.0439
      4 C         -27.8325   48.1685   -9.2756 C.3     1  UNL1        0.0709
      5 C         -27.5558   49.5165   -8.7187 C.ar    1  UNL1        0.0325
      6 C         -28.4099   49.7991   -7.6828 C.ar    1  UNL1        0.1401
      7 C         -28.3519   51.0233   -6.9687 C.ar    1  UNL1        0.0889
      8 C         -27.3959   51.9907   -7.3813 C.ar    1  UNL1        0.0282
      9 C         -26.5445   51.6686   -8.4485 C.ar    1  UNL1        0.0997
     10 N         -25.5723   52.4262   -8.9865 N.ar    1  UNL1       -0.2137
     11 C         -25.0796   51.6215   -9.9688 C.ar    1  UNL1        0.1983
     12 N         -25.7007   50.4202  -10.0662 N.ar    1  UNL1       -0.3255
     13 C         -26.6192   50.4683   -9.0955 C.ar    1  UNL1        0.0755
     14 O         -29.2832   48.7521   -7.4738 O.3     1  UNL1       -0.4824
     15 H         -25.5080   49.6439  -10.7376 H       1  UNL1        0.1686
     16 C         -29.2641   51.3070   -5.8371 C.2     1  UNL1        0.2535
     17 O         -29.7761   52.4538   -5.7338 O.2     1  UNL1       -0.2697
     18 N         -29.6097   50.3045   -4.8688 N.am    1  UNL1       -0.2657
     19 H         -30.5529   50.3646   -4.4222 H       1  UNL1        0.1566
     20 C         -28.6877   49.3141   -4.3872 C.ar    1  UNL1        0.1344
     21 C         -29.1141   47.9951   -4.1970 C.ar    1  UNL1        0.0344
     22 C         -28.2025   47.0343   -3.7568 C.ar    1  UNL1        0.0083
     23 C         -26.8754   47.3956   -3.4771 C.ar    1  UNL1        0.0906
     24 C         -26.4885   48.7288   -3.6866 C.ar    1  UNL1        0.1041
     25 N         -27.3929   49.6441   -4.1238 N.ar    1  UNL1       -0.2291
     26 C         -25.8648   46.3563   -3.0651 C.3     1  UNL1        0.4200
     27 F         -25.5801   45.5454   -4.1477 F       1  UNL1       -0.1658
     28 F         -26.3594   45.5762   -2.0343 F       1  UNL1       -0.1658
     29 F         -24.6957   46.9572   -2.6313 F       1  UNL1       -0.1658
     30 N         -24.0159   52.0132  -10.8441 N.pl3   1  UNL1       -0.2827
     31 H         -24.2255   52.1201  -11.8619 H       1  UNL1        0.1551
     32 C         -22.7489   52.4689  -10.3498 C.ar    1  UNL1        0.0718
     33 C         -22.2730   52.0516   -9.0888 C.ar    1  UNL1        0.0719
     34 CL        -23.1736   50.9092   -8.0986 Cl      1  UNL1       -0.0809
     35 C         -21.0333   52.5066   -8.6251 C.ar    1  UNL1        0.0127
     36 C         -20.2595   53.3637   -9.4096 C.ar    1  UNL1        0.0018
     37 C         -20.7155   53.7646  -10.6665 C.ar    1  UNL1        0.0127
     38 C         -21.9526   53.3170  -11.1428 C.ar    1  UNL1        0.0719
     39 CL        -22.5017   53.8584  -12.7234 Cl      1  UNL1       -0.0809
@<TRIPOS>BOND
     1     1     2    1
     2     2     3    1
     3     2     4    1
     4     4     5    1
     5     5     6   ar
     6     6     7   ar
     7     7    16    1
     8    16    17    2
     9    16    18   am
    10    18    20    1
    11    20    21   ar
    12    21    22   ar
    13    22    23   ar
    14    23    26    1
    15    26    27    1
    16    26    28    1
    17    26    29    1
    18    23    24   ar
    19    24    25   ar
    20     7     8   ar
    21     8     9   ar
    22     9    10   ar
    23    10    11   ar
    24    11    30    1
    25    30    32    1
    26    32    33   ar
    27    33    34    1
    28    33    35   ar
    29    35    36   ar
    30    36    37   ar
    31    37    38   ar
    32    38    39    1
    33    11    12   ar
    34    12    13   ar
    35     6    14    1
    36    14     2    1
    37    13     5   ar
    38    25    20   ar
    39    13     9   ar
    40    38    32   ar
    41    18    19    1
    42    30    31    1
    43    12    15    1
