@<TRIPOS>MOLECULE
*****
 61 65 0 0 0
SMALL
GASTEIGER

@<TRIPOS>ATOM
      1 C         -19.0850   -9.1852   -6.9985 C.ar    1  UNL1        0.0548
      2 C         -18.2054   -9.9814   -7.7504 C.ar    1  UNL1        0.0077
      3 C         -18.2819  -10.0004   -9.1446 C.ar    1  UNL1        0.0390
      4 C         -19.2401   -9.2205   -9.8184 C.ar    1  UNL1        0.1598
      5 C         -20.1288   -8.4319   -9.0707 C.ar    1  UNL1        0.0993
      6 C         -20.0528   -8.4219   -7.6716 C.ar    1  UNL1        0.0235
      7 N         -19.4805   -8.0345   -4.7656 N.am    1  UNL1       -0.3040
      8 C         -19.0353   -9.1813   -5.5168 C.2     1  UNL1        0.2458
      9 O         -18.6109  -10.2055   -4.9165 O.2     1  UNL1       -0.2701
     10 H         -20.0472   -7.3200   -5.2762 H       1  UNL1        0.1496
     11 C         -17.8345   -8.4126   -2.9553 C.3     1  UNL1        0.0196
     12 C         -19.1988   -7.8035   -3.3347 C.3     1  UNL1        0.0572
     13 C         -19.1453   -6.2841   -3.0722 C.3     1  UNL1        0.0196
     14 C         -20.3171   -8.4105   -2.4650 C.3     1  UNL1        0.0196
     15 N         -21.1806   -7.7200   -9.7281 N.pl3   1  UNL1       -0.2120
     16 H         -20.9950   -7.2945  -10.6635 H       1  UNL1        0.1738
     17 S         -22.8203   -8.1126   -9.3371 S.O2    1  UNL1        0.0757
     18 O         -22.9772   -9.6055   -9.2903 O.2     1  UNL1       -0.1499
     19 O         -23.1597   -7.5798   -7.9731 O.2     1  UNL1       -0.1499
     20 C         -23.8661   -7.3401  -10.5583 C.ar    1  UNL1        0.1484
     21 C         -25.0940   -7.9508  -10.9264 C.ar    1  UNL1        0.0611
     22 N         -25.5339   -9.1874  -10.3445 N.pl3   1  UNL1       -0.3559
     23 C         -25.9404   -7.3217  -11.8505 C.ar    1  UNL1        0.0112
     24 C         -25.6123   -6.0735  -12.4068 C.ar    1  UNL1       -0.0204
     25 C         -24.4136   -5.4656  -12.0228 C.ar    1  UNL1        0.0086
     26 C         -23.5483   -6.0737  -11.1091 C.ar    1  UNL1        0.0774
     27 CL        -22.1132   -5.1549  -10.6646 Cl      1  UNL1       -0.0808
     28 H         -26.3639   -9.6879  -10.7341 H       1  UNL1        0.1424
     29 H         -25.1420   -9.5622   -9.4557 H       1  UNL1        0.1424
     30 C         -26.5123   -5.3114  -13.3659 C.3     1  UNL1        0.0224
     31 C         -27.5476   -6.1521  -14.0999 C.3     1  UNL1        0.0047
     32 C         -26.3756   -5.5499  -14.8645 C.3     1  UNL1        0.0047
     33 O         -19.3775   -9.2509  -11.2164 O.3     1  UNL1       -0.4513
     34 C         -20.5838   -9.4592  -11.8928 C.ar    1  UNL1        0.1580
     35 C         -21.1318   -8.4071  -12.6328 C.ar    1  UNL1        0.0677
     36 C         -22.3458   -8.5689  -13.3025 C.ar    1  UNL1        0.1398
     37 F         -22.8634   -7.5244  -13.9961 F       1  UNL1       -0.2044
     38 C         -23.0274   -9.7967  -13.2434 C.ar    1  UNL1        0.0175
     39 C         -22.4661  -10.8602  -12.5173 C.ar    1  UNL1        0.0130
     40 C         -21.2420  -10.7018  -11.8574 C.ar    1  UNL1        0.0919
     41 CL        -20.5408  -12.0769  -11.0160 Cl      1  UNL1       -0.0791
     42 C         -24.3826   -9.9472  -13.8798 C.3     1  UNL1        0.1382
     43 C         -24.2177  -10.2149  -15.3404 C.2     1  UNL1        0.3234
     44 O         -23.5813   -9.3959  -16.0581 O.2     1  UNL1       -0.2497
     45 O         -24.7199  -11.4039  -15.8807 O.3     1  UNL1       -0.4215
     46 C         -23.8998  -12.4008  -16.4916 C.3     1  UNL1        0.3207
     47 O         -24.6474  -13.6062  -16.6354 O.3     1  UNL1       -0.3070
     48 C         -24.5620  -14.4711  -15.5122 C.3     1  UNL1        0.2456
     49 C         -23.1116  -15.0056  -15.3120 C.3     1  UNL1        0.1781
     50 O         -22.9726  -16.2224  -16.0022 O.3     1  UNL1       -0.3790
     51 C         -22.0534  -14.0058  -15.8296 C.3     1  UNL1        0.1733
     52 O         -20.8657  -14.1638  -15.0959 O.3     1  UNL1       -0.3793
     53 C         -22.5708  -12.5654  -15.7001 C.3     1  UNL1        0.2106
     54 O         -21.6074  -11.6362  -16.1330 O.3     1  UNL1       -0.3766
     55 H         -22.1453  -16.6549  -15.6630 H       1  UNL1        0.2106
     56 H         -20.1283  -13.8065  -15.6565 H       1  UNL1        0.2105
     57 H         -21.3825  -11.8501  -17.0762 H       1  UNL1        0.2107
     58 C         -25.2000  -13.8511  -14.2859 C.2     1  UNL1        0.3439
     59 O         -24.6346  -13.8870  -13.1597 O.2     1  UNL1       -0.2475
     60 O         -26.4466  -13.2447  -14.4064 O.3     1  UNL1       -0.4785
     61 H         -26.8984  -12.8213  -13.6047 H       1  UNL1        0.2951
@<TRIPOS>BOND
     1    11    12    1
     2    12    13    1
     3    12    14    1
     4    12     7    1
     5     7     8   am
     6     8     9    2
     7     8     1    1
     8     1     2   ar
     9     2     3   ar
    10     3     4   ar
    11     4    33    1
    12    33    34    1
    13    34    35   ar
    14    35    36   ar
    15    36    37    1
    16    36    38   ar
    17    38    42    1
    18    42    43    1
    19    43    44    2
    20    43    45    1
    21    45    46    1
    22    46    47    1
    23    47    48    1
    24    48    58    1
    25    58    59    2
    26    58    60    1
    27    48    49    1
    28    49    50    1
    29    49    51    1
    30    51    52    1
    31    51    53    1
    32    53    54    1
    33    38    39   ar
    34    39    40   ar
    35    40    41    1
    36     4     5   ar
    37     5    15    1
    38    15    17    1
    39    17    18    2
    40    17    19    2
    41    17    20    1
    42    20    21   ar
    43    21    22    1
    44    21    23   ar
    45    23    24   ar
    46    24    30    1
    47    30    31    1
    48    31    32    1
    49    24    25   ar
    50    25    26   ar
    51    26    27    1
    52     5     6   ar
    53     6     1   ar
    54    40    34   ar
    55    26    20   ar
    56    53    46    1
    57    32    30    1
    58     7    10    1
    59    60    61    1
    60    50    55    1
    61    52    56    1
    62    54    57    1
    63    15    16    1
    64    22    28    1
    65    22    29    1
@<TRIPOS>MOLECULE
*****
 61 65 0 0 0
SMALL
GASTEIGER

@<TRIPOS>ATOM
      1 C         -26.6353   -5.1725  -14.2380 C.ar    1  UNL1        0.0548
      2 C         -26.7624   -4.9928  -12.8507 C.ar    1  UNL1        0.0077
      3 C         -26.1962   -5.9091  -11.9621 C.ar    1  UNL1        0.0390
      4 C         -25.4873   -7.0259  -12.4424 C.ar    1  UNL1        0.1598
      5 C         -25.3673   -7.2159  -13.8282 C.ar    1  UNL1        0.0993
      6 C         -25.9436   -6.2975  -14.7159 C.ar    1  UNL1        0.0235
      7 N         -28.6142   -4.4173  -15.6452 N.am    1  UNL1       -0.3040
      8 C         -27.2595   -4.2246  -15.1918 C.2     1  UNL1        0.2458
      9 O         -26.5930   -3.2324  -15.5926 O.2     1  UNL1       -0.2701
     10 H         -29.2053   -5.0927  -15.1096 H       1  UNL1        0.1496
     11 C         -28.1243   -3.2344  -17.7642 C.3     1  UNL1        0.0196
     12 C         -29.2219   -3.7280  -16.8009 C.3     1  UNL1        0.0572
     13 C         -30.1267   -4.7213  -17.5592 C.3     1  UNL1        0.0196
     14 C         -30.0873   -2.5454  -16.3235 C.3     1  UNL1        0.0196
     15 N         -24.7491   -8.4007  -14.3372 N.pl3   1  UNL1       -0.2120
     16 H         -25.3375   -9.1014  -14.8405 H       1  UNL1        0.1738
     17 S         -23.0577   -8.3638  -14.7028 S.O2    1  UNL1        0.0757
     18 O         -22.8496   -8.7570  -16.1373 O.2     1  UNL1       -0.1499
     19 O         -22.5317   -6.9654  -14.5369 O.2     1  UNL1       -0.1499
     20 C         -22.2337   -9.4529  -13.5553 C.ar    1  UNL1        0.1484
     21 C         -21.0862   -9.0015  -12.8514 C.ar    1  UNL1        0.0611
     22 N         -20.5536   -7.6803  -13.0306 N.pl3   1  UNL1       -0.3559
     23 C         -20.4650   -9.8386  -11.9135 C.ar    1  UNL1        0.0112
     24 C         -20.9728  -11.1179  -11.6297 C.ar    1  UNL1       -0.0204
     25 C         -22.1167  -11.5480  -12.3083 C.ar    1  UNL1        0.0086
     26 C         -22.7516  -10.7368  -13.2529 C.ar    1  UNL1        0.0774
     27 CL        -24.2241  -11.3828  -13.9710 Cl      1  UNL1       -0.0808
     28 H         -19.6308   -7.4226  -12.6147 H       1  UNL1        0.1424
     29 H         -21.1034   -6.9046  -13.4551 H       1  UNL1        0.1424
     30 C         -20.3835  -12.0495  -10.5829 C.3     1  UNL1        0.0224
     31 C         -18.9011  -11.8567  -10.2955 C.3     1  UNL1        0.0047
     32 C         -19.3802  -13.1127  -11.0121 C.3     1  UNL1        0.0047
     33 O         -24.9454   -7.9932  -11.5794 O.3     1  UNL1       -0.4513
     34 C         -23.8158   -7.8002  -10.7776 C.ar    1  UNL1        0.1580
     35 C         -23.0617   -6.6348  -10.9449 C.ar    1  UNL1        0.0677
     36 C         -21.9147   -6.4170  -10.1798 C.ar    1  UNL1        0.1398
     37 F         -21.1917   -5.2867  -10.3781 F       1  UNL1       -0.2044
     38 C         -21.5096   -7.3678   -9.2273 C.ar    1  UNL1        0.0175
     39 C         -22.2792   -8.5287   -9.0443 C.ar    1  UNL1        0.0130
     40 C         -23.4368   -8.7401   -9.8021 C.ar    1  UNL1        0.0919
     41 CL        -24.4087  -10.1727   -9.4958 Cl      1  UNL1       -0.0791
     42 C         -20.2220   -7.1867   -8.4699 C.3     1  UNL1        0.1382
     43 C         -19.6613   -8.5259   -8.1173 C.2     1  UNL1        0.3234
     44 O         -19.0486   -9.1971   -8.9918 O.2     1  UNL1       -0.2497
     45 O         -19.7706   -8.9904   -6.8019 O.3     1  UNL1       -0.4215
     46 C         -19.6296   -8.1512   -5.6549 C.3     1  UNL1        0.3207
     47 O         -18.2545   -7.8196   -5.4768 O.3     1  UNL1       -0.3070
     48 C         -17.5410   -8.7468   -4.6716 C.3     1  UNL1        0.2456
     49 C         -18.0699   -8.7552   -3.2054 C.3     1  UNL1        0.1781
     50 O         -17.3270   -7.8351   -2.4453 O.3     1  UNL1       -0.3790
     51 C         -19.5672   -8.3812   -3.1317 C.3     1  UNL1        0.1733
     52 O         -20.1470   -9.0003   -2.0117 O.3     1  UNL1       -0.3793
     53 C         -20.2907   -8.8176   -4.4145 C.3     1  UNL1        0.2106
     54 O         -21.6638   -8.5182   -4.3529 O.3     1  UNL1       -0.3766
     55 H         -17.5086   -8.0355   -1.4896 H       1  UNL1        0.2106
     56 H         -20.9585   -8.4781   -1.7788 H       1  UNL1        0.2105
     57 H         -21.7546   -7.5400   -4.2083 H       1  UNL1        0.2107
     58 C         -17.4522  -10.1049   -5.3371 C.2     1  UNL1        0.3439
     59 O         -17.4629  -11.1705   -4.6635 O.2     1  UNL1       -0.2475
     60 O         -17.3386  -10.1724   -6.7223 O.3     1  UNL1       -0.4785
     61 H         -17.2776  -11.0657   -7.1960 H       1  UNL1        0.2951
@<TRIPOS>BOND
     1    11    12    1
     2    12    13    1
     3    12    14    1
     4    12     7    1
     5     7     8   am
     6     8     9    2
     7     8     1    1
     8     1     2   ar
     9     2     3   ar
    10     3     4   ar
    11     4    33    1
    12    33    34    1
    13    34    35   ar
    14    35    36   ar
    15    36    37    1
    16    36    38   ar
    17    38    42    1
    18    42    43    1
    19    43    44    2
    20    43    45    1
    21    45    46    1
    22    46    47    1
    23    47    48    1
    24    48    58    1
    25    58    59    2
    26    58    60    1
    27    48    49    1
    28    49    50    1
    29    49    51    1
    30    51    52    1
    31    51    53    1
    32    53    54    1
    33    38    39   ar
    34    39    40   ar
    35    40    41    1
    36     4     5   ar
    37     5    15    1
    38    15    17    1
    39    17    18    2
    40    17    19    2
    41    17    20    1
    42    20    21   ar
    43    21    22    1
    44    21    23   ar
    45    23    24   ar
    46    24    30    1
    47    30    31    1
    48    31    32    1
    49    24    25   ar
    50    25    26   ar
    51    26    27    1
    52     5     6   ar
    53     6     1   ar
    54    40    34   ar
    55    26    20   ar
    56    53    46    1
    57    32    30    1
    58     7    10    1
    59    60    61    1
    60    50    55    1
    61    52    56    1
    62    54    57    1
    63    15    16    1
    64    22    28    1
    65    22    29    1
@<TRIPOS>MOLECULE
*****
 61 65 0 0 0
SMALL
GASTEIGER

@<TRIPOS>ATOM
      1 C         -20.2464   -7.7697   -8.3497 C.ar    1  UNL1        0.0548
      2 C         -20.7750   -6.5350   -8.7608 C.ar    1  UNL1        0.0077
      3 C         -21.1988   -6.3483  -10.0782 C.ar    1  UNL1        0.0390
      4 C         -21.1048   -7.3949  -11.0142 C.ar    1  UNL1        0.1598
      5 C         -20.5666   -8.6272  -10.6109 C.ar    1  UNL1        0.0993
      6 C         -20.1360   -8.8072   -9.2897 C.ar    1  UNL1        0.0235
      7 N         -18.4699   -7.4825   -6.5530 N.am    1  UNL1       -0.3040
      8 C         -19.7630   -7.9703   -6.9626 C.2     1  UNL1        0.2458
      9 O         -20.5073   -8.5627   -6.1353 O.2     1  UNL1       -0.2701
     10 H         -17.9992   -6.7922   -7.1809 H       1  UNL1        0.1496
     11 C         -17.5159   -9.4027   -5.3150 C.3     1  UNL1        0.0196
     12 C         -17.7722   -7.8826   -5.3147 C.3     1  UNL1        0.0572
     13 C         -16.4117   -7.1580   -5.2484 C.3     1  UNL1        0.0196
     14 C         -18.6013   -7.4793   -4.0797 C.3     1  UNL1        0.0196
     15 N         -20.3588   -9.6660  -11.5715 N.pl3   1  UNL1       -0.2120
     16 H         -19.5840   -9.5658  -12.2644 H       1  UNL1        0.1738
     17 S         -20.8917  -11.2681  -11.1911 S.O2    1  UNL1        0.0757
     18 O         -19.6970  -12.1564  -10.9930 O.2     1  UNL1       -0.1499
     19 O         -21.6633  -11.2548   -9.9010 O.2     1  UNL1       -0.1499
     20 C         -21.9529  -11.8131  -12.5172 C.ar    1  UNL1        0.1484
     21 C         -21.4943  -12.7986  -13.4307 C.ar    1  UNL1        0.0611
     22 N         -20.1871  -13.3832  -13.3274 N.pl3   1  UNL1       -0.3559
     23 C         -22.3436  -13.2634  -14.4451 C.ar    1  UNL1        0.0112
     24 C         -23.6623  -12.7925  -14.5639 C.ar    1  UNL1       -0.0204
     25 C         -24.1164  -11.8399  -13.6472 C.ar    1  UNL1        0.0086
     26 C         -23.2889  -11.3543  -12.6309 C.ar    1  UNL1        0.0774
     27 CL        -24.0222  -10.2142  -11.5068 Cl      1  UNL1       -0.0808
     28 H         -19.8207  -13.9946  -14.0909 H       1  UNL1        0.1424
     29 H         -19.6162  -13.3354  -12.4579 H       1  UNL1        0.1424
     30 C         -24.6515  -13.2985  -15.6013 C.3     1  UNL1        0.0224
     31 C         -25.8369  -14.0782  -15.0499 C.3     1  UNL1        0.0047
     32 C         -24.7626  -14.7964  -15.8565 C.3     1  UNL1        0.0047
     33 O         -21.4769   -7.2288  -12.3589 O.3     1  UNL1       -0.4513
     34 C         -22.7845   -7.0019  -12.8001 C.ar    1  UNL1        0.1580
     35 C         -23.5807   -6.0860  -12.1058 C.ar    1  UNL1        0.0677
     36 C         -24.8983   -5.8497  -12.5015 C.ar    1  UNL1        0.1398
     37 F         -25.6534   -4.9705  -11.7967 F       1  UNL1       -0.2044
     38 C         -25.4362   -6.5283  -13.6085 C.ar    1  UNL1        0.0175
     39 C         -24.6295   -7.4327  -14.3189 C.ar    1  UNL1        0.0130
     40 C         -23.3041   -7.6590  -13.9301 C.ar    1  UNL1        0.0919
     41 CL        -22.3074   -8.7473  -14.8856 Cl      1  UNL1       -0.0791
     42 C         -26.8838   -6.3528  -13.9800 C.3     1  UNL1        0.1382
     43 C         -27.0110   -5.2384  -14.9669 C.2     1  UNL1        0.3234
     44 O         -26.0347   -4.9471  -15.7103 O.2     1  UNL1       -0.2497
     45 O         -28.2350   -4.5726  -15.0956 O.3     1  UNL1       -0.4215
     46 C         -28.4060   -3.3767  -15.8572 C.3     1  UNL1        0.3207
     47 O         -29.5220   -2.6482  -15.3509 O.3     1  UNL1       -0.3070
     48 C         -30.7587   -3.0026  -15.9527 C.3     1  UNL1        0.2456
     49 C         -30.7838   -2.6324  -17.4666 C.3     1  UNL1        0.1781
     50 O         -31.3166   -1.3397  -17.6131 O.3     1  UNL1       -0.3790
     51 C         -29.3716   -2.6722  -18.0922 C.3     1  UNL1        0.1733
     52 O         -29.4762   -2.9854  -19.4578 O.3     1  UNL1       -0.3793
     53 C         -28.4980   -3.7114  -17.3736 C.3     1  UNL1        0.2106
     54 O         -27.2179   -3.7891  -17.9516 O.3     1  UNL1       -0.3766
     55 H         -31.5491   -1.2293  -18.5724 H       1  UNL1        0.2106
     56 H         -28.6501   -2.6523  -19.8962 H       1  UNL1        0.2105
     57 H         -26.8084   -2.8858  -17.9038 H       1  UNL1        0.2107
     58 C         -31.1436   -4.4314  -15.6276 C.2     1  UNL1        0.3439
     59 O         -31.9868   -4.6983  -14.7293 O.2     1  UNL1       -0.2475
     60 O         -30.5370   -5.4702  -16.3270 O.3     1  UNL1       -0.4785
     61 H         -30.7738   -6.4357  -16.1324 H       1  UNL1        0.2951
@<TRIPOS>BOND
     1    11    12    1
     2    12    13    1
     3    12    14    1
     4    12     7    1
     5     7     8   am
     6     8     9    2
     7     8     1    1
     8     1     2   ar
     9     2     3   ar
    10     3     4   ar
    11     4    33    1
    12    33    34    1
    13    34    35   ar
    14    35    36   ar
    15    36    37    1
    16    36    38   ar
    17    38    42    1
    18    42    43    1
    19    43    44    2
    20    43    45    1
    21    45    46    1
    22    46    47    1
    23    47    48    1
    24    48    58    1
    25    58    59    2
    26    58    60    1
    27    48    49    1
    28    49    50    1
    29    49    51    1
    30    51    52    1
    31    51    53    1
    32    53    54    1
    33    38    39   ar
    34    39    40   ar
    35    40    41    1
    36     4     5   ar
    37     5    15    1
    38    15    17    1
    39    17    18    2
    40    17    19    2
    41    17    20    1
    42    20    21   ar
    43    21    22    1
    44    21    23   ar
    45    23    24   ar
    46    24    30    1
    47    30    31    1
    48    31    32    1
    49    24    25   ar
    50    25    26   ar
    51    26    27    1
    52     5     6   ar
    53     6     1   ar
    54    40    34   ar
    55    26    20   ar
    56    53    46    1
    57    32    30    1
    58     7    10    1
    59    60    61    1
    60    50    55    1
    61    52    56    1
    62    54    57    1
    63    15    16    1
    64    22    28    1
    65    22    29    1
@<TRIPOS>MOLECULE
*****
 61 65 0 0 0
SMALL
GASTEIGER

@<TRIPOS>ATOM
      1 C         -20.1219   -8.2598   -7.3995 C.ar    1  UNL1        0.0548
      2 C         -19.6886   -7.5750   -8.5468 C.ar    1  UNL1        0.0077
      3 C         -20.5984   -7.2121   -9.5420 C.ar    1  UNL1        0.0390
      4 C         -21.9642   -7.5247   -9.4102 C.ar    1  UNL1        0.1598
      5 C         -22.4002   -8.2190   -8.2706 C.ar    1  UNL1        0.0993
      6 C         -21.4822   -8.5875   -7.2782 C.ar    1  UNL1        0.0235
      7 N         -19.1707   -8.0599   -5.0497 N.am    1  UNL1       -0.3040
      8 C         -19.1611   -8.6792   -6.3513 C.2     1  UNL1        0.2458
      9 O         -18.3401   -9.6009   -6.6077 O.2     1  UNL1       -0.2701
     10 H         -20.0101   -7.4902   -4.7982 H       1  UNL1        0.1496
     11 C         -16.7841   -7.5725   -4.6071 C.3     1  UNL1        0.0196
     12 C         -18.0883   -8.1784   -4.0524 C.3     1  UNL1        0.0572
     13 C         -18.4878   -7.3984   -2.7826 C.3     1  UNL1        0.0196
     14 C         -17.8728   -9.6560   -3.6705 C.3     1  UNL1        0.0196
     15 N         -23.7618   -8.6444   -8.1692 N.pl3   1  UNL1       -0.2120
     16 H         -24.4921   -7.9439   -7.9115 H       1  UNL1        0.1738
     17 S         -24.2666  -10.0356   -9.0666 S.O2    1  UNL1        0.0757
     18 O         -23.0596  -10.8342   -9.4677 O.2     1  UNL1       -0.1499
     19 O         -25.1234  -10.9163   -8.2005 O.2     1  UNL1       -0.1499
     20 C         -25.2176   -9.4617  -10.4622 C.ar    1  UNL1        0.1484
     21 C         -26.1455   -8.3997  -10.2974 C.ar    1  UNL1        0.0611
     22 N         -26.3521   -7.7590   -9.0292 N.pl3   1  UNL1       -0.3559
     23 C         -26.8594   -7.9147  -11.4025 C.ar    1  UNL1        0.0112
     24 C         -26.6561   -8.4415  -12.6894 C.ar    1  UNL1       -0.0204
     25 C         -25.7241   -9.4708  -12.8501 C.ar    1  UNL1        0.0086
     26 C         -25.0041   -9.9777  -11.7647 C.ar    1  UNL1        0.0774
     27 CL        -23.8119  -11.2206  -12.1324 Cl      1  UNL1       -0.0808
     28 H         -27.1387   -7.0838   -8.9012 H       1  UNL1        0.1424
     29 H         -25.6725   -7.8329   -8.2438 H       1  UNL1        0.1424
     30 C         -27.3519   -7.9210  -13.9367 C.3     1  UNL1        0.0224
     31 C         -27.5559   -6.4135  -13.9915 C.3     1  UNL1        0.0047
     32 C         -28.7545   -7.3379  -13.8189 C.3     1  UNL1        0.0047
     33 O         -22.8999   -7.2177  -10.4123 O.3     1  UNL1       -0.4513
     34 C         -22.7513   -7.5404  -11.7651 C.ar    1  UNL1        0.1580
     35 C         -21.9362   -8.6213  -12.1145 C.ar    1  UNL1        0.0677
     36 C         -21.7446   -8.9600  -13.4550 C.ar    1  UNL1        0.1398
     37 F         -20.9323  -10.0012  -13.7649 F       1  UNL1       -0.2044
     38 C         -22.3760   -8.2186  -14.4684 C.ar    1  UNL1        0.0175
     39 C         -23.2118   -7.1459  -14.1164 C.ar    1  UNL1        0.0130
     40 C         -23.4146   -6.8153  -12.7715 C.ar    1  UNL1        0.0919
     41 CL        -24.5206   -5.5090  -12.3703 Cl      1  UNL1       -0.0791
     42 C         -22.0959   -8.5157  -15.9168 C.3     1  UNL1        0.1382
     43 C         -23.0076   -9.6025  -16.3856 C.2     1  UNL1        0.3234
     44 O         -23.6373   -9.4661  -17.4698 O.2     1  UNL1       -0.2497
     45 O         -23.1028  -10.7853  -15.6440 O.3     1  UNL1       -0.4215
     46 C         -22.7348  -12.0676  -16.1538 C.3     1  UNL1        0.3207
     47 O         -23.8172  -12.6049  -16.9103 O.3     1  UNL1       -0.3070
     48 C         -24.7337  -13.3669  -16.1379 C.3     1  UNL1        0.2456
     49 C         -24.0651  -14.6518  -15.5621 C.3     1  UNL1        0.1781
     50 O         -24.2588  -15.7125  -16.4643 O.3     1  UNL1       -0.3790
     51 C         -22.5504  -14.4565  -15.3276 C.3     1  UNL1        0.1733
     52 O         -22.1314  -15.2877  -14.2752 O.3     1  UNL1       -0.3793
     53 C         -22.2458  -12.9874  -14.9986 C.3     1  UNL1        0.2106
     54 O         -20.8754  -12.7946  -14.7460 O.3     1  UNL1       -0.3766
     55 H         -24.0500  -16.5509  -15.9747 H       1  UNL1        0.2106
     56 H         -21.1543  -15.4246  -14.3847 H       1  UNL1        0.2105
     57 H         -20.3743  -13.0904  -15.5506 H       1  UNL1        0.2107
     58 C         -25.4574  -12.5028  -15.1256 C.2     1  UNL1        0.3439
     59 O         -25.7382  -12.9322  -13.9740 O.2     1  UNL1       -0.2475
     60 O         -25.8345  -11.2126  -15.4853 O.3     1  UNL1       -0.4785
     61 H         -26.3194  -10.6110  -14.8303 H       1  UNL1        0.2951
@<TRIPOS>BOND
     1    11    12    1
     2    12    13    1
     3    12    14    1
     4    12     7    1
     5     7     8   am
     6     8     9    2
     7     8     1    1
     8     1     2   ar
     9     2     3   ar
    10     3     4   ar
    11     4    33    1
    12    33    34    1
    13    34    35   ar
    14    35    36   ar
    15    36    37    1
    16    36    38   ar
    17    38    42    1
    18    42    43    1
    19    43    44    2
    20    43    45    1
    21    45    46    1
    22    46    47    1
    23    47    48    1
    24    48    58    1
    25    58    59    2
    26    58    60    1
    27    48    49    1
    28    49    50    1
    29    49    51    1
    30    51    52    1
    31    51    53    1
    32    53    54    1
    33    38    39   ar
    34    39    40   ar
    35    40    41    1
    36     4     5   ar
    37     5    15    1
    38    15    17    1
    39    17    18    2
    40    17    19    2
    41    17    20    1
    42    20    21   ar
    43    21    22    1
    44    21    23   ar
    45    23    24   ar
    46    24    30    1
    47    30    31    1
    48    31    32    1
    49    24    25   ar
    50    25    26   ar
    51    26    27    1
    52     5     6   ar
    53     6     1   ar
    54    40    34   ar
    55    26    20   ar
    56    53    46    1
    57    32    30    1
    58     7    10    1
    59    60    61    1
    60    50    55    1
    61    52    56    1
    62    54    57    1
    63    15    16    1
    64    22    28    1
    65    22    29    1
@<TRIPOS>MOLECULE
*****
 61 65 0 0 0
SMALL
GASTEIGER

@<TRIPOS>ATOM
      1 C         -26.2680   -6.4756  -14.0280 C.ar    1  UNL1        0.0548
      2 C         -26.8098   -7.3413  -13.0636 C.ar    1  UNL1        0.0077
      3 C         -26.0435   -8.3815  -12.5339 C.ar    1  UNL1        0.0390
      4 C         -24.7155   -8.5777  -12.9564 C.ar    1  UNL1        0.1598
      5 C         -24.1733   -7.7220  -13.9284 C.ar    1  UNL1        0.0993
      6 C         -24.9488   -6.6842  -14.4623 C.ar    1  UNL1        0.0235
      7 N         -26.9333   -5.0274  -16.0095 N.am    1  UNL1       -0.3040
      8 C         -27.0816   -5.3878  -14.6218 C.2     1  UNL1        0.2458
      9 O         -27.9219   -4.7879  -13.8982 O.2     1  UNL1       -0.2701
     10 H         -26.4209   -5.6989  -16.6251 H       1  UNL1        0.1496
     11 C         -26.6805   -2.5657  -16.0881 C.3     1  UNL1        0.0196
     12 C         -27.4559   -3.7879  -16.6185 C.3     1  UNL1        0.0572
     13 C         -27.2658   -3.8609  -18.1478 C.3     1  UNL1        0.0196
     14 C         -28.9605   -3.6388  -16.3198 C.3     1  UNL1        0.0196
     15 N         -22.8664   -7.9716  -14.4526 N.pl3   1  UNL1       -0.2120
     16 H         -22.1035   -8.2501  -13.7963 H       1  UNL1        0.1738
     17 S         -22.7130   -8.4493  -16.1091 S.O2    1  UNL1        0.0757
     18 O         -23.8376   -7.8522  -16.9057 O.2     1  UNL1       -0.1499
     19 O         -21.4263   -7.9168  -16.6751 O.2     1  UNL1       -0.1499
     20 C         -22.6952  -10.2323  -16.1571 C.ar    1  UNL1        0.1484
     21 C         -21.4739  -10.9218  -16.3789 C.ar    1  UNL1        0.0611
     22 N         -20.2315  -10.2280  -16.5698 N.pl3   1  UNL1       -0.3559
     23 C         -21.4487  -12.3237  -16.3694 C.ar    1  UNL1        0.0112
     24 C         -22.6111  -13.0716  -16.1153 C.ar    1  UNL1       -0.0204
     25 C         -23.8060  -12.3874  -15.8740 C.ar    1  UNL1        0.0086
     26 C         -23.8607  -10.9908  -15.8845 C.ar    1  UNL1        0.0774
     27 CL        -25.4177  -10.2690  -15.4898 Cl      1  UNL1       -0.0808
     28 H         -19.3782  -10.7479  -16.8740 H       1  UNL1        0.1424
     29 H         -20.0945   -9.2329  -16.2954 H       1  UNL1        0.1424
     30 C         -22.6398  -14.5891  -16.0314 C.3     1  UNL1        0.0224
     31 C         -23.9867  -15.1993  -15.6700 C.3     1  UNL1        0.0047
     32 C         -22.8339  -15.2568  -14.6758 C.3     1  UNL1        0.0047
     33 O         -23.9308   -9.6417  -12.4809 O.3     1  UNL1       -0.4513
     34 C         -22.8567   -9.5043  -11.5957 C.ar    1  UNL1        0.1580
     35 C         -21.6227   -9.0766  -12.0947 C.ar    1  UNL1        0.0677
     36 C         -20.5211   -8.9496  -11.2469 C.ar    1  UNL1        0.1398
     37 F         -19.3314   -8.5518  -11.7628 F       1  UNL1       -0.2044
     38 C         -20.6445   -9.2460   -9.8786 C.ar    1  UNL1        0.0175
     39 C         -21.8898   -9.6553   -9.3735 C.ar    1  UNL1        0.0130
     40 C         -22.9975   -9.7692  -10.2214 C.ar    1  UNL1        0.0919
     41 CL        -24.5537  -10.2192   -9.5384 Cl      1  UNL1       -0.0791
     42 C         -19.4391   -9.2067   -8.9787 C.3     1  UNL1        0.1382
     43 C         -19.7280   -8.3348   -7.8004 C.2     1  UNL1        0.3234
     44 O         -20.1976   -7.1779   -7.9789 O.2     1  UNL1       -0.2497
     45 O         -19.5306   -8.8383   -6.5099 O.3     1  UNL1       -0.4215
     46 C         -19.4675   -8.0163   -5.3437 C.3     1  UNL1        0.3207
     47 O         -18.1047   -7.7260   -5.0420 O.3     1  UNL1       -0.3070
     48 C         -17.4899   -8.6820   -4.1904 C.3     1  UNL1        0.2456
     49 C         -18.1450   -8.6917   -2.7761 C.3     1  UNL1        0.1781
     50 O         -17.4465   -7.8016   -1.9417 O.3     1  UNL1       -0.3790
     51 C         -19.6322   -8.2761   -2.8279 C.3     1  UNL1        0.1733
     52 O         -20.3244   -8.8909   -1.7712 O.3     1  UNL1       -0.3793
     53 C         -20.2525   -8.6774   -4.1747 C.3     1  UNL1        0.2106
     54 O         -21.6170   -8.3398   -4.2288 O.3     1  UNL1       -0.3766
     55 H         -17.7163   -8.0074   -1.0083 H       1  UNL1        0.2106
     56 H         -21.1386   -8.3484   -1.6028 H       1  UNL1        0.2105
     57 H         -21.6933   -7.3611   -4.0794 H       1  UNL1        0.2107
     58 C         -17.3805  -10.0346   -4.8641 C.2     1  UNL1        0.3439
     59 O         -17.5449  -11.1062   -4.2206 O.2     1  UNL1       -0.2475
     60 O         -17.0740  -10.0911   -6.2202 O.3     1  UNL1       -0.4785
     61 H         -16.9942  -10.9805   -6.6985 H       1  UNL1        0.2951
@<TRIPOS>BOND
     1    11    12    1
     2    12    13    1
     3    12    14    1
     4    12     7    1
     5     7     8   am
     6     8     9    2
     7     8     1    1
     8     1     2   ar
     9     2     3   ar
    10     3     4   ar
    11     4    33    1
    12    33    34    1
    13    34    35   ar
    14    35    36   ar
    15    36    37    1
    16    36    38   ar
    17    38    42    1
    18    42    43    1
    19    43    44    2
    20    43    45    1
    21    45    46    1
    22    46    47    1
    23    47    48    1
    24    48    58    1
    25    58    59    2
    26    58    60    1
    27    48    49    1
    28    49    50    1
    29    49    51    1
    30    51    52    1
    31    51    53    1
    32    53    54    1
    33    38    39   ar
    34    39    40   ar
    35    40    41    1
    36     4     5   ar
    37     5    15    1
    38    15    17    1
    39    17    18    2
    40    17    19    2
    41    17    20    1
    42    20    21   ar
    43    21    22    1
    44    21    23   ar
    45    23    24   ar
    46    24    30    1
    47    30    31    1
    48    31    32    1
    49    24    25   ar
    50    25    26   ar
    51    26    27    1
    52     5     6   ar
    53     6     1   ar
    54    40    34   ar
    55    26    20   ar
    56    53    46    1
    57    32    30    1
    58     7    10    1
    59    60    61    1
    60    50    55    1
    61    52    56    1
    62    54    57    1
    63    15    16    1
    64    22    28    1
    65    22    29    1
@<TRIPOS>MOLECULE
*****
 61 65 0 0 0
SMALL
GASTEIGER

@<TRIPOS>ATOM
      1 C         -28.6481   -5.1618  -15.0877 C.ar    1  UNL1        0.0548
      2 C         -27.7445   -4.2779  -15.7005 C.ar    1  UNL1        0.0077
      3 C         -26.3674   -4.4639  -15.5635 C.ar    1  UNL1        0.0390
      4 C         -25.8629   -5.5409  -14.8112 C.ar    1  UNL1        0.1598
      5 C         -26.7621   -6.4203  -14.1875 C.ar    1  UNL1        0.0993
      6 C         -28.1432   -6.2252  -14.3219 C.ar    1  UNL1        0.0235
      7 N         -30.7201   -3.7232  -14.7659 N.am    1  UNL1       -0.3040
      8 C         -30.1121   -4.9565  -15.1985 C.2     1  UNL1        0.2458
      9 O         -30.8224   -5.8729  -15.6935 O.2     1  UNL1       -0.2701
     10 H         -30.0846   -2.9103  -14.5994 H       1  UNL1        0.1496
     11 C         -32.7845   -4.7874  -13.9084 C.3     1  UNL1        0.0196
     12 C         -32.1675   -3.5283  -14.5488 C.3     1  UNL1        0.0572
     13 C         -32.3756   -2.3395  -13.5875 C.3     1  UNL1        0.0196
     14 C         -32.8696   -3.2066  -15.8826 C.3     1  UNL1        0.0196
     15 N         -26.2730   -7.4534  -13.3281 N.pl3   1  UNL1       -0.2120
     16 H         -25.7066   -8.2277  -13.7405 H       1  UNL1        0.1738
     17 S         -26.0437   -7.0985  -11.6497 S.O2    1  UNL1        0.0757
     18 O         -26.3749   -5.6557  -11.3960 O.2     1  UNL1       -0.1499
     19 O         -26.9827   -7.9299  -10.8210 O.2     1  UNL1       -0.1499
     20 C         -24.3578   -7.5093  -11.2365 C.ar    1  UNL1        0.1484
     21 C         -24.0003   -8.8601  -10.9842 C.ar    1  UNL1        0.0611
     22 N         -24.9595   -9.9265  -11.0492 N.pl3   1  UNL1       -0.3559
     23 C         -22.6666   -9.1921  -10.7064 C.ar    1  UNL1        0.0112
     24 C         -21.6585   -8.2130  -10.6989 C.ar    1  UNL1       -0.0204
     25 C         -22.0121   -6.8883  -10.9714 C.ar    1  UNL1        0.0086
     26 C         -23.3348   -6.5288  -11.2446 C.ar    1  UNL1        0.0774
     27 CL        -23.6160   -4.8366  -11.6430 Cl      1  UNL1       -0.0808
     28 H         -24.7062  -10.8847  -10.7195 H       1  UNL1        0.1424
     29 H         -25.8760   -9.8305  -11.5338 H       1  UNL1        0.1424
     30 C         -20.1871   -8.5148  -10.4650 C.3     1  UNL1        0.0224
     31 C         -19.8472   -9.9819  -10.2432 C.3     1  UNL1        0.0047
     32 C         -19.7337   -8.9919   -9.0910 C.3     1  UNL1        0.0047
     33 O         -24.4852   -5.7316  -14.6125 O.3     1  UNL1       -0.4513
     34 C         -23.7487   -6.8047  -15.1247 C.ar    1  UNL1        0.1580
     35 C         -23.1454   -7.6952  -14.2316 C.ar    1  UNL1        0.0677
     36 C         -22.3831   -8.7649  -14.7039 C.ar    1  UNL1        0.1398
     37 F         -21.7929   -9.6010  -13.8137 F       1  UNL1       -0.2044
     38 C         -22.2196   -8.9602  -16.0861 C.ar    1  UNL1        0.0175
     39 C         -22.8435   -8.0779  -16.9836 C.ar    1  UNL1        0.0130
     40 C         -23.6191   -7.0135  -16.5097 C.ar    1  UNL1        0.0919
     41 CL        -24.4379   -5.9721  -17.6654 Cl      1  UNL1       -0.0791
     42 C         -21.3195  -10.0511  -16.6002 C.3     1  UNL1        0.1382
     43 C         -22.1372  -11.2607  -16.9170 C.2     1  UNL1        0.3234
     44 O         -21.6124  -12.2250  -17.5379 O.2     1  UNL1       -0.2497
     45 O         -23.4595  -11.3323  -16.4651 O.3     1  UNL1       -0.4215
     46 C         -24.2124  -12.5450  -16.4182 C.3     1  UNL1        0.3207
     47 O         -25.5526  -12.2556  -16.0273 O.3     1  UNL1       -0.3070
     48 C         -25.7571  -12.2773  -14.6220 C.3     1  UNL1        0.2456
     49 C         -25.5448  -13.7059  -14.0360 C.3     1  UNL1        0.1781
     50 O         -26.7772  -14.3822  -14.0201 O.3     1  UNL1       -0.3790
     51 C         -24.5292  -14.5230  -14.8656 C.3     1  UNL1        0.1733
     52 O         -23.8872  -15.4529  -14.0306 O.3     1  UNL1       -0.3793
     53 C         -23.4964  -13.5900  -15.5154 C.3     1  UNL1        0.2106
     54 O         -22.5402  -14.3177  -16.2468 O.3     1  UNL1       -0.3766
     55 H         -26.6663  -15.1723  -13.4286 H       1  UNL1        0.2106
     56 H         -23.5415  -16.1774  -14.6147 H       1  UNL1        0.2105
     57 H         -23.0231  -14.8475  -16.9339 H       1  UNL1        0.2107
     58 C         -24.9839  -11.1717  -13.9326 C.2     1  UNL1        0.3439
     59 O         -25.3203   -9.9621  -14.0474 O.2     1  UNL1       -0.2475
     60 O         -23.8674  -11.5018  -13.1708 O.3     1  UNL1       -0.4785
     61 H         -23.3303  -10.7849  -12.6978 H       1  UNL1        0.2951
@<TRIPOS>BOND
     1    11    12    1
     2    12    13    1
     3    12    14    1
     4    12     7    1
     5     7     8   am
     6     8     9    2
     7     8     1    1
     8     1     2   ar
     9     2     3   ar
    10     3     4   ar
    11     4    33    1
    12    33    34    1
    13    34    35   ar
    14    35    36   ar
    15    36    37    1
    16    36    38   ar
    17    38    42    1
    18    42    43    1
    19    43    44    2
    20    43    45    1
    21    45    46    1
    22    46    47    1
    23    47    48    1
    24    48    58    1
    25    58    59    2
    26    58    60    1
    27    48    49    1
    28    49    50    1
    29    49    51    1
    30    51    52    1
    31    51    53    1
    32    53    54    1
    33    38    39   ar
    34    39    40   ar
    35    40    41    1
    36     4     5   ar
    37     5    15    1
    38    15    17    1
    39    17    18    2
    40    17    19    2
    41    17    20    1
    42    20    21   ar
    43    21    22    1
    44    21    23   ar
    45    23    24   ar
    46    24    30    1
    47    30    31    1
    48    31    32    1
    49    24    25   ar
    50    25    26   ar
    51    26    27    1
    52     5     6   ar
    53     6     1   ar
    54    40    34   ar
    55    26    20   ar
    56    53    46    1
    57    32    30    1
    58     7    10    1
    59    60    61    1
    60    50    55    1
    61    52    56    1
    62    54    57    1
    63    15    16    1
    64    22    28    1
    65    22    29    1
@<TRIPOS>MOLECULE
*****
 61 65 0 0 0
SMALL
GASTEIGER

@<TRIPOS>ATOM
      1 C         -26.2091   -6.5059  -13.8683 C.ar    1  UNL1        0.0548
      2 C         -26.4914   -6.7918  -12.5223 C.ar    1  UNL1        0.0077
      3 C         -25.8138   -7.8161  -11.8577 C.ar    1  UNL1        0.0390
      4 C         -24.8359   -8.5767  -12.5253 C.ar    1  UNL1        0.1598
      5 C         -24.5584   -8.3021  -13.8738 C.ar    1  UNL1        0.0993
      6 C         -25.2463   -7.2781  -14.5384 C.ar    1  UNL1        0.0235
      7 N         -26.6202   -5.1220  -15.9616 N.am    1  UNL1       -0.3040
      8 C         -26.9445   -5.4429  -14.5942 C.2     1  UNL1        0.2458
      9 O         -27.8736   -4.8291  -14.0032 O.2     1  UNL1       -0.2701
     10 H         -26.0297   -5.8069  -16.4856 H       1  UNL1        0.1496
     11 C         -26.8156   -4.0486  -18.1841 C.3     1  UNL1        0.0196
     12 C         -27.0657   -3.9053  -16.6698 C.3     1  UNL1        0.0572
     13 C         -28.5798   -3.7168  -16.4405 C.3     1  UNL1        0.0196
     14 C         -26.3305   -2.6674  -16.1200 C.3     1  UNL1        0.0196
     15 N         -23.6508   -9.1340  -14.6014 N.pl3   1  UNL1       -0.2120
     16 H         -23.9037  -10.1335  -14.7672 H       1  UNL1        0.1738
     17 S         -22.5505   -8.3907  -15.7115 S.O2    1  UNL1        0.0757
     18 O         -22.0887   -7.0764  -15.1502 O.2     1  UNL1       -0.1499
     19 O         -21.3362   -9.2600  -15.8832 O.2     1  UNL1       -0.1499
     20 C         -23.3922   -8.2234  -17.2752 C.ar    1  UNL1        0.1484
     21 C         -23.8111   -6.9415  -17.7195 C.ar    1  UNL1        0.0611
     22 N         -23.5801   -5.7543  -16.9457 N.pl3   1  UNL1       -0.3559
     23 C         -24.4301   -6.8006  -18.9698 C.ar    1  UNL1        0.0112
     24 C         -24.6233   -7.9061  -19.8157 C.ar    1  UNL1       -0.0204
     25 C         -24.1875   -9.1620  -19.3835 C.ar    1  UNL1        0.0086
     26 C         -23.5739   -9.3318  -18.1393 C.ar    1  UNL1        0.0774
     27 CL        -23.0107  -10.9574  -17.7634 Cl      1  UNL1       -0.0808
     28 H         -24.0228   -4.8497  -17.2225 H       1  UNL1        0.1424
     29 H         -22.8792   -5.7110  -16.1770 H       1  UNL1        0.1424
     30 C         -25.2318   -7.8122  -21.2056 C.3     1  UNL1        0.0224
     31 C         -25.4660   -9.1418  -21.9088 C.3     1  UNL1        0.0047
     32 C         -24.3877   -8.1925  -22.4156 C.3     1  UNL1        0.0047
     33 O         -24.1684   -9.6449  -11.9030 O.3     1  UNL1       -0.4513
     34 C         -23.0151   -9.5157  -11.1224 C.ar    1  UNL1        0.1580
     35 C         -21.8292   -9.1009  -11.7357 C.ar    1  UNL1        0.0677
     36 C         -20.6521   -8.9824  -10.9948 C.ar    1  UNL1        0.1398
     37 F         -19.5121   -8.5972  -11.6208 F       1  UNL1       -0.2044
     38 C         -20.6500   -9.2745   -9.6200 C.ar    1  UNL1        0.0175
     39 C         -21.8464   -9.6707   -8.9996 C.ar    1  UNL1        0.0130
     40 C         -23.0295   -9.7761   -9.7401 C.ar    1  UNL1        0.0919
     41 CL        -24.5192  -10.2097   -8.9133 Cl      1  UNL1       -0.0791
     42 C         -19.3655   -9.2446   -8.8367 C.3     1  UNL1        0.1382
     43 C         -19.4871   -8.2571   -7.7222 C.2     1  UNL1        0.3234
     44 O         -20.0150   -7.1323   -7.9383 O.2     1  UNL1       -0.2497
     45 O         -19.0683   -8.6186   -6.4369 O.3     1  UNL1       -0.4215
     46 C         -19.3052   -7.8204   -5.2766 C.3     1  UNL1        0.3207
     47 O         -18.0668   -7.3005   -4.7984 O.3     1  UNL1       -0.3070
     48 C         -17.4098   -8.1492   -3.8683 C.3     1  UNL1        0.2456
     49 C         -18.2326   -8.3006   -2.5532 C.3     1  UNL1        0.1781
     50 O         -17.8182   -7.3172   -1.6379 O.3     1  UNL1       -0.3790
     51 C         -19.7501   -8.1522   -2.8036 C.3     1  UNL1        0.1733
     52 O         -20.4552   -8.8989   -1.8449 O.3     1  UNL1       -0.3793
     53 C         -20.1074   -8.6310   -4.2187 C.3     1  UNL1        0.2106
     54 O         -21.4910   -8.5378   -4.4547 O.3     1  UNL1       -0.3766
     55 H         -18.1675   -7.5847   -0.7475 H       1  UNL1        0.2106
     56 H         -21.3674   -8.5113   -1.7885 H       1  UNL1        0.2105
     57 H         -21.7582   -7.5908   -4.3214 H       1  UNL1        0.2107
     58 C         -16.9754   -9.4486   -4.5150 C.2     1  UNL1        0.3439
     59 O         -15.8219   -9.5874   -5.0045 O.2     1  UNL1       -0.2475
     60 O         -17.8792  -10.5042   -4.5838 O.3     1  UNL1       -0.4785
     61 H         -17.6180  -11.3853   -5.0100 H       1  UNL1        0.2951
@<TRIPOS>BOND
     1    11    12    1
     2    12    13    1
     3    12    14    1
     4    12     7    1
     5     7     8   am
     6     8     9    2
     7     8     1    1
     8     1     2   ar
     9     2     3   ar
    10     3     4   ar
    11     4    33    1
    12    33    34    1
    13    34    35   ar
    14    35    36   ar
    15    36    37    1
    16    36    38   ar
    17    38    42    1
    18    42    43    1
    19    43    44    2
    20    43    45    1
    21    45    46    1
    22    46    47    1
    23    47    48    1
    24    48    58    1
    25    58    59    2
    26    58    60    1
    27    48    49    1
    28    49    50    1
    29    49    51    1
    30    51    52    1
    31    51    53    1
    32    53    54    1
    33    38    39   ar
    34    39    40   ar
    35    40    41    1
    36     4     5   ar
    37     5    15    1
    38    15    17    1
    39    17    18    2
    40    17    19    2
    41    17    20    1
    42    20    21   ar
    43    21    22    1
    44    21    23   ar
    45    23    24   ar
    46    24    30    1
    47    30    31    1
    48    31    32    1
    49    24    25   ar
    50    25    26   ar
    51    26    27    1
    52     5     6   ar
    53     6     1   ar
    54    40    34   ar
    55    26    20   ar
    56    53    46    1
    57    32    30    1
    58     7    10    1
    59    60    61    1
    60    50    55    1
    61    52    56    1
    62    54    57    1
    63    15    16    1
    64    22    28    1
    65    22    29    1
@<TRIPOS>MOLECULE
*****
 61 65 0 0 0
SMALL
GASTEIGER

@<TRIPOS>ATOM
      1 C         -26.6206   -5.2276  -14.2317 C.ar    1  UNL1        0.0548
      2 C         -26.7272   -4.8996  -12.8700 C.ar    1  UNL1        0.0077
      3 C         -26.2413   -5.7688  -11.8910 C.ar    1  UNL1        0.0390
      4 C         -25.6354   -6.9862  -12.2533 C.ar    1  UNL1        0.1598
      5 C         -25.5368   -7.3236  -13.6124 C.ar    1  UNL1        0.0993
      6 C         -26.0325   -6.4514  -14.5907 C.ar    1  UNL1        0.0235
      7 N         -28.5803   -4.2446  -15.5200 N.am    1  UNL1       -0.3040
      8 C         -27.1616   -4.3285  -15.2789 C.2     1  UNL1        0.2458
      9 O         -26.3625   -3.6214  -15.9504 O.2     1  UNL1       -0.2701
     10 H         -29.2129   -4.6463  -14.7914 H       1  UNL1        0.1496
     11 C         -28.1174   -2.9634  -17.5873 C.3     1  UNL1        0.0196
     12 C         -29.1973   -3.6303  -16.7125 C.3     1  UNL1        0.0572
     13 C         -29.8883   -4.7310  -17.5439 C.3     1  UNL1        0.0196
     14 C         -30.2600   -2.5963  -16.2918 C.3     1  UNL1        0.0196
     15 N         -25.0272   -8.6032  -13.9970 N.pl3   1  UNL1       -0.2120
     16 H         -25.7008   -9.3730  -14.2073 H       1  UNL1        0.1738
     17 S         -23.4596   -8.6884  -14.7258 S.O2    1  UNL1        0.0757
     18 O         -23.4572   -7.8879  -15.9966 O.2     1  UNL1       -0.1499
     19 O         -22.4375   -8.0798  -13.8068 O.2     1  UNL1       -0.1499
     20 C         -23.0787  -10.4113  -14.9870 C.ar    1  UNL1        0.1484
     21 C         -23.1647  -10.9649  -16.2916 C.ar    1  UNL1        0.0611
     22 N         -23.5536  -10.1788  -17.4283 N.pl3   1  UNL1       -0.3559
     23 C         -22.8197  -12.3067  -16.5078 C.ar    1  UNL1        0.0112
     24 C         -22.3590  -13.1188  -15.4575 C.ar    1  UNL1       -0.0204
     25 C         -22.2535  -12.5620  -14.1796 C.ar    1  UNL1        0.0086
     26 C         -22.5973  -11.2296  -13.9350 C.ar    1  UNL1        0.0774
     27 CL        -22.3412  -10.6477  -12.2926 Cl      1  UNL1       -0.0808
     28 H         -23.7493  -10.6384  -18.3456 H       1  UNL1        0.1424
     29 H         -23.5303   -9.1378  -17.4274 H       1  UNL1        0.1424
     30 C         -21.9124  -14.5609  -15.6359 C.3     1  UNL1        0.0224
     31 C         -22.9578  -15.5027  -16.2168 C.3     1  UNL1        0.0047
     32 C         -22.5297  -15.6455  -14.7618 C.3     1  UNL1        0.0047
     33 O         -25.1783   -7.9063  -11.2949 O.3     1  UNL1       -0.4513
     34 C         -23.9864   -7.7783  -10.5744 C.ar    1  UNL1        0.1580
     35 C         -23.0912   -6.7641  -10.9274 C.ar    1  UNL1        0.0677
     36 C         -21.8809   -6.6188  -10.2473 C.ar    1  UNL1        0.1398
     37 F         -21.0230   -5.6384  -10.6249 F       1  UNL1       -0.2044
     38 C         -21.5530   -7.4902   -9.1944 C.ar    1  UNL1        0.0175
     39 C         -22.4620   -8.4958   -8.8258 C.ar    1  UNL1        0.0130
     40 C         -23.6815   -8.6323   -9.4990 C.ar    1  UNL1        0.0919
     41 CL        -24.8202   -9.8600   -8.9636 Cl      1  UNL1       -0.0791
     42 C         -20.2091   -7.4021   -8.5230 C.3     1  UNL1        0.1382
     43 C         -19.7082   -8.7795   -8.2333 C.2     1  UNL1        0.3234
     44 O         -19.4044   -9.5476   -9.1864 O.2     1  UNL1       -0.2497
     45 O         -19.5244   -9.1770   -6.9043 O.3     1  UNL1       -0.4215
     46 C         -19.5068   -8.2666   -5.8041 C.3     1  UNL1        0.3207
     47 O         -18.1582   -7.9197   -5.4979 O.3     1  UNL1       -0.3070
     48 C         -17.5403   -8.7917   -4.5625 C.3     1  UNL1        0.2456
     49 C         -18.2264   -8.7093   -3.1654 C.3     1  UNL1        0.1781
     50 O         -17.5679   -7.7404   -2.3882 O.3     1  UNL1       -0.3790
     51 C         -19.7215   -8.3365   -3.2797 C.3     1  UNL1        0.1733
     52 O         -20.4225   -8.8856   -2.1929 O.3     1  UNL1       -0.3793
     53 C         -20.3019   -8.8555   -4.6038 C.3     1  UNL1        0.2106
     54 O         -21.6725   -8.5575   -4.7118 O.3     1  UNL1       -0.3766
     55 H         -17.8536   -7.8806   -1.4474 H       1  UNL1        0.2106
     56 H         -21.2528   -8.3524   -2.0837 H       1  UNL1        0.2105
     57 H         -21.7751   -7.5725   -4.6400 H       1  UNL1        0.2107
     58 C         -17.3840  -10.1888   -5.1272 C.2     1  UNL1        0.3439
     59 O         -17.4936  -11.2106   -4.3969 O.2     1  UNL1       -0.2475
     60 O         -17.0955  -10.3425   -6.4797 O.3     1  UNL1       -0.4785
     61 H         -16.9855  -11.2637   -6.8864 H       1  UNL1        0.2951
@<TRIPOS>BOND
     1    11    12    1
     2    12    13    1
     3    12    14    1
     4    12     7    1
     5     7     8   am
     6     8     9    2
     7     8     1    1
     8     1     2   ar
     9     2     3   ar
    10     3     4   ar
    11     4    33    1
    12    33    34    1
    13    34    35   ar
    14    35    36   ar
    15    36    37    1
    16    36    38   ar
    17    38    42    1
    18    42    43    1
    19    43    44    2
    20    43    45    1
    21    45    46    1
    22    46    47    1
    23    47    48    1
    24    48    58    1
    25    58    59    2
    26    58    60    1
    27    48    49    1
    28    49    50    1
    29    49    51    1
    30    51    52    1
    31    51    53    1
    32    53    54    1
    33    38    39   ar
    34    39    40   ar
    35    40    41    1
    36     4     5   ar
    37     5    15    1
    38    15    17    1
    39    17    18    2
    40    17    19    2
    41    17    20    1
    42    20    21   ar
    43    21    22    1
    44    21    23   ar
    45    23    24   ar
    46    24    30    1
    47    30    31    1
    48    31    32    1
    49    24    25   ar
    50    25    26   ar
    51    26    27    1
    52     5     6   ar
    53     6     1   ar
    54    40    34   ar
    55    26    20   ar
    56    53    46    1
    57    32    30    1
    58     7    10    1
    59    60    61    1
    60    50    55    1
    61    52    56    1
    62    54    57    1
    63    15    16    1
    64    22    28    1
    65    22    29    1
@<TRIPOS>MOLECULE
*****
 61 65 0 0 0
SMALL
GASTEIGER

@<TRIPOS>ATOM
      1 C         -18.6409   -9.3760   -7.6506 C.ar    1  UNL1        0.0548
      2 C         -18.3196  -10.4384   -8.5114 C.ar    1  UNL1        0.0077
      3 C         -18.7465  -10.4279   -9.8409 C.ar    1  UNL1        0.0390
      4 C         -19.5037   -9.3517  -10.3399 C.ar    1  UNL1        0.1598
      5 C         -19.8369   -8.2930   -9.4803 C.ar    1  UNL1        0.0993
      6 C         -19.4123   -8.3117   -8.1451 C.ar    1  UNL1        0.0235
      7 N         -18.7144   -8.4023   -5.3026 N.am    1  UNL1       -0.3040
      8 C         -18.2213   -9.3908   -6.2288 C.2     1  UNL1        0.2458
      9 O         -17.4353  -10.2932   -5.8324 O.2     1  UNL1       -0.2701
     10 H         -19.5403   -7.8367   -5.6030 H       1  UNL1        0.1496
     11 C         -18.5079   -9.2799   -2.9968 C.3     1  UNL1        0.0196
     12 C         -18.1419   -8.1395   -3.9672 C.3     1  UNL1        0.0572
     13 C         -16.6049   -8.0722   -4.0841 C.3     1  UNL1        0.0196
     14 C         -18.6501   -6.7897   -3.4239 C.3     1  UNL1        0.0196
     15 N         -20.6982   -7.2459   -9.9351 N.pl3   1  UNL1       -0.2120
     16 H         -20.6008   -6.9018  -10.9162 H       1  UNL1        0.1738
     17 S         -22.2318   -7.0364   -9.1607 S.O2    1  UNL1        0.0757
     18 O         -22.4305   -8.1261   -8.1465 O.2     1  UNL1       -0.1499
     19 O         -22.2557   -5.7254   -8.4255 O.2     1  UNL1       -0.1499
     20 C         -23.4825   -7.0318  -10.4326 C.ar    1  UNL1        0.1484
     21 C         -24.6655   -7.7987  -10.2642 C.ar    1  UNL1        0.0611
     22 N         -24.8982   -8.5918   -9.0902 N.pl3   1  UNL1       -0.3559
     23 C         -25.6713   -7.7593  -11.2404 C.ar    1  UNL1        0.0112
     24 C         -25.5477   -6.9483  -12.3814 C.ar    1  UNL1       -0.0204
     25 C         -24.3915   -6.1771  -12.5306 C.ar    1  UNL1        0.0086
     26 C         -23.3705   -6.2028  -11.5764 C.ar    1  UNL1        0.0774
     27 CL        -22.0095   -5.1224  -11.8621 Cl      1  UNL1       -0.0808
     28 H         -25.7029   -9.2568   -9.0537 H       1  UNL1        0.1424
     29 H         -24.3739   -8.4498   -8.2019 H       1  UNL1        0.1424
     30 C         -26.6253   -6.8142  -13.4453 C.3     1  UNL1        0.0224
     31 C         -26.2840   -5.8959  -14.6104 C.3     1  UNL1        0.0047
     32 C         -27.3526   -5.4851  -13.6054 C.3     1  UNL1        0.0047
     33 O         -19.9904   -9.3295  -11.6577 O.3     1  UNL1       -0.4513
     34 C         -21.3104   -9.6128  -12.0230 C.ar    1  UNL1        0.1580
     35 C         -22.0869  -10.4113  -11.1778 C.ar    1  UNL1        0.0677
     36 C         -23.4011  -10.7353  -11.5191 C.ar    1  UNL1        0.1398
     37 F         -24.1239  -11.5283  -10.6895 F       1  UNL1       -0.2044
     38 C         -23.9590  -10.2554  -12.7165 C.ar    1  UNL1        0.0175
     39 C         -23.1857   -9.4357  -13.5552 C.ar    1  UNL1        0.0130
     40 C         -21.8726   -9.0998  -13.2059 C.ar    1  UNL1        0.0919
     41 CL        -20.9614   -8.0171  -14.2490 Cl      1  UNL1       -0.0791
     42 C         -25.3394  -10.6810  -13.1382 C.3     1  UNL1        0.1382
     43 C         -25.3847  -10.8142  -14.6256 C.2     1  UNL1        0.3234
     44 O         -25.4646   -9.7804  -15.3436 O.2     1  UNL1       -0.2497
     45 O         -25.2754  -12.0835  -15.2041 O.3     1  UNL1       -0.4215
     46 C         -24.3923  -13.0969  -14.7215 C.3     1  UNL1        0.3207
     47 O         -23.1116  -12.5257  -14.4645 O.3     1  UNL1       -0.3070
     48 C         -22.2404  -12.5435  -15.5860 C.3     1  UNL1        0.2456
     49 C         -21.8735  -14.0005  -16.0010 C.3     1  UNL1        0.1781
     50 O         -20.6947  -14.3827  -15.3370 O.3     1  UNL1       -0.3790
     51 C         -22.9990  -14.9993  -15.6504 C.3     1  UNL1        0.1733
     52 O         -22.9651  -16.0746  -16.5541 O.3     1  UNL1       -0.3793
     53 C         -24.3671  -14.3029  -15.7036 C.3     1  UNL1        0.2106
     54 O         -25.4098  -15.2044  -15.4224 O.3     1  UNL1       -0.3766
     55 H         -20.3543  -15.1950  -15.7959 H       1  UNL1        0.2106
     56 H         -23.4163  -16.8402  -16.1115 H       1  UNL1        0.2105
     57 H         -25.2419  -15.5910  -14.5233 H       1  UNL1        0.2107
     58 C         -22.7583  -11.6615  -16.7036 C.2     1  UNL1        0.3439
     59 O         -22.4018  -10.4570  -16.8112 O.2     1  UNL1       -0.2475
     60 O         -23.6613  -12.1920  -17.6197 O.3     1  UNL1       -0.4785
     61 H         -24.0250  -11.6271  -18.3779 H       1  UNL1        0.2951
@<TRIPOS>BOND
     1    11    12    1
     2    12    13    1
     3    12    14    1
     4    12     7    1
     5     7     8   am
     6     8     9    2
     7     8     1    1
     8     1     2   ar
     9     2     3   ar
    10     3     4   ar
    11     4    33    1
    12    33    34    1
    13    34    35   ar
    14    35    36   ar
    15    36    37    1
    16    36    38   ar
    17    38    42    1
    18    42    43    1
    19    43    44    2
    20    43    45    1
    21    45    46    1
    22    46    47    1
    23    47    48    1
    24    48    58    1
    25    58    59    2
    26    58    60    1
    27    48    49    1
    28    49    50    1
    29    49    51    1
    30    51    52    1
    31    51    53    1
    32    53    54    1
    33    38    39   ar
    34    39    40   ar
    35    40    41    1
    36     4     5   ar
    37     5    15    1
    38    15    17    1
    39    17    18    2
    40    17    19    2
    41    17    20    1
    42    20    21   ar
    43    21    22    1
    44    21    23   ar
    45    23    24   ar
    46    24    30    1
    47    30    31    1
    48    31    32    1
    49    24    25   ar
    50    25    26   ar
    51    26    27    1
    52     5     6   ar
    53     6     1   ar
    54    40    34   ar
    55    26    20   ar
    56    53    46    1
    57    32    30    1
    58     7    10    1
    59    60    61    1
    60    50    55    1
    61    52    56    1
    62    54    57    1
    63    15    16    1
    64    22    28    1
    65    22    29    1
