@<TRIPOS>MOLECULE
*****
 45 50 0 0 0
SMALL
GASTEIGER

@<TRIPOS>ATOM
      1 C          12.6554   82.6134   25.4744 C.ar    1  UNL1        0.0702
      2 C          13.3991   83.5052   26.2627 C.ar    1  UNL1        0.0191
      3 C          14.0943   84.5574   25.6645 C.ar    1  UNL1        0.0356
      4 C          14.0599   84.7074   24.2681 C.ar    1  UNL1        0.1318
      5 N          13.3433   83.8197   23.5241 N.ar    1  UNL1       -0.2279
      6 C          12.6587   82.7883   24.0850 C.ar    1  UNL1        0.1149
      7 N          14.7619   85.7827   23.6115 N.pl3   1  UNL1       -0.2932
      8 C          14.0611   87.0148   23.2218 C.3     1  UNL1        0.0923
      9 C          14.9657   88.2380   23.4175 C.3     1  UNL1        0.0252
     10 C          16.3539   88.0559   22.7704 C.3     1  UNL1        0.0472
     11 C          17.0064   86.7509   23.2661 C.3     1  UNL1        0.0252
     12 C          16.0991   85.5339   23.0564 C.3     1  UNL1        0.0923
     13 C          16.3039   88.1275   21.2324 C.3     1  UNL1        0.2054
     14 O          14.9507   88.0568   20.7879 O.3     1  UNL1       -0.4755
     15 C          14.4121   86.9941   20.0479 C.ar    1  UNL1        0.1388
     16 C          13.0416   86.9070   19.7407 C.ar    1  UNL1        0.0369
     17 C          12.5558   85.8280   18.9995 C.ar    1  UNL1        0.0033
     18 C          13.4258   84.8285   18.5583 C.ar    1  UNL1        0.0066
     19 C          14.7981   84.8985   18.8559 C.ar    1  UNL1        0.0785
     20 C          15.2795   85.9884   19.6031 C.ar    1  UNL1        0.0433
     21 C          15.7256   83.8432   18.3916 C.2     1  UNL1        0.3381
     22 O          16.1843   83.8673   17.2173 O.2     1  UNL1       -0.2451
     23 O          16.1011   82.8117   19.2486 O.3     1  UNL1       -0.4771
     24 H          16.7355   82.0844   18.9407 H       1  UNL1        0.2954
     25 C          10.7080   80.9858   25.5369 C.2     1  UNL1        0.2839
     26 O          10.3063   81.3225   24.3907 O.2     1  UNL1       -0.2665
     27 N          11.9464   81.5028   26.0503 N.am    1  UNL1       -0.2766
     28 H          12.4028   80.9897   26.8384 H       1  UNL1        0.1553
     29 C           7.4065   76.9179   28.4873 C.ar    1  UNL1        0.0002
     30 C           7.9517   77.6377   29.5848 C.ar    1  UNL1        0.0031
     31 C           8.8185   78.7241   29.3749 C.ar    1  UNL1        0.0375
     32 C           9.1248   79.0711   28.0638 C.ar    1  UNL1        0.1452
     33 O           9.9068   80.0424   27.6600 O.2     1  UNL1       -0.4492
     34 C           9.9266   80.0253   26.3390 C.ar    1  UNL1        0.1946
     35 C           9.1146   78.9905   25.8613 C.ar    1  UNL1        0.0202
     36 C           8.8517   78.6173   24.4333 C.3     1  UNL1        0.0345
     37 C           8.6068   78.3878   26.9964 C.ar    1  UNL1        0.0337
     38 C           7.7436   77.3045   27.1679 C.ar    1  UNL1        0.0028
     39 C           3.8130   72.4484   29.3857 C.3     1  UNL1        0.0310
     40 C           4.7648   73.5878   29.1713 C.ar    1  UNL1       -0.0218
     41 C           5.5988   73.6096   28.0445 C.ar    1  UNL1       -0.0043
     42 C           6.4601   74.6882   27.8244 C.ar    1  UNL1       -0.0003
     43 C           6.4919   75.7717   28.7210 C.ar    1  UNL1       -0.0000
     44 C           5.6395   75.7529   29.8399 C.ar    1  UNL1       -0.0003
     45 C           4.7795   74.6729   30.0590 C.ar    1  UNL1       -0.0043
@<TRIPOS>BOND
     1    39    40    1
     2    40    41   ar
     3    41    42   ar
     4    42    43   ar
     5    43    29    1
     6    29    30   ar
     7    30    31   ar
     8    31    32   ar
     9    32    33   ar
    10    33    34   ar
    11    34    25    1
    12    25    26    2
    13    25    27   am
    14    27     1    1
    15     1     2   ar
    16     2     3   ar
    17     3     4   ar
    18     4     7    1
    19     7     8    1
    20     8     9    1
    21     9    10    1
    22    10    13    1
    23    13    14    1
    24    14    15    1
    25    15    16   ar
    26    16    17   ar
    27    17    18   ar
    28    18    19   ar
    29    19    21    1
    30    21    22    2
    31    21    23    1
    32    19    20   ar
    33    10    11    1
    34    11    12    1
    35     4     5   ar
    36     5     6   ar
    37    34    35   ar
    38    35    36    1
    39    35    37   ar
    40    37    38   ar
    41    43    44   ar
    42    44    45   ar
    43    45    40   ar
    44    38    29   ar
    45    37    32   ar
    46     6     1   ar
    47    12     7    1
    48    20    15   ar
    49    27    28    1
    50    23    24    1
@<TRIPOS>MOLECULE
*****
 45 50 0 0 0
SMALL
GASTEIGER

@<TRIPOS>ATOM
      1 C          12.8190   82.8223   25.5378 C.ar    1  UNL1        0.0702
      2 C          12.7981   83.0649   24.1556 C.ar    1  UNL1        0.0191
      3 C          13.4772   84.1636   23.6263 C.ar    1  UNL1        0.0356
      4 C          14.1661   85.0345   24.4869 C.ar    1  UNL1        0.1318
      5 N          14.1585   84.7857   25.8260 N.ar    1  UNL1       -0.2279
      6 C          13.5045   83.7223   26.3632 C.ar    1  UNL1        0.1149
      7 N          14.8825   86.1790   23.9799 N.pl3   1  UNL1       -0.2932
      8 C          14.3167   87.5316   24.0860 C.3     1  UNL1        0.0923
      9 C          15.4189   88.5596   24.3706 C.3     1  UNL1        0.0252
     10 C          16.6088   88.4351   23.3971 C.3     1  UNL1        0.0472
     11 C          17.1375   86.9877   23.3834 C.3     1  UNL1        0.0252
     12 C          16.0308   85.9698   23.0877 C.3     1  UNL1        0.0923
     13 C          16.2702   88.9386   21.9812 C.3     1  UNL1        0.2054
     14 O          14.8679   89.1744   21.8733 O.3     1  UNL1       -0.4755
     15 C          13.9909   88.4063   21.0935 C.ar    1  UNL1        0.1388
     16 C          12.6277   88.7265   20.9544 C.ar    1  UNL1        0.0369
     17 C          11.7967   87.9292   20.1649 C.ar    1  UNL1        0.0033
     18 C          12.3120   86.8095   19.5084 C.ar    1  UNL1        0.0066
     19 C          13.6713   86.4738   19.6360 C.ar    1  UNL1        0.0785
     20 C          14.5018   87.2817   20.4331 C.ar    1  UNL1        0.0433
     21 C          14.2240   85.2889   18.9432 C.2     1  UNL1        0.3381
     22 O          15.3701   84.8533   19.2380 O.2     1  UNL1       -0.2451
     23 O          13.4824   84.6425   17.9576 O.3     1  UNL1       -0.4771
     24 H          13.8515   83.8304   17.4773 H       1  UNL1        0.2954
     25 C          10.9263   81.1305   25.5614 C.2     1  UNL1        0.2839
     26 O          10.5876   81.3967   24.3769 O.2     1  UNL1       -0.2665
     27 N          12.1116   81.7161   26.1240 N.am    1  UNL1       -0.2766
     28 H          12.5334   81.2586   26.9639 H       1  UNL1        0.1553
     29 C           7.5588   77.1093   28.5013 C.ar    1  UNL1        0.0002
     30 C           8.0849   77.8421   29.5995 C.ar    1  UNL1        0.0031
     31 C           8.9584   78.9237   29.3919 C.ar    1  UNL1        0.0375
     32 C           9.2904   79.2528   28.0825 C.ar    1  UNL1        0.1452
     33 O          10.0824   80.2169   27.6810 O.2     1  UNL1       -0.4492
     34 C          10.1272   80.1825   26.3610 C.ar    1  UNL1        0.1946
     35 C           9.3218   79.1434   25.8814 C.ar    1  UNL1        0.0202
     36 C           9.0850   78.7522   24.4537 C.3     1  UNL1        0.0345
     37 C           8.7910   78.5568   27.0144 C.ar    1  UNL1        0.0337
     38 C           7.9219   77.4778   27.1836 C.ar    1  UNL1        0.0028
     39 C           3.9345   72.6649   29.4003 C.3     1  UNL1        0.0310
     40 C           4.8967   73.7929   29.1721 C.ar    1  UNL1       -0.0218
     41 C           5.3198   74.1091   27.8734 C.ar    1  UNL1       -0.0043
     42 C           6.1878   75.1828   27.6554 C.ar    1  UNL1       -0.0003
     43 C           6.6369   75.9684   28.7325 C.ar    1  UNL1       -0.0000
     44 C           6.1944   75.6578   30.0311 C.ar    1  UNL1       -0.0003
     45 C           5.3271   74.5830   30.2473 C.ar    1  UNL1       -0.0043
@<TRIPOS>BOND
     1    39    40    1
     2    40    41   ar
     3    41    42   ar
     4    42    43   ar
     5    43    29    1
     6    29    30   ar
     7    30    31   ar
     8    31    32   ar
     9    32    33   ar
    10    33    34   ar
    11    34    25    1
    12    25    26    2
    13    25    27   am
    14    27     1    1
    15     1     2   ar
    16     2     3   ar
    17     3     4   ar
    18     4     7    1
    19     7     8    1
    20     8     9    1
    21     9    10    1
    22    10    13    1
    23    13    14    1
    24    14    15    1
    25    15    16   ar
    26    16    17   ar
    27    17    18   ar
    28    18    19   ar
    29    19    21    1
    30    21    22    2
    31    21    23    1
    32    19    20   ar
    33    10    11    1
    34    11    12    1
    35     4     5   ar
    36     5     6   ar
    37    34    35   ar
    38    35    36    1
    39    35    37   ar
    40    37    38   ar
    41    43    44   ar
    42    44    45   ar
    43    45    40   ar
    44    38    29   ar
    45    37    32   ar
    46     6     1   ar
    47    12     7    1
    48    20    15   ar
    49    27    28    1
    50    23    24    1
@<TRIPOS>MOLECULE
*****
 45 50 0 0 0
SMALL
GASTEIGER

@<TRIPOS>ATOM
      1 C          12.7692   82.0724   25.6167 C.ar    1  UNL1        0.0702
      2 C          13.5962   82.9686   26.3116 C.ar    1  UNL1        0.0191
      3 C          14.1343   84.0776   25.6568 C.ar    1  UNL1        0.0356
      4 C          13.8581   84.2812   24.2944 C.ar    1  UNL1        0.1318
      5 N          13.0651   83.3887   23.6389 N.ar    1  UNL1       -0.2279
      6 C          12.5303   82.3025   24.2561 C.ar    1  UNL1        0.1149
      7 N          14.3920   85.4160   23.5821 N.pl3   1  UNL1       -0.2932
      8 C          14.9827   86.5514   24.3052 C.3     1  UNL1        0.0923
      9 C          16.1910   87.1100   23.5432 C.3     1  UNL1        0.0252
     10 C          15.8771   87.3865   22.0586 C.3     1  UNL1        0.0472
     11 C          15.2882   86.1269   21.3944 C.3     1  UNL1        0.0252
     12 C          14.0755   85.5832   22.1573 C.3     1  UNL1        0.0923
     13 C          14.9715   88.6175   21.8644 C.3     1  UNL1        0.2054
     14 O          15.0985   89.1068   20.5309 O.3     1  UNL1       -0.4755
     15 C          14.0797   89.0622   19.5680 C.ar    1  UNL1        0.1388
     16 C          12.7155   89.1057   19.9106 C.ar    1  UNL1        0.0369
     17 C          11.7397   89.0592   18.9130 C.ar    1  UNL1        0.0033
     18 C          12.1103   88.9692   17.5695 C.ar    1  UNL1        0.0066
     19 C          13.4683   88.9242   17.2083 C.ar    1  UNL1        0.0785
     20 C          14.4451   88.9714   18.2190 C.ar    1  UNL1        0.0433
     21 C          13.8681   88.8290   15.7869 C.2     1  UNL1        0.3381
     22 O          12.9943   88.7907   14.8786 O.2     1  UNL1       -0.2451
     23 O          15.2155   88.7806   15.4382 O.3     1  UNL1       -0.4771
     24 H          15.4999   88.7154   14.4681 H       1  UNL1        0.2954
     25 C          12.1284   79.6159   25.6213 C.2     1  UNL1        0.2839
     26 O          12.7715   79.3799   24.5633 O.2     1  UNL1       -0.2665
     27 N          12.2162   80.9053   26.2490 N.am    1  UNL1       -0.2766
     28 H          11.9390   80.9814   27.2540 H       1  UNL1        0.1553
     29 C           8.5090   75.4537   28.0148 C.ar    1  UNL1        0.0002
     30 C           9.7708   74.9625   28.4463 C.ar    1  UNL1        0.0031
     31 C          10.9586   75.6360   28.1129 C.ar    1  UNL1        0.0375
     32 C          10.8603   76.7944   27.3501 C.ar    1  UNL1        0.1452
     33 O          11.8405   77.5600   26.9366 O.2     1  UNL1       -0.4492
     34 C          11.3147   78.5531   26.2417 C.ar    1  UNL1        0.1946
     35 C           9.9216   78.4257   26.2035 C.ar    1  UNL1        0.0202
     36 C           8.9372   79.3318   25.5271 C.3     1  UNL1        0.0345
     37 C           9.6520   77.2803   26.9279 C.ar    1  UNL1        0.0337
     38 C           8.4532   76.6373   27.2402 C.ar    1  UNL1        0.0028
     39 C           3.6147   72.6578   29.4025 C.3     1  UNL1        0.0310
     40 C           4.8968   73.3558   29.0574 C.ar    1  UNL1       -0.0218
     41 C           5.5059   73.1408   27.8131 C.ar    1  UNL1       -0.0043
     42 C           6.6812   73.8181   27.4758 C.ar    1  UNL1       -0.0003
     43 C           7.2605   74.7338   28.3728 C.ar    1  UNL1       -0.0000
     44 C           6.6349   74.9593   29.6124 C.ar    1  UNL1       -0.0003
     45 C           5.4601   74.2803   29.9484 C.ar    1  UNL1       -0.0043
@<TRIPOS>BOND
     1    39    40    1
     2    40    41   ar
     3    41    42   ar
     4    42    43   ar
     5    43    29    1
     6    29    30   ar
     7    30    31   ar
     8    31    32   ar
     9    32    33   ar
    10    33    34   ar
    11    34    25    1
    12    25    26    2
    13    25    27   am
    14    27     1    1
    15     1     2   ar
    16     2     3   ar
    17     3     4   ar
    18     4     7    1
    19     7     8    1
    20     8     9    1
    21     9    10    1
    22    10    13    1
    23    13    14    1
    24    14    15    1
    25    15    16   ar
    26    16    17   ar
    27    17    18   ar
    28    18    19   ar
    29    19    21    1
    30    21    22    2
    31    21    23    1
    32    19    20   ar
    33    10    11    1
    34    11    12    1
    35     4     5   ar
    36     5     6   ar
    37    34    35   ar
    38    35    36    1
    39    35    37   ar
    40    37    38   ar
    41    43    44   ar
    42    44    45   ar
    43    45    40   ar
    44    38    29   ar
    45    37    32   ar
    46     6     1   ar
    47    12     7    1
    48    20    15   ar
    49    27    28    1
    50    23    24    1
@<TRIPOS>MOLECULE
*****
 45 50 0 0 0
SMALL
GASTEIGER

@<TRIPOS>ATOM
      1 C          12.5620   82.0920   25.3006 C.ar    1  UNL1        0.0702
      2 C          13.3831   82.6479   26.2940 C.ar    1  UNL1        0.0191
      3 C          14.0567   83.8471   26.0566 C.ar    1  UNL1        0.0356
      4 C          13.9222   84.4845   24.8118 C.ar    1  UNL1        0.1318
      5 N          13.1315   83.9168   23.8591 N.ar    1  UNL1       -0.2279
      6 C          12.4663   82.7503   24.0683 C.ar    1  UNL1        0.1149
      7 N          14.5987   85.7262   24.5278 N.pl3   1  UNL1       -0.2932
      8 C          14.4050   86.9047   25.3849 C.3     1  UNL1        0.0923
      9 C          15.7137   87.6916   25.5284 C.3     1  UNL1        0.0252
     10 C          16.3771   87.9883   24.1678 C.3     1  UNL1        0.0472
     11 C          16.5544   86.6847   23.3654 C.3     1  UNL1        0.0252
     12 C          15.2394   85.9117   23.2188 C.3     1  UNL1        0.0923
     13 C          15.6217   89.0627   23.3628 C.3     1  UNL1        0.2054
     14 O          15.5539   88.6812   21.9904 O.3     1  UNL1       -0.4755
     15 C          14.3879   88.2461   21.3435 C.ar    1  UNL1        0.1388
     16 C          13.1016   88.6160   21.7778 C.ar    1  UNL1        0.0369
     17 C          11.9722   88.1562   21.0977 C.ar    1  UNL1        0.0033
     18 C          12.1111   87.3267   19.9827 C.ar    1  UNL1        0.0066
     19 C          13.3883   86.9464   19.5345 C.ar    1  UNL1        0.0785
     20 C          14.5209   87.4136   20.2251 C.ar    1  UNL1        0.0433
     21 C          13.5429   86.0679   18.3539 C.2     1  UNL1        0.3381
     22 O          14.3156   86.3935   17.4122 O.2     1  UNL1       -0.2451
     23 O          12.8352   84.8714   18.2717 O.3     1  UNL1       -0.4771
     24 H          12.9339   84.2627   17.4679 H       1  UNL1        0.2954
     25 C          10.9770   80.2617   24.5370 C.2     1  UNL1        0.2839
     26 O          10.9487   80.6915   23.3525 O.2     1  UNL1       -0.2665
     27 N          11.8716   80.8461   25.4975 N.am    1  UNL1       -0.2766
     28 H          12.1000   80.2932   26.3548 H       1  UNL1        0.1553
     29 C           7.4227   75.8115   26.4645 C.ar    1  UNL1        0.0002
     30 C           7.7694   75.3129   25.1796 C.ar    1  UNL1        0.0031
     31 C           8.6182   76.0418   24.3287 C.ar    1  UNL1        0.0375
     32 C           9.1062   77.2621   24.7823 C.ar    1  UNL1        0.1452
     33 O           9.9022   78.0865   24.1462 O.2     1  UNL1       -0.4492
     34 C          10.1193   79.1276   24.9301 C.ar    1  UNL1        0.1946
     35 C           9.4296   78.9698   26.1376 C.ar    1  UNL1        0.0202
     36 C           9.3999   79.9098   27.3050 C.3     1  UNL1        0.0345
     37 C           8.7819   77.7551   26.0177 C.ar    1  UNL1        0.0337
     38 C           7.9420   77.0584   26.8881 C.ar    1  UNL1        0.0028
     39 C           3.8934   72.7748   29.9313 C.3     1  UNL1        0.0310
     40 C           4.8313   73.5486   29.0529 C.ar    1  UNL1       -0.0218
     41 C           5.3403   72.9715   27.8809 C.ar    1  UNL1       -0.0043
     42 C           6.1854   73.7040   27.0426 C.ar    1  UNL1       -0.0003
     43 C           6.5251   75.0329   27.3550 C.ar    1  UNL1       -0.0000
     44 C           5.9967   75.6128   28.5226 C.ar    1  UNL1       -0.0003
     45 C           5.1524   74.8783   29.3603 C.ar    1  UNL1       -0.0043
@<TRIPOS>BOND
     1    39    40    1
     2    40    41   ar
     3    41    42   ar
     4    42    43   ar
     5    43    29    1
     6    29    30   ar
     7    30    31   ar
     8    31    32   ar
     9    32    33   ar
    10    33    34   ar
    11    34    25    1
    12    25    26    2
    13    25    27   am
    14    27     1    1
    15     1     2   ar
    16     2     3   ar
    17     3     4   ar
    18     4     7    1
    19     7     8    1
    20     8     9    1
    21     9    10    1
    22    10    13    1
    23    13    14    1
    24    14    15    1
    25    15    16   ar
    26    16    17   ar
    27    17    18   ar
    28    18    19   ar
    29    19    21    1
    30    21    22    2
    31    21    23    1
    32    19    20   ar
    33    10    11    1
    34    11    12    1
    35     4     5   ar
    36     5     6   ar
    37    34    35   ar
    38    35    36    1
    39    35    37   ar
    40    37    38   ar
    41    43    44   ar
    42    44    45   ar
    43    45    40   ar
    44    38    29   ar
    45    37    32   ar
    46     6     1   ar
    47    12     7    1
    48    20    15   ar
    49    27    28    1
    50    23    24    1
@<TRIPOS>MOLECULE
*****
 45 50 0 0 0
SMALL
GASTEIGER

@<TRIPOS>ATOM
      1 C          10.7732   79.7892   24.2092 C.ar    1  UNL1        0.0702
      2 C           9.7221   79.5134   23.3210 C.ar    1  UNL1        0.0191
      3 C           8.8634   78.4398   23.5629 C.ar    1  UNL1        0.0356
      4 C           9.0687   77.6268   24.6901 C.ar    1  UNL1        0.1318
      5 N          10.1051   77.9063   25.5284 N.ar    1  UNL1       -0.2279
      6 C          10.9532   78.9462   25.3128 C.ar    1  UNL1        0.1149
      7 N           8.2024   76.5100   24.9773 N.pl3   1  UNL1       -0.2932
      8 C           6.9047   76.7116   25.6378 C.3     1  UNL1        0.0923
      9 C           5.8526   75.7504   25.0705 C.3     1  UNL1        0.0252
     10 C           6.3408   74.2875   25.0455 C.3     1  UNL1        0.0472
     11 C           7.6916   74.1886   24.3104 C.3     1  UNL1        0.0252
     12 C           8.7385   75.1449   24.8917 C.3     1  UNL1        0.0923
     13 C           6.4020   73.6599   26.4510 C.3     1  UNL1        0.2054
     14 O           5.3347   74.1620   27.2526 O.3     1  UNL1       -0.4755
     15 C           5.4904   74.6894   28.5428 C.ar    1  UNL1        0.1388
     16 C           6.5773   74.3508   29.3701 C.ar    1  UNL1        0.0369
     17 C           6.6865   74.9048   30.6470 C.ar    1  UNL1        0.0033
     18 C           5.7187   75.7981   31.1118 C.ar    1  UNL1        0.0066
     19 C           4.6257   76.1478   30.2996 C.ar    1  UNL1        0.0785
     20 C           4.5228   75.5853   29.0147 C.ar    1  UNL1        0.0433
     21 C           3.5968   77.0936   30.7856 C.2     1  UNL1        0.3381
     22 O           3.9086   78.2778   31.0862 O.2     1  UNL1       -0.2451
     23 O           2.2722   76.6841   30.9157 O.3     1  UNL1       -0.4771
     24 H           1.5600   77.3237   31.2475 H       1  UNL1        0.2954
     25 C          11.9066   81.9526   24.9023 C.2     1  UNL1        0.2839
     26 O          11.4777   81.8737   26.0848 O.2     1  UNL1       -0.2665
     27 N          11.6938   80.8702   23.9817 N.am    1  UNL1       -0.2766
     28 H          12.3042   80.8197   23.1346 H       1  UNL1        0.1553
     29 C          15.2996   86.5801   23.1059 C.ar    1  UNL1        0.0002
     30 C          14.0656   87.2492   23.3279 C.ar    1  UNL1        0.0031
     31 C          12.9339   86.5447   23.7739 C.ar    1  UNL1        0.0375
     32 C          13.0597   85.1770   23.9904 C.ar    1  UNL1        0.1452
     33 O          12.1312   84.3480   24.4010 O.2     1  UNL1       -0.4492
     34 C          12.6659   83.1419   24.4716 C.ar    1  UNL1        0.1946
     35 C          14.0110   83.1913   24.0883 C.ar    1  UNL1        0.0202
     36 C          14.9876   82.0557   24.0247 C.3     1  UNL1        0.0345
     37 C          14.2419   84.5188   23.7818 C.ar    1  UNL1        0.0337
     38 C          15.3850   85.1865   23.3392 C.ar    1  UNL1        0.0028
     39 C          19.9583   89.5070   21.2549 C.3     1  UNL1        0.0310
     40 C          18.7404   88.7792   21.7419 C.ar    1  UNL1       -0.0218
     41 C          17.6890   88.4920   20.8600 C.ar    1  UNL1       -0.0043
     42 C          16.5695   87.7821   21.3034 C.ar    1  UNL1       -0.0003
     43 C          16.4886   87.3345   22.6346 C.ar    1  UNL1       -0.0000
     44 C          17.5548   87.6096   23.5100 C.ar    1  UNL1       -0.0003
     45 C          18.6731   88.3205   23.0650 C.ar    1  UNL1       -0.0043
@<TRIPOS>BOND
     1    39    40    1
     2    40    41   ar
     3    41    42   ar
     4    42    43   ar
     5    43    29    1
     6    29    30   ar
     7    30    31   ar
     8    31    32   ar
     9    32    33   ar
    10    33    34   ar
    11    34    25    1
    12    25    26    2
    13    25    27   am
    14    27     1    1
    15     1     2   ar
    16     2     3   ar
    17     3     4   ar
    18     4     7    1
    19     7     8    1
    20     8     9    1
    21     9    10    1
    22    10    13    1
    23    13    14    1
    24    14    15    1
    25    15    16   ar
    26    16    17   ar
    27    17    18   ar
    28    18    19   ar
    29    19    21    1
    30    21    22    2
    31    21    23    1
    32    19    20   ar
    33    10    11    1
    34    11    12    1
    35     4     5   ar
    36     5     6   ar
    37    34    35   ar
    38    35    36    1
    39    35    37   ar
    40    37    38   ar
    41    43    44   ar
    42    44    45   ar
    43    45    40   ar
    44    38    29   ar
    45    37    32   ar
    46     6     1   ar
    47    12     7    1
    48    20    15   ar
    49    27    28    1
    50    23    24    1
