@<TRIPOS>MOLECULE
*****
 44 50 0 0 0
SMALL
GASTEIGER

@<TRIPOS>ATOM
      1 C          -9.9170   -5.3106   30.1484 C.3     1  UNL1        0.1158
      2 N          -8.8806   -4.4507   30.3071 N.3     1  UNL1       -0.2851
      3 C          -7.8037   -5.2400   30.1984 C.3     1  UNL1        0.0910
      4 C          -6.4779   -4.8527   30.3056 C.3     1  UNL1        0.1018
      5 C          -5.5032   -5.8521   30.1897 C.3     1  UNL1        0.3136
      6 N          -5.8556   -7.1678   29.9830 N.am    1  UNL1       -0.1293
      7 C          -7.1824   -7.5340   29.8844 C.2     1  UNL1        0.4047
      8 O          -7.4952   -8.7420   29.7177 O.2     1  UNL1       -0.2174
      9 C          -8.1682   -6.5344   29.9840 C.3     1  UNL1        0.2038
     10 N          -9.5223   -6.6062   29.9296 N.3     1  UNL1       -0.2473
     11 H          -8.9144   -4.0032   31.2231 H       1  UNL1        0.1244
     12 C         -10.3602   -7.8110   29.7412 C.3     1  UNL1        0.0817
     13 C          -9.9290   -8.6455   28.5144 C.3     1  UNL1        0.0252
     14 C          -9.8274  -10.1113   28.9830 C.3     1  UNL1        0.0278
     15 C         -10.0109  -10.0367   30.4538 C.ar    1  UNL1       -0.0248
     16 C          -9.9800  -11.1052   31.3517 C.ar    1  UNL1       -0.0045
     17 C         -10.2323  -10.8608   32.7172 C.ar    1  UNL1       -0.0002
     18 C         -10.5272   -9.5453   33.1429 C.ar    1  UNL1       -0.0003
     19 C         -10.5564   -8.4896   32.2203 C.ar    1  UNL1       -0.0033
     20 C         -10.2738   -8.7592   30.8798 C.ar    1  UNL1       -0.0117
     21 C         -10.2608  -11.9880   33.6817 C.ar    1  UNL1        0.0035
     22 C          -9.1762  -12.1338   34.5634 C.ar    1  UNL1        0.0001
     23 C          -9.1131  -13.2141   35.4407 C.ar    1  UNL1        0.0005
     24 C         -10.1311  -14.1638   35.4541 C.ar    1  UNL1        0.0068
     25 C         -11.2285  -14.0391   34.5971 C.ar    1  UNL1        0.0375
     26 BR        -12.6197  -15.3542   34.7513 Br      1  UNL1       -0.0489
     27 C         -11.3108  -12.9457   33.7030 C.ar    1  UNL1        0.0433
     28 C         -12.5024  -12.7859   32.8399 C.ar    1  UNL1        0.1810
     29 N         -12.6662  -13.3740   31.6399 N.ar    1  UNL1       -0.1083
     30 N         -13.8543  -12.9643   31.2177 N.ar    1  UNL1       -0.0229
     31 N         -14.4008  -12.1593   32.1163 N.ar    1  UNL1       -0.0464
     32 N         -13.5726  -12.0316   33.1368 N.ar    1  UNL1       -0.2388
     33 H         -13.7497  -11.4634   33.9945 H       1  UNL1        0.1923
     34 C         -11.9768   -5.2124   31.5506 C.3     1  UNL1        0.0029
     35 C         -11.3362   -4.8156   30.2263 C.3     1  UNL1        0.0326
     36 C          -4.7914   -8.1843   29.9073 C.3     1  UNL1        0.3404
     37 C          -5.3596   -9.5671   30.1508 C.ar    1  UNL1        0.0640
     38 C          -5.7089   -9.9271   31.4650 C.ar    1  UNL1        0.0031
     39 C          -6.2552  -11.1827   31.7387 C.ar    1  UNL1       -0.0001
     40 C          -6.4590  -12.0972   30.7057 C.ar    1  UNL1        0.0007
     41 C          -6.1144  -11.7606   29.3955 C.ar    1  UNL1        0.0102
     42 C          -5.5648  -10.5030   29.1064 C.ar    1  UNL1        0.0710
     43 C          -5.2143  -10.2098   27.7374 C.1     1  UNL1        0.1003
     44 N          -4.9341   -9.9740   26.6395 N.1     1  UNL1       -0.1908
@<TRIPOS>BOND
     1    34    35    1
     2    35     1    1
     3     1     2    1
     4     2     3    1
     5     3     4    1
     6     4     5    1
     7     5     6    1
     8     6    36    1
     9    36    37    1
    10    37    38   ar
    11    38    39   ar
    12    39    40   ar
    13    40    41   ar
    14    41    42   ar
    15    42    43    1
    16    43    44    3
    17     6     7    1
    18     7     8    2
    19     7     9    1
    20     9    10    1
    21    10    12    1
    22    12    13    1
    23    13    14    1
    24    14    15    1
    25    15    16   ar
    26    16    17   ar
    27    17    21    1
    28    21    22   ar
    29    22    23   ar
    30    23    24   ar
    31    24    25   ar
    32    25    26    1
    33    25    27   ar
    34    27    28    1
    35    28    29   ar
    36    29    30   ar
    37    30    31   ar
    38    31    32   ar
    39    17    18   ar
    40    18    19   ar
    41    19    20   ar
    42    10     1    1
    43    20    12    1
    44     9     3    1
    45    20    15   ar
    46    42    37   ar
    47    27    21   ar
    48    32    28   ar
    49    32    33    1
    50     2    11    1
@<TRIPOS>MOLECULE
*****
 44 50 0 0 0
SMALL
GASTEIGER

@<TRIPOS>ATOM
      1 C          -9.8192   -5.2433   30.5017 C.3     1  UNL1        0.1158
      2 N          -8.7228   -4.7471   31.1266 N.3     1  UNL1       -0.2851
      3 C          -7.9319   -5.8197   31.2630 C.3     1  UNL1        0.0910
      4 C          -6.6842   -5.8586   31.8639 C.3     1  UNL1        0.1018
      5 C          -6.0379   -7.0998   31.9272 C.3     1  UNL1        0.3136
      6 N          -6.6274   -8.2349   31.4155 N.am    1  UNL1       -0.1293
      7 C          -7.8735   -8.1760   30.8255 C.2     1  UNL1        0.4047
      8 O          -8.4136   -9.2226   30.3805 O.2     1  UNL1       -0.2174
      9 C          -8.5238   -6.9304   30.7433 C.3     1  UNL1        0.2038
     10 N          -9.7319   -6.5854   30.2306 N.3     1  UNL1       -0.2473
     11 H          -8.9669   -4.3555   32.0363 H       1  UNL1        0.1244
     12 C         -10.7321   -7.4685   29.5911 C.3     1  UNL1        0.0817
     13 C         -10.2090   -8.1057   28.2843 C.3     1  UNL1        0.0252
     14 C         -10.5213   -9.6138   28.3650 C.3     1  UNL1        0.0278
     15 C         -11.0209   -9.8084   29.7488 C.ar    1  UNL1       -0.0248
     16 C         -11.4184  -11.0147   30.3282 C.ar    1  UNL1       -0.0045
     17 C         -11.9244  -11.0092   31.6443 C.ar    1  UNL1       -0.0002
     18 C         -12.0339   -9.7832   32.3396 C.ar    1  UNL1       -0.0003
     19 C         -11.6317   -8.5842   31.7337 C.ar    1  UNL1       -0.0033
     20 C         -11.1079   -8.6264   30.4401 C.ar    1  UNL1       -0.0117
     21 C         -12.4059  -12.2699   32.2613 C.ar    1  UNL1        0.0035
     22 C         -13.6631  -12.7614   31.8706 C.ar    1  UNL1        0.0001
     23 C         -14.1988  -13.9000   32.4683 C.ar    1  UNL1        0.0005
     24 C         -13.4882  -14.5672   33.4625 C.ar    1  UNL1        0.0068
     25 C         -12.2299  -14.1090   33.8638 C.ar    1  UNL1        0.0375
     26 BR        -11.2944  -15.1467   35.1816 Br      1  UNL1       -0.0489
     27 C         -11.6692  -12.9568   33.2640 C.ar    1  UNL1        0.0433
     28 C         -10.3120  -12.5100   33.6498 C.ar    1  UNL1        0.1810
     29 N          -9.8447  -12.4747   34.9120 N.ar    1  UNL1       -0.1083
     30 N          -8.6054  -12.0160   34.8051 N.ar    1  UNL1       -0.0229
     31 N          -8.3191  -11.7786   33.5339 N.ar    1  UNL1       -0.0464
     32 N          -9.3715  -12.0777   32.7947 N.ar    1  UNL1       -0.2388
     33 H          -9.4253  -11.9978   31.7552 H       1  UNL1        0.1923
     34 C         -10.6383   -3.4052   29.0289 C.3     1  UNL1        0.0029
     35 C         -10.9827   -4.3454   30.1774 C.3     1  UNL1        0.0326
     36 C          -5.9203   -9.5213   31.5434 C.3     1  UNL1        0.3404
     37 C          -5.3862   -9.9697   30.1988 C.ar    1  UNL1        0.0640
     38 C          -4.2155   -9.3647   29.7063 C.ar    1  UNL1        0.0031
     39 C          -3.6717   -9.7569   28.4814 C.ar    1  UNL1       -0.0001
     40 C          -4.2889  -10.7567   27.7300 C.ar    1  UNL1        0.0007
     41 C          -5.4540  -11.3658   28.1993 C.ar    1  UNL1        0.0102
     42 C          -6.0110  -10.9816   29.4278 C.ar    1  UNL1        0.0710
     43 C          -7.2233  -11.6340   29.8613 C.1     1  UNL1        0.1003
     44 N          -8.1960  -12.1562   30.2086 N.1     1  UNL1       -0.1908
@<TRIPOS>BOND
     1    34    35    1
     2    35     1    1
     3     1     2    1
     4     2     3    1
     5     3     4    1
     6     4     5    1
     7     5     6    1
     8     6    36    1
     9    36    37    1
    10    37    38   ar
    11    38    39   ar
    12    39    40   ar
    13    40    41   ar
    14    41    42   ar
    15    42    43    1
    16    43    44    3
    17     6     7    1
    18     7     8    2
    19     7     9    1
    20     9    10    1
    21    10    12    1
    22    12    13    1
    23    13    14    1
    24    14    15    1
    25    15    16   ar
    26    16    17   ar
    27    17    21    1
    28    21    22   ar
    29    22    23   ar
    30    23    24   ar
    31    24    25   ar
    32    25    26    1
    33    25    27   ar
    34    27    28    1
    35    28    29   ar
    36    29    30   ar
    37    30    31   ar
    38    31    32   ar
    39    17    18   ar
    40    18    19   ar
    41    19    20   ar
    42    10     1    1
    43    20    12    1
    44     9     3    1
    45    20    15   ar
    46    42    37   ar
    47    27    21   ar
    48    32    28   ar
    49    32    33    1
    50     2    11    1
@<TRIPOS>MOLECULE
*****
 44 50 0 0 0
SMALL
GASTEIGER

@<TRIPOS>ATOM
      1 C          -4.8659   -8.8438   29.0070 C.3     1  UNL1        0.1158
      2 N          -4.9741   -7.5330   28.6769 N.3     1  UNL1       -0.2851
      3 C          -5.9377   -7.0864   29.4932 C.3     1  UNL1        0.0910
      4 C          -6.4488   -5.7999   29.5463 C.3     1  UNL1        0.1018
      5 C          -7.4828   -5.5544   30.4589 C.3     1  UNL1        0.3136
      6 N          -7.9720   -6.5584   31.2655 N.am    1  UNL1       -0.1293
      7 C          -7.4528   -7.8349   31.1936 C.2     1  UNL1        0.4047
      8 O          -7.9215   -8.7509   31.9190 O.2     1  UNL1       -0.2174
      9 C          -6.4031   -8.0873   30.2906 C.3     1  UNL1        0.2038
     10 N          -5.7189   -9.2255   30.0115 N.3     1  UNL1       -0.2473
     11 H          -5.2440   -7.4237   27.6993 H       1  UNL1        0.1244
     12 C          -5.9031  -10.5653   30.6116 C.3     1  UNL1        0.0817
     13 C          -5.2650  -10.6780   32.0143 C.3     1  UNL1        0.0252
     14 C          -6.3265  -11.3061   32.9402 C.3     1  UNL1        0.0278
     15 C          -7.5545  -11.3507   32.1080 C.ar    1  UNL1       -0.0248
     16 C          -8.8101  -11.8172   32.5016 C.ar    1  UNL1       -0.0045
     17 C          -9.8589  -11.8409   31.5594 C.ar    1  UNL1       -0.0002
     18 C          -9.6117  -11.4094   30.2361 C.ar    1  UNL1       -0.0003
     19 C          -8.3401  -10.9492   29.8645 C.ar    1  UNL1       -0.0033
     20 C          -7.3302  -10.9108   30.8279 C.ar    1  UNL1       -0.0117
     21 C         -11.1866  -12.3847   31.9380 C.ar    1  UNL1        0.0035
     22 C         -12.2047  -12.3826   30.9692 C.ar    1  UNL1        0.0001
     23 C         -13.4907  -12.8127   31.2882 C.ar    1  UNL1        0.0005
     24 C         -13.7806  -13.2538   32.5765 C.ar    1  UNL1        0.0068
     25 C         -12.7856  -13.2787   33.5582 C.ar    1  UNL1        0.0375
     26 BR        -13.2648  -13.9831   35.2795 Br      1  UNL1       -0.0489
     27 C         -11.4731  -12.8496   33.2501 C.ar    1  UNL1        0.0433
     28 C         -10.4092  -12.9335   34.2756 C.ar    1  UNL1        0.1810
     29 N         -10.0651  -14.0555   34.9354 N.ar    1  UNL1       -0.1083
     30 N          -9.0856  -13.6868   35.7493 N.ar    1  UNL1       -0.0229
     31 N          -8.8351  -12.3948   35.5992 N.ar    1  UNL1       -0.0464
     32 N          -9.6519  -11.9034   34.6855 N.ar    1  UNL1       -0.2388
     33 H          -9.6703  -10.9123   34.3582 H       1  UNL1        0.1923
     34 C          -4.5703  -10.4923   27.1593 C.3     1  UNL1        0.0029
     35 C          -3.8859   -9.7318   28.2885 C.3     1  UNL1        0.0326
     36 C          -9.0866   -6.2545   32.1802 C.3     1  UNL1        0.3404
     37 C         -10.3577   -6.9325   31.7121 C.ar    1  UNL1        0.0640
     38 C         -10.6614   -8.2102   32.2164 C.ar    1  UNL1        0.0031
     39 C         -11.8310   -8.8687   31.8315 C.ar    1  UNL1       -0.0001
     40 C         -12.7130   -8.2629   30.9370 C.ar    1  UNL1        0.0007
     41 C         -12.4270   -6.9974   30.4217 C.ar    1  UNL1        0.0102
     42 C         -11.2558   -6.3246   30.7996 C.ar    1  UNL1        0.0710
     43 C         -11.0013   -5.0240   30.2282 C.1     1  UNL1        0.1003
     44 N         -10.7978   -3.9813   29.7690 N.1     1  UNL1       -0.1908
@<TRIPOS>BOND
     1    34    35    1
     2    35     1    1
     3     1     2    1
     4     2     3    1
     5     3     4    1
     6     4     5    1
     7     5     6    1
     8     6    36    1
     9    36    37    1
    10    37    38   ar
    11    38    39   ar
    12    39    40   ar
    13    40    41   ar
    14    41    42   ar
    15    42    43    1
    16    43    44    3
    17     6     7    1
    18     7     8    2
    19     7     9    1
    20     9    10    1
    21    10    12    1
    22    12    13    1
    23    13    14    1
    24    14    15    1
    25    15    16   ar
    26    16    17   ar
    27    17    21    1
    28    21    22   ar
    29    22    23   ar
    30    23    24   ar
    31    24    25   ar
    32    25    26    1
    33    25    27   ar
    34    27    28    1
    35    28    29   ar
    36    29    30   ar
    37    30    31   ar
    38    31    32   ar
    39    17    18   ar
    40    18    19   ar
    41    19    20   ar
    42    10     1    1
    43    20    12    1
    44     9     3    1
    45    20    15   ar
    46    42    37   ar
    47    27    21   ar
    48    32    28   ar
    49    32    33    1
    50     2    11    1
@<TRIPOS>MOLECULE
*****
 44 50 0 0 0
SMALL
GASTEIGER

@<TRIPOS>ATOM
      1 C          -4.9932  -16.3951   22.4220 C.3     1  UNL1        0.1158
      2 N          -3.8945  -15.6438   22.6818 N.3     1  UNL1       -0.2851
      3 C          -2.9405  -16.2239   21.9415 C.3     1  UNL1        0.0910
      4 C          -1.6094  -15.8485   21.8629 C.3     1  UNL1        0.1018
      5 C          -0.7702  -16.6173   21.0462 C.3     1  UNL1        0.3136
      6 N          -1.2542  -17.7063   20.3551 N.am    1  UNL1       -0.1293
      7 C          -2.5827  -18.0671   20.4510 C.2     1  UNL1        0.4047
      8 O          -3.0108  -19.0770   19.8331 O.2     1  UNL1       -0.2174
      9 C          -3.4369  -17.2912   21.2569 C.3     1  UNL1        0.2038
     10 N          -4.7597  -17.4141   21.5336 N.3     1  UNL1       -0.2473
     11 H          -3.6569  -15.6751   23.6732 H       1  UNL1        0.1244
     12 C          -5.6988  -18.4439   21.0370 C.3     1  UNL1        0.0817
     13 C          -5.4426  -19.8313   21.6670 C.3     1  UNL1        0.0252
     14 C          -6.8078  -20.3643   22.1471 C.3     1  UNL1        0.0278
     15 C          -7.7333  -19.2203   21.9543 C.ar    1  UNL1       -0.0248
     16 C          -9.0942  -19.1894   22.2639 C.ar    1  UNL1       -0.0045
     17 C          -9.8403  -18.0321   21.9602 C.ar    1  UNL1       -0.0002
     18 C          -9.1991  -16.9384   21.3347 C.ar    1  UNL1       -0.0003
     19 C          -7.8314  -16.9960   21.0300 C.ar    1  UNL1       -0.0033
     20 C          -7.1140  -18.1447   21.3695 C.ar    1  UNL1       -0.0117
     21 C         -11.2994  -17.9963   22.2279 C.ar    1  UNL1        0.0035
     22 C         -12.1591  -17.6520   21.1709 C.ar    1  UNL1        0.0001
     23 C         -13.5310  -17.5310   21.3807 C.ar    1  UNL1        0.0005
     24 C         -14.0667  -17.7540   22.6463 C.ar    1  UNL1        0.0068
     25 C         -13.2380  -18.1095   23.7145 C.ar    1  UNL1        0.0375
     26 BR        -14.0830  -18.4776   25.3995 Br      1  UNL1       -0.0489
     27 C         -11.8431  -18.2411   23.5180 C.ar    1  UNL1        0.0433
     28 C         -10.9776  -18.6753   24.6373 C.ar    1  UNL1        0.1810
     29 N         -10.1416  -17.8697   25.3191 N.ar    1  UNL1       -0.1083
     30 N          -9.5680  -18.6557   26.2197 N.ar    1  UNL1       -0.0229
     31 N         -10.0289  -19.8916   26.1004 N.ar    1  UNL1       -0.0464
     32 N         -10.9087  -19.9276   25.1164 N.ar    1  UNL1       -0.2388
     33 H         -11.4389  -20.7720   24.8071 H       1  UNL1        0.1923
     34 C          -6.0803  -15.3951   24.4313 C.3     1  UNL1        0.0029
     35 C          -6.3052  -16.0822   23.0900 C.3     1  UNL1        0.0326
     36 C          -0.3195  -18.5032   19.5410 C.3     1  UNL1        0.3404
     37 C           0.3844  -19.5350   20.3979 C.ar    1  UNL1        0.0640
     38 C          -0.2227  -20.7925   20.5683 C.ar    1  UNL1        0.0031
     39 C           0.3954  -21.7847   21.3322 C.ar    1  UNL1       -0.0001
     40 C           1.6266  -21.5358   21.9380 C.ar    1  UNL1        0.0007
     41 C           2.2429  -20.2926   21.7847 C.ar    1  UNL1        0.0102
     42 C           1.6333  -19.2870   21.0203 C.ar    1  UNL1        0.0710
     43 C           2.3064  -18.0157   20.9039 C.1     1  UNL1        0.1003
     44 N           2.8471  -16.9967   20.8105 N.1     1  UNL1       -0.1908
@<TRIPOS>BOND
     1    34    35    1
     2    35     1    1
     3     1     2    1
     4     2     3    1
     5     3     4    1
     6     4     5    1
     7     5     6    1
     8     6    36    1
     9    36    37    1
    10    37    38   ar
    11    38    39   ar
    12    39    40   ar
    13    40    41   ar
    14    41    42   ar
    15    42    43    1
    16    43    44    3
    17     6     7    1
    18     7     8    2
    19     7     9    1
    20     9    10    1
    21    10    12    1
    22    12    13    1
    23    13    14    1
    24    14    15    1
    25    15    16   ar
    26    16    17   ar
    27    17    21    1
    28    21    22   ar
    29    22    23   ar
    30    23    24   ar
    31    24    25   ar
    32    25    26    1
    33    25    27   ar
    34    27    28    1
    35    28    29   ar
    36    29    30   ar
    37    30    31   ar
    38    31    32   ar
    39    17    18   ar
    40    18    19   ar
    41    19    20   ar
    42    10     1    1
    43    20    12    1
    44     9     3    1
    45    20    15   ar
    46    42    37   ar
    47    27    21   ar
    48    32    28   ar
    49    32    33    1
    50     2    11    1
@<TRIPOS>MOLECULE
*****
 44 50 0 0 0
SMALL
GASTEIGER

@<TRIPOS>ATOM
      1 C          -3.1112  -19.3403   20.5799 C.3     1  UNL1        0.1158
      2 N          -3.6541  -20.5481   20.2875 N.3     1  UNL1       -0.2851
      3 C          -4.9708  -20.3015   20.2765 C.3     1  UNL1        0.0910
      4 C          -5.9837  -21.2178   20.0452 C.3     1  UNL1        0.1018
      5 C          -7.3027  -20.7507   20.1118 C.3     1  UNL1        0.3136
      6 N          -7.5758  -19.4319   20.4019 N.am    1  UNL1       -0.1293
      7 C          -6.5524  -18.5359   20.6345 C.2     1  UNL1        0.4047
      8 O          -6.8125  -17.3378   20.9206 O.2     1  UNL1       -0.2174
      9 C          -5.2234  -18.9926   20.5544 C.3     1  UNL1        0.2038
     10 N          -4.0441  -18.3465   20.7366 N.3     1  UNL1       -0.2473
     11 H          -3.4176  -21.2371   21.0015 H       1  UNL1        0.1244
     12 C          -3.8330  -16.9236   21.0828 C.3     1  UNL1        0.0817
     13 C          -4.5254  -15.9640   20.0892 C.3     1  UNL1        0.0252
     14 C          -5.3055  -14.9339   20.9311 C.3     1  UNL1        0.0278
     15 C          -5.1911  -15.4392   22.3218 C.ar    1  UNL1       -0.0248
     16 C          -5.7526  -14.8661   23.4643 C.ar    1  UNL1       -0.0045
     17 C          -5.4942  -15.4496   24.7217 C.ar    1  UNL1       -0.0002
     18 C          -4.6604  -16.5886   24.7990 C.ar    1  UNL1       -0.0003
     19 C          -4.1048  -17.1428   23.6367 C.ar    1  UNL1       -0.0033
     20 C          -4.4029  -16.5592   22.4039 C.ar    1  UNL1       -0.0117
     21 C          -6.0332  -14.8263   25.9557 C.ar    1  UNL1        0.0035
     22 C          -5.1677  -14.0374   26.7325 C.ar    1  UNL1        0.0001
     23 C          -5.5967  -13.4871   27.9382 C.ar    1  UNL1        0.0005
     24 C          -6.8954  -13.7126   28.3864 C.ar    1  UNL1        0.0068
     25 C          -7.7829  -14.4832   27.6296 C.ar    1  UNL1        0.0375
     26 BR         -9.5764  -14.6653   28.2923 Br      1  UNL1       -0.0489
     27 C          -7.3651  -15.0459   26.4006 C.ar    1  UNL1        0.0433
     28 C          -8.3255  -15.8111   25.5745 C.ar    1  UNL1        0.1810
     29 N          -8.7087  -17.0786   25.8179 N.ar    1  UNL1       -0.1083
     30 N          -9.5632  -17.3700   24.8470 N.ar    1  UNL1       -0.0229
     31 N          -9.7024  -16.3293   24.0396 N.ar    1  UNL1       -0.0464
     32 N          -8.9365  -15.3451   24.4736 N.ar    1  UNL1       -0.2388
     33 H          -8.8557  -14.4009   24.0357 H       1  UNL1        0.1923
     34 C          -1.0774  -18.2351   19.6521 C.3     1  UNL1        0.0029
     35 C          -1.6197  -19.1871   20.7110 C.3     1  UNL1        0.0326
     36 C          -8.9821  -19.0026   20.4976 C.3     1  UNL1        0.3404
     37 C          -9.5702  -19.4041   21.8345 C.ar    1  UNL1        0.0640
     38 C          -8.7696  -20.1422   22.7251 C.ar    1  UNL1        0.0031
     39 C          -9.2583  -20.5192   23.9777 C.ar    1  UNL1       -0.0001
     40 C         -10.5527  -20.1666   24.3586 C.ar    1  UNL1        0.0007
     41 C         -11.3644  -19.4384   23.4870 C.ar    1  UNL1        0.0102
     42 C         -10.8864  -19.0533   22.2260 C.ar    1  UNL1        0.0710
     43 C         -11.7702  -18.3126   21.3582 C.1     1  UNL1        0.1003
     44 N         -12.4781  -17.7180   20.6618 N.1     1  UNL1       -0.1908
@<TRIPOS>BOND
     1    34    35    1
     2    35     1    1
     3     1     2    1
     4     2     3    1
     5     3     4    1
     6     4     5    1
     7     5     6    1
     8     6    36    1
     9    36    37    1
    10    37    38   ar
    11    38    39   ar
    12    39    40   ar
    13    40    41   ar
    14    41    42   ar
    15    42    43    1
    16    43    44    3
    17     6     7    1
    18     7     8    2
    19     7     9    1
    20     9    10    1
    21    10    12    1
    22    12    13    1
    23    13    14    1
    24    14    15    1
    25    15    16   ar
    26    16    17   ar
    27    17    21    1
    28    21    22   ar
    29    22    23   ar
    30    23    24   ar
    31    24    25   ar
    32    25    26    1
    33    25    27   ar
    34    27    28    1
    35    28    29   ar
    36    29    30   ar
    37    30    31   ar
    38    31    32   ar
    39    17    18   ar
    40    18    19   ar
    41    19    20   ar
    42    10     1    1
    43    20    12    1
    44     9     3    1
    45    20    15   ar
    46    42    37   ar
    47    27    21   ar
    48    32    28   ar
    49    32    33    1
    50     2    11    1
@<TRIPOS>MOLECULE
*****
 44 50 0 0 0
SMALL
GASTEIGER

@<TRIPOS>ATOM
      1 C          -5.0482   -6.7419   31.2823 C.3     1  UNL1        0.1158
      2 N          -5.3834   -5.4281   31.3069 N.3     1  UNL1       -0.2851
      3 C          -6.6371   -5.4193   30.8351 C.3     1  UNL1        0.0910
      4 C          -7.4409   -4.3083   30.6384 C.3     1  UNL1        0.1018
      5 C          -8.7170   -4.5230   30.1019 C.3     1  UNL1        0.3136
      6 N          -9.1480   -5.7911   29.7791 N.am    1  UNL1       -0.1293
      7 C          -8.3299   -6.8845   29.9778 C.2     1  UNL1        0.4047
      8 O          -8.7243   -8.0368   29.6592 O.2     1  UNL1       -0.2174
      9 C          -7.0518   -6.6802   30.5310 C.3     1  UNL1        0.2038
     10 N          -6.0557   -7.5534   30.8254 N.3     1  UNL1       -0.2473
     11 H          -4.7641   -4.8820   30.7080 H       1  UNL1        0.1244
     12 C          -6.0494   -9.0206   30.6350 C.3     1  UNL1        0.0817
     13 C          -4.7026   -9.6633   31.0353 C.3     1  UNL1        0.0252
     14 C          -5.0324  -10.8677   31.9404 C.3     1  UNL1        0.0278
     15 C          -6.4941  -10.7587   32.1727 C.ar    1  UNL1       -0.0248
     16 C          -7.2780  -11.6082   32.9556 C.ar    1  UNL1       -0.0045
     17 C          -8.6697  -11.3906   33.0206 C.ar    1  UNL1       -0.0002
     18 C          -9.2408  -10.3306   32.2800 C.ar    1  UNL1       -0.0003
     19 C          -8.4320   -9.4937   31.4975 C.ar    1  UNL1       -0.0033
     20 C          -7.0539   -9.7173   31.4766 C.ar    1  UNL1       -0.0117
     21 C          -9.5310  -12.3136   33.8003 C.ar    1  UNL1        0.0035
     22 C          -9.1554  -12.6147   35.1206 C.ar    1  UNL1        0.0001
     23 C          -9.8842  -13.5306   35.8761 C.ar    1  UNL1        0.0005
     24 C         -10.9997  -14.1579   35.3279 C.ar    1  UNL1        0.0068
     25 C         -11.4047  -13.8697   34.0213 C.ar    1  UNL1        0.0375
     26 BR        -13.0039  -14.7235   33.3869 Br      1  UNL1       -0.0489
     27 C         -10.6786  -12.9387   33.2417 C.ar    1  UNL1        0.0433
     28 C         -11.1455  -12.5926   31.8805 C.ar    1  UNL1        0.1810
     29 N         -12.3093  -11.9762   31.6012 N.ar    1  UNL1       -0.1083
     30 N         -12.3287  -11.8644   30.2803 N.ar    1  UNL1       -0.0229
     31 N         -11.2262  -12.3880   29.7659 N.ar    1  UNL1       -0.0464
     32 N         -10.4737  -12.8511   30.7472 N.ar    1  UNL1       -0.2388
     33 H          -9.5418  -13.3075   30.6336 H       1  UNL1        0.1923
     34 C          -3.4933   -6.9676   33.2188 C.3     1  UNL1        0.0029
     35 C          -3.6796   -7.1872   31.7225 C.3     1  UNL1        0.0326
     36 C         -10.4849   -5.9559   29.1817 C.3     1  UNL1        0.3404
     37 C         -11.4073   -6.6846   30.1369 C.ar    1  UNL1        0.0640
     38 C         -12.0312   -5.9480   31.1602 C.ar    1  UNL1        0.0031
     39 C         -12.9058   -6.5694   32.0540 C.ar    1  UNL1       -0.0001
     40 C         -13.1690   -7.9343   31.9404 C.ar    1  UNL1        0.0007
     41 C         -12.5561   -8.6834   30.9346 C.ar    1  UNL1        0.0102
     42 C         -11.6754   -8.0722   30.0302 C.ar    1  UNL1        0.0710
     43 C         -11.0586   -8.8942   29.0169 C.1     1  UNL1        0.1003
     44 N         -10.5637   -9.5542   28.2051 N.1     1  UNL1       -0.1908
@<TRIPOS>BOND
     1    34    35    1
     2    35     1    1
     3     1     2    1
     4     2     3    1
     5     3     4    1
     6     4     5    1
     7     5     6    1
     8     6    36    1
     9    36    37    1
    10    37    38   ar
    11    38    39   ar
    12    39    40   ar
    13    40    41   ar
    14    41    42   ar
    15    42    43    1
    16    43    44    3
    17     6     7    1
    18     7     8    2
    19     7     9    1
    20     9    10    1
    21    10    12    1
    22    12    13    1
    23    13    14    1
    24    14    15    1
    25    15    16   ar
    26    16    17   ar
    27    17    21    1
    28    21    22   ar
    29    22    23   ar
    30    23    24   ar
    31    24    25   ar
    32    25    26    1
    33    25    27   ar
    34    27    28    1
    35    28    29   ar
    36    29    30   ar
    37    30    31   ar
    38    31    32   ar
    39    17    18   ar
    40    18    19   ar
    41    19    20   ar
    42    10     1    1
    43    20    12    1
    44     9     3    1
    45    20    15   ar
    46    42    37   ar
    47    27    21   ar
    48    32    28   ar
    49    32    33    1
    50     2    11    1
@<TRIPOS>MOLECULE
*****
 44 50 0 0 0
SMALL
GASTEIGER

@<TRIPOS>ATOM
      1 C          -9.8239   -5.1603   30.3131 C.3     1  UNL1        0.1158
      2 N          -8.7812   -4.6289   30.9981 N.3     1  UNL1       -0.2851
      3 C          -8.0223   -5.6953   31.2836 C.3     1  UNL1        0.0910
      4 C          -6.8349   -5.7006   31.9972 C.3     1  UNL1        0.1018
      5 C          -6.2160   -6.9392   32.2092 C.3     1  UNL1        0.3136
      6 N          -6.7739   -8.1038   31.7292 N.am    1  UNL1       -0.1293
      7 C          -7.9604   -8.0778   31.0251 C.2     1  UNL1        0.4047
      8 O          -8.4738   -9.1496   30.6096 O.2     1  UNL1       -0.2174
      9 C          -8.5816   -6.8362   30.7937 C.3     1  UNL1        0.2038
     10 N          -9.7329   -6.5194   30.1491 N.3     1  UNL1       -0.2473
     11 H          -9.1007   -4.1694   31.8508 H       1  UNL1        0.1244
     12 C         -10.6843   -7.4386   29.4866 C.3     1  UNL1        0.0817
     13 C         -10.0878   -8.0972   28.2226 C.3     1  UNL1        0.0252
     14 C         -10.3742   -9.6090   28.3275 C.3     1  UNL1        0.0278
     15 C         -10.9349   -9.7793   29.6909 C.ar    1  UNL1       -0.0248
     16 C         -11.3359  -10.9787   30.2821 C.ar    1  UNL1       -0.0045
     17 C         -11.9037  -10.9509   31.5725 C.ar    1  UNL1       -0.0002
     18 C         -12.0697   -9.7105   32.2300 C.ar    1  UNL1       -0.0003
     19 C         -11.6625   -8.5189   31.6128 C.ar    1  UNL1       -0.0033
     20 C         -11.0774   -8.5825   30.3466 C.ar    1  UNL1       -0.0117
     21 C         -12.3892  -12.2055   32.1986 C.ar    1  UNL1        0.0035
     22 C         -13.5437  -12.8070   31.6692 C.ar    1  UNL1        0.0001
     23 C         -14.0876  -13.9450   32.2606 C.ar    1  UNL1        0.0005
     24 C         -13.4877  -14.5019   33.3869 C.ar    1  UNL1        0.0068
     25 C         -12.3316  -13.9327   33.9290 C.ar    1  UNL1        0.0375
     26 BR        -11.5329  -14.8240   35.4312 Br      1  UNL1       -0.0489
     27 C         -11.7634  -12.7796   33.3382 C.ar    1  UNL1        0.0433
     28 C         -10.5068  -12.2156   33.8797 C.ar    1  UNL1        0.1810
     29 N          -9.5258  -12.9371   34.4540 N.ar    1  UNL1       -0.1083
     30 N          -8.6017  -12.0489   34.7931 N.ar    1  UNL1       -0.0229
     31 N          -8.9937  -10.8328   34.4439 N.ar    1  UNL1       -0.0464
     32 N         -10.1820  -10.9129   33.8740 N.ar    1  UNL1       -0.2388
     33 H         -10.7271  -10.1087   33.4919 H       1  UNL1        0.1923
     34 C         -10.4047   -3.1980   28.8882 C.3     1  UNL1        0.0029
     35 C         -10.9395   -4.2788   29.8196 C.3     1  UNL1        0.0326
     36 C          -6.1010   -9.3834   32.0141 C.3     1  UNL1        0.3404
     37 C          -6.6390  -10.4779   31.1158 C.ar    1  UNL1        0.0640
     38 C          -7.7764  -11.1916   31.5352 C.ar    1  UNL1        0.0031
     39 C          -8.3229  -12.1962   30.7341 C.ar    1  UNL1       -0.0001
     40 C          -7.7417  -12.5040   29.5043 C.ar    1  UNL1        0.0007
     41 C          -6.6098  -11.8104   29.0725 C.ar    1  UNL1        0.0102
     42 C          -6.0503  -10.7991   29.8672 C.ar    1  UNL1        0.0710
     43 C          -4.8728  -10.1214   29.3803 C.1     1  UNL1        0.1003
     44 N          -3.9292   -9.5771   28.9893 N.1     1  UNL1       -0.1908
@<TRIPOS>BOND
     1    34    35    1
     2    35     1    1
     3     1     2    1
     4     2     3    1
     5     3     4    1
     6     4     5    1
     7     5     6    1
     8     6    36    1
     9    36    37    1
    10    37    38   ar
    11    38    39   ar
    12    39    40   ar
    13    40    41   ar
    14    41    42   ar
    15    42    43    1
    16    43    44    3
    17     6     7    1
    18     7     8    2
    19     7     9    1
    20     9    10    1
    21    10    12    1
    22    12    13    1
    23    13    14    1
    24    14    15    1
    25    15    16   ar
    26    16    17   ar
    27    17    21    1
    28    21    22   ar
    29    22    23   ar
    30    23    24   ar
    31    24    25   ar
    32    25    26    1
    33    25    27   ar
    34    27    28    1
    35    28    29   ar
    36    29    30   ar
    37    30    31   ar
    38    31    32   ar
    39    17    18   ar
    40    18    19   ar
    41    19    20   ar
    42    10     1    1
    43    20    12    1
    44     9     3    1
    45    20    15   ar
    46    42    37   ar
    47    27    21   ar
    48    32    28   ar
    49    32    33    1
    50     2    11    1
