@<TRIPOS>MOLECULE
*****
 31 34 0 0 0
SMALL
GASTEIGER

@<TRIPOS>ATOM
      1 C         -22.3063   -9.6076   -9.4291 C.3     1  UNL1        0.0826
      2 C         -23.5435   -9.9880  -10.2750 C.3     1  UNL1        0.0309
      3 C         -23.2261  -10.2902  -11.7564 C.3     1  UNL1        0.0954
      4 N         -21.9552   -9.6832  -12.1885 N.am    1  UNL1       -0.2642
      5 C         -21.8681   -8.9285  -13.4151 C.2     1  UNL1        0.3039
      6 O         -20.9171   -8.1163  -13.5832 O.2     1  UNL1       -0.2526
      7 N         -22.8486   -9.0817  -14.4499 N.am    1  UNL1       -0.2901
      8 C         -20.7330   -9.8935  -11.3932 C.3     1  UNL1        0.0954
      9 C         -21.0527  -10.3237   -9.9539 C.3     1  UNL1        0.0309
     10 H         -23.3962   -9.9679  -14.5231 H       1  UNL1        0.1509
     11 C         -21.9932   -6.0905   -9.8834 C.ar    1  UNL1        0.1800
     12 N         -21.4401   -6.2167   -8.6613 N.ar    1  UNL1       -0.0606
     13 O         -21.5174   -7.4842   -8.3903 O.2     1  UNL1       -0.3374
     14 C         -22.0937   -8.1143   -9.3844 C.ar    1  UNL1        0.2359
     15 N         -22.4235   -7.2679  -10.3802 N.ar    1  UNL1       -0.1949
     16 C         -20.7977   -4.3843  -11.2516 C.3     1  UNL1        0.0081
     17 C         -22.1296   -4.7810  -10.6069 C.3     1  UNL1        0.0621
     18 C         -23.2392   -4.8713  -11.6577 C.3     1  UNL1        0.0081
     19 C         -22.9998   -8.0706  -15.4904 C.3     1  UNL1        0.0774
     20 C         -21.7317   -7.8272  -16.3024 C.3     1  UNL1        0.0259
     21 C         -22.8701   -8.6530  -16.8945 C.3     1  UNL1        0.0420
     22 C         -23.6708   -8.0014  -18.0085 C.ar    1  UNL1       -0.0206
     23 C         -24.1428   -6.6981  -17.7917 C.ar    1  UNL1       -0.0042
     24 C         -24.8794   -6.0346  -18.7725 C.ar    1  UNL1       -0.0001
     25 C         -25.1580   -6.6626  -19.9862 C.ar    1  UNL1        0.0064
     26 C         -24.6972   -7.9661  -20.2355 C.ar    1  UNL1        0.0751
     27 C         -23.9643   -8.6348  -19.2368 C.ar    1  UNL1        0.0022
     28 C         -25.0069   -8.6236  -21.5286 C.2     1  UNL1        0.3380
     29 O         -24.6396   -8.0856  -22.6070 O.2     1  UNL1       -0.2451
     30 O         -25.6845   -9.8409  -21.5894 O.3     1  UNL1       -0.4771
     31 H         -25.9124  -10.3795  -20.7638 H       1  UNL1        0.2954
@<TRIPOS>BOND
     1    16    17    1
     2    17    18    1
     3    17    11    1
     4    11    12   ar
     5    12    13   ar
     6    13    14   ar
     7    14     1    1
     8     1     2    1
     9     2     3    1
    10     3     4    1
    11     4     5   am
    12     5     6    2
    13     5     7   am
    14     7    19    1
    15    19    20    1
    16    20    21    1
    17    21    22    1
    18    22    23   ar
    19    23    24   ar
    20    24    25   ar
    21    25    26   ar
    22    26    28    1
    23    28    29    2
    24    28    30    1
    25    26    27   ar
    26     4     8    1
    27     8     9    1
    28    14    15   ar
    29    15    11   ar
    30     9     1    1
    31    21    19    1
    32    27    22   ar
    33     7    10    1
    34    30    31    1
@<TRIPOS>MOLECULE
*****
 31 34 0 0 0
SMALL
GASTEIGER

@<TRIPOS>ATOM
      1 C         -24.6651   -9.7847  -10.2312 C.3     1  UNL1        0.0826
      2 C         -24.2242  -10.7297  -11.3729 C.3     1  UNL1        0.0309
      3 C         -22.9832  -10.2410  -12.1526 C.3     1  UNL1        0.0954
      4 N         -22.7754   -8.7891  -12.0148 N.am    1  UNL1       -0.2642
      5 C         -22.5239   -7.9590  -13.1678 C.2     1  UNL1        0.3039
      6 O         -22.7238   -6.7150  -13.0982 O.2     1  UNL1       -0.2526
      7 N         -22.0527   -8.5241  -14.3984 N.am    1  UNL1       -0.2901
      8 C         -22.7632   -8.1725  -10.6768 C.3     1  UNL1        0.0954
      9 C         -23.4505   -9.0614   -9.6298 C.3     1  UNL1        0.0309
     10 H         -21.5292   -9.4277  -14.3912 H       1  UNL1        0.1509
     11 C         -26.8277   -7.4517  -11.8295 C.ar    1  UNL1        0.1800
     12 N         -27.3284   -7.4133  -10.5792 N.ar    1  UNL1       -0.0606
     13 O         -26.6049   -8.2547   -9.9049 O.2     1  UNL1       -0.3374
     14 C         -25.7068   -8.7948  -10.6918 C.ar    1  UNL1        0.2359
     15 N         -25.7992   -8.3155  -11.9482 N.ar    1  UNL1       -0.1949
     16 C         -26.2266   -6.1907  -13.8937 C.3     1  UNL1        0.0081
     17 C         -27.3651   -6.6342  -12.9695 C.3     1  UNL1        0.0621
     18 C         -28.4163   -7.4340  -13.7434 C.3     1  UNL1        0.0081
     19 C         -22.1729   -7.7879  -15.6520 C.3     1  UNL1        0.0774
     20 C         -21.2009   -8.2490  -16.7334 C.3     1  UNL1        0.0259
     21 C         -22.6679   -8.6638  -16.7989 C.3     1  UNL1        0.0420
     22 C         -23.5094   -8.0073  -17.8794 C.ar    1  UNL1       -0.0206
     23 C         -23.9597   -6.6993  -17.6462 C.ar    1  UNL1       -0.0042
     24 C         -24.7313   -6.0311  -18.5965 C.ar    1  UNL1       -0.0001
     25 C         -25.0672   -6.6593  -19.7955 C.ar    1  UNL1        0.0064
     26 C         -24.6295   -7.9675  -20.0608 C.ar    1  UNL1        0.0751
     27 C         -23.8609   -8.6407  -19.0925 C.ar    1  UNL1        0.0022
     28 C         -25.0000   -8.6250  -21.3378 C.2     1  UNL1        0.3380
     29 O         -24.9296   -7.9788  -22.4169 O.2     1  UNL1       -0.2451
     30 O         -25.4125   -9.9563  -21.3852 O.3     1  UNL1       -0.4771
     31 H         -25.3890  -10.5633  -20.5762 H       1  UNL1        0.2954
@<TRIPOS>BOND
     1    16    17    1
     2    17    18    1
     3    17    11    1
     4    11    12   ar
     5    12    13   ar
     6    13    14   ar
     7    14     1    1
     8     1     2    1
     9     2     3    1
    10     3     4    1
    11     4     5   am
    12     5     6    2
    13     5     7   am
    14     7    19    1
    15    19    20    1
    16    20    21    1
    17    21    22    1
    18    22    23   ar
    19    23    24   ar
    20    24    25   ar
    21    25    26   ar
    22    26    28    1
    23    28    29    2
    24    28    30    1
    25    26    27   ar
    26     4     8    1
    27     8     9    1
    28    14    15   ar
    29    15    11   ar
    30     9     1    1
    31    21    19    1
    32    27    22   ar
    33     7    10    1
    34    30    31    1
@<TRIPOS>MOLECULE
*****
 31 34 0 0 0
SMALL
GASTEIGER

@<TRIPOS>ATOM
      1 C         -22.7683  -10.1616  -11.7604 C.3     1  UNL1        0.0826
      2 C         -22.2974   -8.8158  -12.3587 C.3     1  UNL1        0.0309
      3 C         -23.3450   -7.6839  -12.2673 C.3     1  UNL1        0.0954
      4 N         -24.7145   -8.2040  -12.1120 N.am    1  UNL1       -0.2642
      5 C         -25.7966   -7.7111  -12.9291 C.2     1  UNL1        0.3039
      6 O         -26.8451   -8.4008  -13.0606 O.2     1  UNL1       -0.2526
      7 N         -25.7011   -6.4482  -13.6011 N.am    1  UNL1       -0.2901
      8 C         -25.0074   -9.2014  -11.0680 C.3     1  UNL1        0.0954
      9 C         -23.7379   -9.9235  -10.5928 C.3     1  UNL1        0.0309
     10 H         -25.0626   -5.7081  -13.2332 H       1  UNL1        0.1509
     11 C         -24.3039  -12.6544  -13.7857 C.ar    1  UNL1        0.1800
     12 N         -23.9790  -11.7534  -14.7333 N.ar    1  UNL1       -0.0606
     13 O         -23.4137  -10.7795  -14.0868 O.2     1  UNL1       -0.3374
     14 C         -23.3933  -11.0531  -12.8053 C.ar    1  UNL1        0.2359
     15 N         -23.9532  -12.2518  -12.5476 N.ar    1  UNL1       -0.1949
     16 C         -26.5145  -13.7883  -13.9858 C.3     1  UNL1        0.0081
     17 C         -24.9944  -13.9570  -14.0741 C.3     1  UNL1        0.0621
     18 C         -24.5824  -14.4792  -15.4530 C.3     1  UNL1        0.0081
     19 C         -26.5856   -6.1271  -14.7158 C.3     1  UNL1        0.0774
     20 C         -27.7320   -5.1923  -14.3437 C.3     1  UNL1        0.0259
     21 C         -26.5242   -4.6531  -15.1046 C.3     1  UNL1        0.0420
     22 C         -26.7479   -4.2955  -16.5637 C.ar    1  UNL1       -0.0206
     23 C         -25.9116   -4.8984  -17.5152 C.ar    1  UNL1       -0.0042
     24 C         -26.0631   -4.6225  -18.8738 C.ar    1  UNL1       -0.0001
     25 C         -27.0520   -3.7384  -19.3046 C.ar    1  UNL1        0.0064
     26 C         -27.9075   -3.1205  -18.3773 C.ar    1  UNL1        0.0751
     27 C         -27.7418   -3.3942  -17.0065 C.ar    1  UNL1        0.0022
     28 C         -28.9504   -2.1775  -18.8499 C.2     1  UNL1        0.3380
     29 O         -30.0572   -2.1183  -18.2509 O.2     1  UNL1       -0.2451
     30 O         -28.7369   -1.3322  -19.9382 O.3     1  UNL1       -0.4771
     31 H         -27.8386   -1.2499  -20.3963 H       1  UNL1        0.2954
@<TRIPOS>BOND
     1    16    17    1
     2    17    18    1
     3    17    11    1
     4    11    12   ar
     5    12    13   ar
     6    13    14   ar
     7    14     1    1
     8     1     2    1
     9     2     3    1
    10     3     4    1
    11     4     5   am
    12     5     6    2
    13     5     7   am
    14     7    19    1
    15    19    20    1
    16    20    21    1
    17    21    22    1
    18    22    23   ar
    19    23    24   ar
    20    24    25   ar
    21    25    26   ar
    22    26    28    1
    23    28    29    2
    24    28    30    1
    25    26    27   ar
    26     4     8    1
    27     8     9    1
    28    14    15   ar
    29    15    11   ar
    30     9     1    1
    31    21    19    1
    32    27    22   ar
    33     7    10    1
    34    30    31    1
@<TRIPOS>MOLECULE
*****
 31 34 0 0 0
SMALL
GASTEIGER

@<TRIPOS>ATOM
      1 C         -21.6295   -8.3242  -11.5040 C.3     1  UNL1        0.0826
      2 C         -21.7819   -6.8206  -11.8309 C.3     1  UNL1        0.0309
      3 C         -23.2415   -6.3149  -11.8085 C.3     1  UNL1        0.0954
      4 N         -24.2123   -7.4085  -11.9877 N.am    1  UNL1       -0.2642
      5 C         -25.2957   -7.2965  -12.9340 C.2     1  UNL1        0.3039
      6 O         -25.8724   -8.3387  -13.3502 O.2     1  UNL1       -0.2526
      7 N         -25.7286   -6.0174  -13.4157 N.am    1  UNL1       -0.2901
      8 C         -24.1202   -8.6169  -11.1499 C.3     1  UNL1        0.0954
      9 C         -22.7253   -8.7781  -10.5278 C.3     1  UNL1        0.0309
     10 H         -25.5616   -5.1601  -12.8433 H       1  UNL1        0.1509
     11 C         -21.7534   -9.8229  -14.7309 C.ar    1  UNL1        0.1800
     12 N         -21.6464  -10.9271  -13.9662 N.ar    1  UNL1       -0.0606
     13 O         -21.5800  -10.4831  -12.7479 O.2     1  UNL1       -0.3374
     14 C         -21.6347   -9.1737  -12.7512 C.ar    1  UNL1        0.2359
     15 N         -21.7482   -8.6877  -14.0033 N.ar    1  UNL1       -0.1949
     16 C         -22.5045  -11.1563  -16.6982 C.3     1  UNL1        0.0081
     17 C         -21.8522   -9.8517  -16.2296 C.3     1  UNL1        0.0621
     18 C         -22.6388   -8.6376  -16.7304 C.3     1  UNL1        0.0081
     19 C         -26.5236   -5.9088  -14.6340 C.3     1  UNL1        0.0774
     20 C         -27.8795   -5.2413  -14.4280 C.3     1  UNL1        0.0259
     21 C         -26.7344   -4.4612  -15.0672 C.3     1  UNL1        0.0420
     22 C         -26.8559   -4.1773  -16.5542 C.ar    1  UNL1       -0.0206
     23 C         -25.9923   -4.8660  -17.4191 C.ar    1  UNL1       -0.0042
     24 C         -26.0512   -4.6609  -18.7973 C.ar    1  UNL1       -0.0001
     25 C         -26.9733   -3.7630  -19.3345 C.ar    1  UNL1        0.0064
     26 C         -27.8540   -3.0598  -18.4958 C.ar    1  UNL1        0.0751
     27 C         -27.7814   -3.2627  -17.1047 C.ar    1  UNL1        0.0022
     28 C         -28.8249   -2.1034  -19.0811 C.2     1  UNL1        0.3380
     29 O         -29.9356   -1.9163  -18.5168 O.2     1  UNL1       -0.2451
     30 O         -28.5380   -1.3832  -20.2403 O.3     1  UNL1       -0.4771
     31 H         -27.6284   -1.4028  -20.6829 H       1  UNL1        0.2954
@<TRIPOS>BOND
     1    16    17    1
     2    17    18    1
     3    17    11    1
     4    11    12   ar
     5    12    13   ar
     6    13    14   ar
     7    14     1    1
     8     1     2    1
     9     2     3    1
    10     3     4    1
    11     4     5   am
    12     5     6    2
    13     5     7   am
    14     7    19    1
    15    19    20    1
    16    20    21    1
    17    21    22    1
    18    22    23   ar
    19    23    24   ar
    20    24    25   ar
    21    25    26   ar
    22    26    28    1
    23    28    29    2
    24    28    30    1
    25    26    27   ar
    26     4     8    1
    27     8     9    1
    28    14    15   ar
    29    15    11   ar
    30     9     1    1
    31    21    19    1
    32    27    22   ar
    33     7    10    1
    34    30    31    1
@<TRIPOS>MOLECULE
*****
 31 34 0 0 0
SMALL
GASTEIGER

@<TRIPOS>ATOM
      1 C         -22.2327   -7.2102  -11.4051 C.3     1  UNL1        0.0826
      2 C         -22.5759   -5.7292  -11.6872 C.3     1  UNL1        0.0309
      3 C         -24.0910   -5.4304  -11.7327 C.3     1  UNL1        0.0954
      4 N         -24.8887   -6.6382  -12.0068 N.am    1  UNL1       -0.2642
      5 C         -25.9252   -6.6357  -13.0104 C.2     1  UNL1        0.3039
      6 O         -26.3278   -7.7285  -13.4962 O.2     1  UNL1       -0.2526
      7 N         -26.5063   -5.4088  -13.4715 N.am    1  UNL1       -0.2901
      8 C         -24.6734   -7.8575  -11.2081 C.3     1  UNL1        0.0954
      9 C         -23.3048   -7.8520  -10.5113 C.3     1  UNL1        0.0309
     10 H         -26.4912   -4.5620  -12.8604 H       1  UNL1        0.1509
     11 C         -21.9180   -8.5570  -14.6855 C.ar    1  UNL1        0.1800
     12 N         -21.8302   -9.6893  -13.9605 N.ar    1  UNL1       -0.0606
     13 O         -21.9224   -9.3012  -12.7248 O.2     1  UNL1       -0.3374
     14 C         -22.0529   -7.9980  -12.6795 C.ar    1  UNL1        0.2359
     15 N         -22.0582   -7.4594  -13.9151 N.ar    1  UNL1       -0.1949
     16 C         -22.8147   -7.4631  -16.7378 C.3     1  UNL1        0.0081
     17 C         -21.8518   -8.5192  -16.1858 C.3     1  UNL1        0.0621
     18 C         -20.4176   -8.2428  -16.6444 C.3     1  UNL1        0.0081
     19 C         -27.2427   -5.3582  -14.7297 C.3     1  UNL1        0.0774
     20 C         -28.5455   -6.1514  -14.7139 C.3     1  UNL1        0.0259
     21 C         -28.5769   -4.6302  -14.5972 C.3     1  UNL1        0.0420
     22 C         -29.0917   -3.8690  -15.8064 C.ar    1  UNL1       -0.0206
     23 C         -30.4427   -3.4908  -15.8082 C.ar    1  UNL1       -0.0042
     24 C         -30.9834   -2.7839  -16.8819 C.ar    1  UNL1       -0.0001
     25 C         -30.1835   -2.4442  -17.9727 C.ar    1  UNL1        0.0064
     26 C         -28.8263   -2.8056  -18.0003 C.ar    1  UNL1        0.0751
     27 C         -28.2895   -3.5292  -16.9187 C.ar    1  UNL1        0.0022
     28 C         -27.9896   -2.4429  -19.1701 C.2     1  UNL1        0.3380
     29 O         -27.0241   -3.1815  -19.5011 O.2     1  UNL1       -0.2451
     30 O         -28.2505   -1.3063  -19.9350 O.3     1  UNL1       -0.4771
     31 H         -29.0697   -0.7300  -19.7927 H       1  UNL1        0.2954
@<TRIPOS>BOND
     1    16    17    1
     2    17    18    1
     3    17    11    1
     4    11    12   ar
     5    12    13   ar
     6    13    14   ar
     7    14     1    1
     8     1     2    1
     9     2     3    1
    10     3     4    1
    11     4     5   am
    12     5     6    2
    13     5     7   am
    14     7    19    1
    15    19    20    1
    16    20    21    1
    17    21    22    1
    18    22    23   ar
    19    23    24   ar
    20    24    25   ar
    21    25    26   ar
    22    26    28    1
    23    28    29    2
    24    28    30    1
    25    26    27   ar
    26     4     8    1
    27     8     9    1
    28    14    15   ar
    29    15    11   ar
    30     9     1    1
    31    21    19    1
    32    27    22   ar
    33     7    10    1
    34    30    31    1
@<TRIPOS>MOLECULE
*****
 31 34 0 0 0
SMALL
GASTEIGER

@<TRIPOS>ATOM
      1 C         -21.7343  -10.3652  -14.8842 C.3     1  UNL1        0.0826
      2 C         -21.7484   -8.9614  -15.5323 C.3     1  UNL1        0.0309
      3 C         -22.4499   -7.8803  -14.6802 C.3     1  UNL1        0.0954
      4 N         -23.3852   -8.4624  -13.7022 N.am    1  UNL1       -0.2642
      5 C         -24.7267   -7.9513  -13.5575 C.2     1  UNL1        0.3039
      6 O         -25.6144   -8.6687  -13.0194 O.2     1  UNL1       -0.2526
      7 N         -25.0728   -6.6389  -14.0194 N.am    1  UNL1       -0.2901
      8 C         -22.9356   -9.5457  -12.8105 C.3     1  UNL1        0.0954
      9 C         -21.6845  -10.2524  -13.3530 C.3     1  UNL1        0.0309
     10 H         -24.3352   -5.9047  -14.1062 H       1  UNL1        0.1509
     11 C         -24.2675  -12.7620  -15.5997 C.ar    1  UNL1        0.1800
     12 N         -24.6553  -11.7636  -16.4172 N.ar    1  UNL1       -0.0606
     13 O         -23.7887  -10.8168  -16.2204 O.2     1  UNL1       -0.3374
     14 C         -22.9125  -11.1991  -15.3241 C.ar    1  UNL1        0.2359
     15 N         -23.1678  -12.4479  -14.8856 N.ar    1  UNL1       -0.1949
     16 C         -23.9972  -15.2395  -15.5640 C.3     1  UNL1        0.0081
     17 C         -24.9891  -14.0746  -15.4847 C.3     1  UNL1        0.0621
     18 C         -25.7877  -14.1257  -14.1796 C.3     1  UNL1        0.0081
     19 C         -26.4663   -6.2692  -14.2413 C.3     1  UNL1        0.0774
     20 C         -27.0250   -5.3129  -13.1926 C.3     1  UNL1        0.0259
     21 C         -26.6329   -4.7890  -14.5711 C.3     1  UNL1        0.0420
     22 C         -27.7722   -4.3926  -15.4938 C.ar    1  UNL1       -0.0206
     23 C         -29.0677   -4.7936  -15.1347 C.ar    1  UNL1       -0.0042
     24 C         -30.1633   -4.4601  -15.9305 C.ar    1  UNL1       -0.0001
     25 C         -29.9827   -3.7212  -17.0994 C.ar    1  UNL1        0.0064
     26 C         -28.6987   -3.3018  -17.4854 C.ar    1  UNL1        0.0751
     27 C         -27.5956   -3.6519  -16.6839 C.ar    1  UNL1        0.0022
     28 C         -28.5215   -2.5220  -18.7347 C.2     1  UNL1        0.3380
     29 O         -29.3626   -1.6363  -19.0432 O.2     1  UNL1       -0.2451
     30 O         -27.4319   -2.7281  -19.5802 O.3     1  UNL1       -0.4771
     31 H         -26.6654   -3.3438  -19.3413 H       1  UNL1        0.2954
@<TRIPOS>BOND
     1    16    17    1
     2    17    18    1
     3    17    11    1
     4    11    12   ar
     5    12    13   ar
     6    13    14   ar
     7    14     1    1
     8     1     2    1
     9     2     3    1
    10     3     4    1
    11     4     5   am
    12     5     6    2
    13     5     7   am
    14     7    19    1
    15    19    20    1
    16    20    21    1
    17    21    22    1
    18    22    23   ar
    19    23    24   ar
    20    24    25   ar
    21    25    26   ar
    22    26    28    1
    23    28    29    2
    24    28    30    1
    25    26    27   ar
    26     4     8    1
    27     8     9    1
    28    14    15   ar
    29    15    11   ar
    30     9     1    1
    31    21    19    1
    32    27    22   ar
    33     7    10    1
    34    30    31    1
@<TRIPOS>MOLECULE
*****
 31 34 0 0 0
SMALL
GASTEIGER

@<TRIPOS>ATOM
      1 C         -22.1491  -13.5094  -16.3755 C.3     1  UNL1        0.0826
      2 C         -20.9320  -13.5605  -15.4231 C.3     1  UNL1        0.0309
      3 C         -21.2983  -13.4610  -13.9255 C.3     1  UNL1        0.0954
      4 N         -22.6182  -12.8414  -13.7152 N.am    1  UNL1       -0.2642
      5 C         -22.8006  -11.7842  -12.7504 C.2     1  UNL1        0.3039
      6 O         -23.8007  -11.0202  -12.8418 O.2     1  UNL1       -0.2526
      7 N         -21.8603  -11.5818  -11.6872 N.am    1  UNL1       -0.2901
      8 C         -23.7906  -13.3417  -14.4540 C.3     1  UNL1        0.0954
      9 C         -23.3843  -14.1317  -15.7069 C.3     1  UNL1        0.0309
     10 H         -21.2693  -12.3761  -11.3548 H       1  UNL1        0.1509
     11 C         -22.4762  -10.0261  -17.0344 C.ar    1  UNL1        0.1800
     12 N         -23.3875  -10.5125  -17.8995 N.ar    1  UNL1       -0.0606
     13 O         -23.3380  -11.8008  -17.7458 O.2     1  UNL1       -0.3374
     14 C         -22.4401  -12.1036  -16.8405 C.ar    1  UNL1        0.2359
     15 N         -21.8493  -10.9991  -16.3427 N.ar    1  UNL1       -0.1949
     16 C         -23.2304   -7.9016  -15.9714 C.3     1  UNL1        0.0081
     17 C         -22.1797   -8.5627  -16.8692 C.3     1  UNL1        0.0621
     18 C         -20.7732   -8.3702  -16.2962 C.3     1  UNL1        0.0081
     19 C         -21.8106  -10.3148  -10.9660 C.3     1  UNL1        0.0774
     20 C         -20.3981   -9.7764  -10.7621 C.3     1  UNL1        0.0259
     21 C         -21.2992   -9.1684  -11.8330 C.3     1  UNL1        0.0420
     22 C         -21.8365   -7.7754  -11.5546 C.ar    1  UNL1       -0.0206
     23 C         -22.9184   -7.3303  -12.3290 C.ar    1  UNL1       -0.0042
     24 C         -23.4681   -6.0650  -12.1248 C.ar    1  UNL1       -0.0001
     25 C         -22.9452   -5.2225  -11.1441 C.ar    1  UNL1        0.0064
     26 C         -21.8641   -5.6394  -10.3498 C.ar    1  UNL1        0.0751
     27 C         -21.3062   -6.9132  -10.5689 C.ar    1  UNL1        0.0022
     28 C         -21.3146   -4.7298   -9.3150 C.2     1  UNL1        0.3380
     29 O         -20.2574   -4.0852   -9.5473 O.2     1  UNL1       -0.2451
     30 O         -21.9469   -4.5499   -8.0852 O.3     1  UNL1       -0.4771
     31 H         -22.8517   -4.9503   -7.8739 H       1  UNL1        0.2954
@<TRIPOS>BOND
     1    16    17    1
     2    17    18    1
     3    17    11    1
     4    11    12   ar
     5    12    13   ar
     6    13    14   ar
     7    14     1    1
     8     1     2    1
     9     2     3    1
    10     3     4    1
    11     4     5   am
    12     5     6    2
    13     5     7   am
    14     7    19    1
    15    19    20    1
    16    20    21    1
    17    21    22    1
    18    22    23   ar
    19    23    24   ar
    20    24    25   ar
    21    25    26   ar
    22    26    28    1
    23    28    29    2
    24    28    30    1
    25    26    27   ar
    26     4     8    1
    27     8     9    1
    28    14    15   ar
    29    15    11   ar
    30     9     1    1
    31    21    19    1
    32    27    22   ar
    33     7    10    1
    34    30    31    1
@<TRIPOS>MOLECULE
*****
 31 34 0 0 0
SMALL
GASTEIGER

@<TRIPOS>ATOM
      1 C         -21.2701   -6.6397   -9.9018 C.3     1  UNL1        0.0826
      2 C         -20.4010   -7.3710  -10.9510 C.3     1  UNL1        0.0309
      3 C         -20.9018   -7.2152  -12.4042 C.3     1  UNL1        0.0954
      4 N         -22.3297   -6.8580  -12.4656 N.am    1  UNL1       -0.2642
      5 C         -23.2371   -7.5597  -13.3407 C.2     1  UNL1        0.3039
      6 O         -24.4785   -7.5169  -13.1185 O.2     1  UNL1       -0.2526
      7 N         -22.7524   -8.3118  -14.4610 N.am    1  UNL1       -0.2901
      8 C         -22.8392   -5.7282  -11.6688 C.3     1  UNL1        0.0954
      9 C         -21.8979   -5.3752  -10.5077 C.3     1  UNL1        0.0309
     10 H         -21.8318   -8.0718  -14.8918 H       1  UNL1        0.1509
     11 C         -23.7487   -9.0512   -9.0559 C.ar    1  UNL1        0.1800
     12 N         -23.8277   -8.2488   -7.9764 N.ar    1  UNL1       -0.0606
     13 O         -22.9382   -7.3255   -8.1822 O.2     1  UNL1       -0.3374
     14 C         -22.3315   -7.5429   -9.3233 C.ar    1  UNL1        0.2359
     15 N         -22.8119   -8.6432   -9.9358 N.ar    1  UNL1       -0.1949
     16 C         -26.0279  -10.0162   -8.7621 C.3     1  UNL1        0.0081
     17 C         -24.5992  -10.2740   -9.2513 C.3     1  UNL1        0.0621
     18 C         -24.5936  -10.6913  -10.7243 C.3     1  UNL1        0.0081
     19 C         -23.5881   -9.3230  -15.0989 C.3     1  UNL1        0.0774
     20 C         -22.9469   -9.9706  -16.3220 C.3     1  UNL1        0.0259
     21 C         -22.9922  -10.7236  -14.9956 C.3     1  UNL1        0.0420
     22 C         -23.9522  -11.8978  -14.9163 C.ar    1  UNL1       -0.0206
     23 C         -25.0152  -11.8066  -14.0052 C.ar    1  UNL1       -0.0042
     24 C         -25.9397  -12.8436  -13.8826 C.ar    1  UNL1       -0.0001
     25 C         -25.8169  -13.9898  -14.6675 C.ar    1  UNL1        0.0064
     26 C         -24.7655  -14.1109  -15.5913 C.ar    1  UNL1        0.0751
     27 C         -23.8290  -13.0657  -15.7018 C.ar    1  UNL1        0.0022
     28 C         -24.6442  -15.3387  -16.4146 C.2     1  UNL1        0.3380
     29 O         -23.5427  -15.9477  -16.4701 O.2     1  UNL1       -0.2451
     30 O         -25.7272  -15.8567  -17.1242 O.3     1  UNL1       -0.4771
     31 H         -26.6634  -15.4825  -17.0394 H       1  UNL1        0.2954
@<TRIPOS>BOND
     1    16    17    1
     2    17    18    1
     3    17    11    1
     4    11    12   ar
     5    12    13   ar
     6    13    14   ar
     7    14     1    1
     8     1     2    1
     9     2     3    1
    10     3     4    1
    11     4     5   am
    12     5     6    2
    13     5     7   am
    14     7    19    1
    15    19    20    1
    16    20    21    1
    17    21    22    1
    18    22    23   ar
    19    23    24   ar
    20    24    25   ar
    21    25    26   ar
    22    26    28    1
    23    28    29    2
    24    28    30    1
    25    26    27   ar
    26     4     8    1
    27     8     9    1
    28    14    15   ar
    29    15    11   ar
    30     9     1    1
    31    21    19    1
    32    27    22   ar
    33     7    10    1
    34    30    31    1
@<TRIPOS>MOLECULE
*****
 31 34 0 0 0
SMALL
GASTEIGER

@<TRIPOS>ATOM
      1 C         -21.1663   -6.7526   -9.8627 C.3     1  UNL1        0.0826
      2 C         -20.1456   -7.5525  -10.7049 C.3     1  UNL1        0.0309
      3 C         -20.4347   -7.5430  -12.2225 C.3     1  UNL1        0.0954
      4 N         -21.8438   -7.2315  -12.5188 N.am    1  UNL1       -0.2642
      5 C         -22.6064   -8.0342  -13.4439 C.2     1  UNL1        0.3039
      6 O         -23.8673   -8.0051  -13.4048 O.2     1  UNL1       -0.2526
      7 N         -21.9556   -8.8715  -14.4087 N.am    1  UNL1       -0.2901
      8 C         -22.4779   -6.0483  -11.9117 C.3     1  UNL1        0.0954
      9 C         -21.7180   -5.5659  -10.6673 C.3     1  UNL1        0.0309
     10 H         -20.9861   -8.6468  -14.7254 H       1  UNL1        0.1509
     11 C         -23.7452   -9.1104   -9.1812 C.ar    1  UNL1        0.1800
     12 N         -23.9039   -8.2827   -8.1299 N.ar    1  UNL1       -0.0606
     13 O         -22.9859   -7.3764   -8.2783 O.2     1  UNL1       -0.3374
     14 C         -22.2872   -7.6279   -9.3581 C.ar    1  UNL1        0.2359
     15 N         -22.7304   -8.7353   -9.9859 N.ar    1  UNL1       -0.1949
     16 C         -26.0133  -10.1017   -8.8894 C.3     1  UNL1        0.0081
     17 C         -24.5947  -10.3257   -9.4226 C.3     1  UNL1        0.0621
     18 C         -24.6198  -10.6644  -10.9153 C.3     1  UNL1        0.0081
     19 C         -22.6770   -9.9588  -15.0609 C.3     1  UNL1        0.0774
     20 C         -21.9783  -10.5052  -16.3018 C.3     1  UNL1        0.0259
     21 C         -21.9246  -11.2841  -14.9908 C.3     1  UNL1        0.0420
     22 C         -22.7439  -12.5614  -14.9283 C.ar    1  UNL1       -0.0206
     23 C         -22.2391  -13.6894  -15.5925 C.ar    1  UNL1       -0.0042
     24 C         -22.9339  -14.8984  -15.5726 C.ar    1  UNL1       -0.0001
     25 C         -24.1457  -15.0004  -14.8898 C.ar    1  UNL1        0.0064
     26 C         -24.6768  -13.8902  -14.2123 C.ar    1  UNL1        0.0751
     27 C         -23.9764  -12.6696  -14.2461 C.ar    1  UNL1        0.0022
     28 C         -25.9699  -14.0122  -13.4958 C.2     1  UNL1        0.3380
     29 O         -27.0476  -13.7886  -14.1088 O.2     1  UNL1       -0.2451
     30 O         -26.0330  -14.3873  -12.1542 O.3     1  UNL1       -0.4771
     31 H         -25.2189  -14.6852  -11.6327 H       1  UNL1        0.2954
@<TRIPOS>BOND
     1    16    17    1
     2    17    18    1
     3    17    11    1
     4    11    12   ar
     5    12    13   ar
     6    13    14   ar
     7    14     1    1
     8     1     2    1
     9     2     3    1
    10     3     4    1
    11     4     5   am
    12     5     6    2
    13     5     7   am
    14     7    19    1
    15    19    20    1
    16    20    21    1
    17    21    22    1
    18    22    23   ar
    19    23    24   ar
    20    24    25   ar
    21    25    26   ar
    22    26    28    1
    23    28    29    2
    24    28    30    1
    25    26    27   ar
    26     4     8    1
    27     8     9    1
    28    14    15   ar
    29    15    11   ar
    30     9     1    1
    31    21    19    1
    32    27    22   ar
    33     7    10    1
    34    30    31    1
