@<TRIPOS>MOLECULE
*****
 48 53 0 0 0
SMALL
GASTEIGER

@<TRIPOS>ATOM
      1 C          59.8692   85.9914   10.8535 C.2     1  UNL1        0.2480
      2 O          59.2000   86.4141   11.8353 O.2     1  UNL1       -0.2701
      3 N          60.6371   84.7840   10.9712 N.am    1  UNL1       -0.2945
      4 H          61.2625   84.5292   10.1734 H       1  UNL1        0.1501
      5 C          61.5819   88.4070   10.5057 C.3     1  UNL1        0.0313
      6 C          60.6692   87.9096    9.4144 C.ar    1  UNL1       -0.0141
      7 C          60.6143   88.6155    8.2006 C.ar    1  UNL1        0.0106
      8 C          59.7996   88.1745    7.1471 C.ar    1  UNL1        0.0499
      9 C          59.0236   87.0220    7.3181 C.ar    1  UNL1        0.0443
     10 C          59.0541   86.3175    8.5225 C.ar    1  UNL1        0.1454
     11 F          58.2545   85.2292    8.6636 F       1  UNL1       -0.2040
     12 C          59.8682   86.7530    9.5844 C.ar    1  UNL1        0.0769
     13 N          59.7510   88.8991    5.9035 N.pl3   1  UNL1       -0.3040
     14 C          60.8668   88.8237    4.9527 C.3     1  UNL1        0.1122
     15 C          61.0916   90.1861    4.2924 C.3     1  UNL1        0.1122
     16 N          59.8149   90.7405    3.8258 N.pl3   1  UNL1       -0.3040
     17 C          58.7086   90.8174    4.7873 C.3     1  UNL1        0.1122
     18 C          58.4771   89.4484    5.4240 C.3     1  UNL1        0.1122
     19 C          59.7451   91.4733    2.5880 C.ar    1  UNL1        0.0488
     20 C          60.5757   92.5852    2.3799 C.ar    1  UNL1        0.0154
     21 C          60.5096   93.3024    1.1827 C.ar    1  UNL1        0.0135
     22 C          59.6137   92.9196    0.1790 C.ar    1  UNL1        0.0683
     23 CL         59.5596   93.8472   -1.3139 Cl      1  UNL1       -0.0814
     24 C          58.7764   91.8091    0.3783 C.ar    1  UNL1        0.0694
     25 CL         57.6376   91.2929   -0.8582 Cl      1  UNL1       -0.0813
     26 C          58.8440   91.0925    1.5791 C.ar    1  UNL1        0.0268
     27 C          60.7949   84.0835   12.2523 C.3     1  UNL1        0.1535
     28 C          60.5816   82.5953   12.0991 C.2     1  UNL1        0.2443
     29 O          61.5732   81.8221   11.9934 O.2     1  UNL1       -0.2730
     30 N          59.2523   82.0584   12.1932 N.am    1  UNL1       -0.2825
     31 H          58.4884   82.7027   12.4993 H       1  UNL1        0.1549
     32 C          58.9495   80.6572   12.0975 C.ar    1  UNL1        0.0535
     33 C          58.3364   80.1155   10.9558 C.ar    1  UNL1        0.0353
     34 C          58.0476   78.7492   10.9125 C.ar    1  UNL1        0.1002
     35 N          58.3474   77.9542   11.9737 N.ar    1  UNL1       -0.2422
     36 C          58.9251   78.4550   13.0976 C.ar    1  UNL1        0.1002
     37 C          59.2285   79.8158   13.1827 C.ar    1  UNL1        0.0353
     38 C          62.1740   84.3888   12.8689 C.3     1  UNL1        0.0569
     39 C          62.0747   85.1924   14.1359 C.ar    1  UNL1       -0.0017
     40 C          61.3875   84.8326   15.2918 C.ar    1  UNL1        0.0681
     41 N          61.4361   85.8330   16.2006 N.ar    1  UNL1       -0.3523
     42 C          62.1397   86.8240   15.6256 C.ar    1  UNL1        0.0563
     43 C          62.4348   88.0744   16.1671 C.ar    1  UNL1        0.0170
     44 C          63.1693   88.9771   15.3762 C.ar    1  UNL1        0.0015
     45 C          63.5868   88.6144   14.0765 C.ar    1  UNL1        0.0001
     46 C          63.2750   87.3456   13.5561 C.ar    1  UNL1        0.0012
     47 C          62.5455   86.4715   14.3638 C.ar    1  UNL1        0.0131
     48 H          60.9986   85.8375   17.1486 H       1  UNL1        0.1660
@<TRIPOS>BOND
     1     5     6    1
     2     6     7   ar
     3     7     8   ar
     4     8    13    1
     5    13    14    1
     6    14    15    1
     7    15    16    1
     8    16    19    1
     9    19    20   ar
    10    20    21   ar
    11    21    22   ar
    12    22    23    1
    13    22    24   ar
    14    24    25    1
    15    24    26   ar
    16    16    17    1
    17    17    18    1
    18     8     9   ar
    19     9    10   ar
    20    10    11    1
    21    10    12   ar
    22    12     1    1
    23     1     2    2
    24     1     3   am
    25     3    27    1
    26    27    38    1
    27    38    39    1
    28    39    40   ar
    29    40    41   ar
    30    41    42   ar
    31    42    43   ar
    32    43    44   ar
    33    44    45   ar
    34    45    46   ar
    35    46    47   ar
    36    27    28    1
    37    28    29    2
    38    28    30   am
    39    30    32    1
    40    32    33   ar
    41    33    34   ar
    42    34    35   ar
    43    35    36   ar
    44    36    37   ar
    45    12     6   ar
    46    47    39   ar
    47    37    32   ar
    48    18    13    1
    49    47    42   ar
    50    26    19   ar
    51     3     4    1
    52    41    48    1
    53    30    31    1
@<TRIPOS>MOLECULE
*****
 48 53 0 0 0
SMALL
GASTEIGER

@<TRIPOS>ATOM
      1 C          59.8421   85.9427   10.8714 C.2     1  UNL1        0.2480
      2 O          59.2536   86.4149   11.8820 O.2     1  UNL1       -0.2701
      3 N          60.5739   84.7117   10.9736 N.am    1  UNL1       -0.2945
      4 H          61.1366   84.4137   10.1447 H       1  UNL1        0.1501
      5 C          58.5646   84.7237    8.4690 C.3     1  UNL1        0.0313
      6 C          59.1907   86.0942    8.4335 C.ar    1  UNL1       -0.0141
      7 C          59.1839   86.8130    7.2261 C.ar    1  UNL1        0.0106
      8 C          59.7311   88.1026    7.1525 C.ar    1  UNL1        0.0499
      9 C          60.3015   88.6707    8.2978 C.ar    1  UNL1        0.0443
     10 C          60.3307   87.9647    9.5014 C.ar    1  UNL1        0.1454
     11 F          60.9311   88.5335   10.5784 F       1  UNL1       -0.2040
     12 C          59.7845   86.6706    9.5840 C.ar    1  UNL1        0.0769
     13 N          59.7170   88.8367    5.9136 N.pl3   1  UNL1       -0.3040
     14 C          60.8277   88.7140    4.9617 C.3     1  UNL1        0.1122
     15 C          61.1175   90.0683    4.3100 C.3     1  UNL1        0.1122
     16 N          59.8687   90.6863    3.8477 N.pl3   1  UNL1       -0.3040
     17 C          58.7676   90.8100    4.8104 C.3     1  UNL1        0.1122
     18 C          58.4709   89.4496    5.4383 C.3     1  UNL1        0.1122
     19 C          59.8338   91.4297    2.6148 C.ar    1  UNL1        0.0488
     20 C          60.7515   92.4679    2.3919 C.ar    1  UNL1        0.0154
     21 C          60.7199   93.1950    1.1994 C.ar    1  UNL1        0.0135
     22 C          59.7721   92.8959    0.2151 C.ar    1  UNL1        0.0683
     23 CL         59.7637   93.8335   -1.2725 Cl      1  UNL1       -0.0814
     24 C          58.8477   91.8598    0.4293 C.ar    1  UNL1        0.0694
     25 CL         57.6414   91.4498   -0.7827 Cl      1  UNL1       -0.0813
     26 C          58.8809   91.1330    1.6254 C.ar    1  UNL1        0.0268
     27 C          60.7908   84.0395   12.2612 C.3     1  UNL1        0.1535
     28 C          60.5835   82.5469   12.1479 C.2     1  UNL1        0.2443
     29 O          61.5778   81.7762   12.0490 O.2     1  UNL1       -0.2730
     30 N          59.2584   82.0058   12.2723 N.am    1  UNL1       -0.2825
     31 H          58.4950   82.6538   12.5719 H       1  UNL1        0.1549
     32 C          58.9619   80.6011   12.2155 C.ar    1  UNL1        0.0535
     33 C          58.3773   80.0203   11.0781 C.ar    1  UNL1        0.0353
     34 C          58.0935   78.6522   11.0729 C.ar    1  UNL1        0.1002
     35 N          58.3704   77.8934   12.1662 N.ar    1  UNL1       -0.2422
     36 C          58.9202   78.4327   13.2863 C.ar    1  UNL1        0.1002
     37 C          59.2176   79.7967   13.3339 C.ar    1  UNL1        0.0353
     38 C          62.1919   84.3678   12.8130 C.3     1  UNL1        0.0569
     39 C          62.1390   85.2017   14.0632 C.ar    1  UNL1       -0.0017
     40 C          61.5600   84.8383   15.2758 C.ar    1  UNL1        0.0681
     41 N          61.6170   85.8663   16.1528 N.ar    1  UNL1       -0.3523
     42 C          62.2183   86.8776   15.5021 C.ar    1  UNL1        0.0563
     43 C          62.4793   88.1580   15.9882 C.ar    1  UNL1        0.0170
     44 C          63.1007   89.0765   15.1222 C.ar    1  UNL1        0.0015
     45 C          63.4424   88.6994   13.8045 C.ar    1  UNL1        0.0001
     46 C          63.1674   87.4004   13.3411 C.ar    1  UNL1        0.0012
     47 C          62.5505   86.5112   14.2228 C.ar    1  UNL1        0.0131
     48 H          61.2503   85.8744   17.1304 H       1  UNL1        0.1660
@<TRIPOS>BOND
     1     5     6    1
     2     6     7   ar
     3     7     8   ar
     4     8    13    1
     5    13    14    1
     6    14    15    1
     7    15    16    1
     8    16    19    1
     9    19    20   ar
    10    20    21   ar
    11    21    22   ar
    12    22    23    1
    13    22    24   ar
    14    24    25    1
    15    24    26   ar
    16    16    17    1
    17    17    18    1
    18     8     9   ar
    19     9    10   ar
    20    10    11    1
    21    10    12   ar
    22    12     1    1
    23     1     2    2
    24     1     3   am
    25     3    27    1
    26    27    38    1
    27    38    39    1
    28    39    40   ar
    29    40    41   ar
    30    41    42   ar
    31    42    43   ar
    32    43    44   ar
    33    44    45   ar
    34    45    46   ar
    35    46    47   ar
    36    27    28    1
    37    28    29    2
    38    28    30   am
    39    30    32    1
    40    32    33   ar
    41    33    34   ar
    42    34    35   ar
    43    35    36   ar
    44    36    37   ar
    45    12     6   ar
    46    47    39   ar
    47    37    32   ar
    48    18    13    1
    49    47    42   ar
    50    26    19   ar
    51     3     4    1
    52    41    48    1
    53    30    31    1
@<TRIPOS>MOLECULE
*****
 48 53 0 0 0
SMALL
GASTEIGER

@<TRIPOS>ATOM
      1 C          59.8494   85.9783   10.7780 C.2     1  UNL1        0.2480
      2 O          59.2190   86.4260   11.7743 O.2     1  UNL1       -0.2701
      3 N          60.5669   84.7387   10.8771 N.am    1  UNL1       -0.2945
      4 H          61.1645   84.4599   10.0660 H       1  UNL1        0.1501
      5 C          61.4512   88.4771   10.4957 C.3     1  UNL1        0.0313
      6 C          60.6035   87.9390    9.3718 C.ar    1  UNL1       -0.0141
      7 C          60.5565   88.6457    8.1581 C.ar    1  UNL1        0.0106
      8 C          59.8024   88.1687    7.0756 C.ar    1  UNL1        0.0499
      9 C          59.0791   86.9785    7.2168 C.ar    1  UNL1        0.0443
     10 C          59.1020   86.2719    8.4202 C.ar    1  UNL1        0.1454
     11 F          58.3529   85.1449    8.5309 F       1  UNL1       -0.2040
     12 C          59.8554   86.7434    9.5111 C.ar    1  UNL1        0.0769
     13 N          59.7618   88.8944    5.8324 N.pl3   1  UNL1       -0.3040
     14 C          60.8832   88.8188    4.8881 C.3     1  UNL1        0.1122
     15 C          61.1132   90.1816    4.2304 C.3     1  UNL1        0.1122
     16 N          59.8397   90.7376    3.7567 N.pl3   1  UNL1       -0.3040
     17 C          58.7278   90.8146    4.7117 C.3     1  UNL1        0.1122
     18 C          58.4914   89.4454    5.3458 C.3     1  UNL1        0.1122
     19 C          59.7780   91.4717    2.5192 C.ar    1  UNL1        0.0488
     20 C          60.6489   92.5491    2.2951 C.ar    1  UNL1        0.0154
     21 C          60.5908   93.2674    1.0981 C.ar    1  UNL1        0.0135
     22 C          59.6630   92.9200    0.1106 C.ar    1  UNL1        0.0683
     23 CL         59.6202   93.8479   -1.3825 Cl      1  UNL1       -0.0814
     24 C          58.7853   91.8443    0.3261 C.ar    1  UNL1        0.0694
     25 CL         57.6054   91.3732   -0.8896 Cl      1  UNL1       -0.0813
     26 C          58.8449   91.1266    1.5267 C.ar    1  UNL1        0.0268
     27 C          60.7204   84.0277   12.1530 C.3     1  UNL1        0.1535
     28 C          61.3009   84.9261   13.2205 C.2     1  UNL1        0.2443
     29 O          61.4820   84.4845   14.3886 O.2     1  UNL1       -0.2730
     30 N          61.7526   86.2433   12.8670 N.am    1  UNL1       -0.2825
     31 H          61.7878   86.4888   11.8516 H       1  UNL1        0.1549
     32 C          62.3510   87.1583   13.7992 C.ar    1  UNL1        0.0535
     33 C          61.7675   87.4167   15.0505 C.ar    1  UNL1        0.0353
     34 C          62.3772   88.3250   15.9196 C.ar    1  UNL1        0.1002
     35 N          63.5197   88.9621   15.5498 N.ar    1  UNL1       -0.2422
     36 C          64.0963   88.7437   14.3383 C.ar    1  UNL1        0.1002
     37 C          63.5180   87.8450   13.4389 C.ar    1  UNL1        0.0353
     38 C          59.3742   83.4261   12.6016 C.3     1  UNL1        0.0569
     39 C          58.8671   82.3751   11.6533 C.ar    1  UNL1       -0.0017
     40 C          58.2641   82.5970   10.4184 C.ar    1  UNL1        0.0681
     41 N          57.8521   81.4279    9.8775 N.ar    1  UNL1       -0.3523
     42 C          58.1813   80.4716   10.7634 C.ar    1  UNL1        0.0563
     43 C          57.9359   79.1031   10.6591 C.ar    1  UNL1        0.0170
     44 C          58.3463   78.2782   11.7226 C.ar    1  UNL1        0.0015
     45 C          58.9844   78.8333   12.8540 C.ar    1  UNL1        0.0001
     46 C          59.2194   80.2177   12.9318 C.ar    1  UNL1        0.0012
     47 C          58.8014   81.0106   11.8617 C.ar    1  UNL1        0.0131
     48 H          57.3614   81.3005    8.9647 H       1  UNL1        0.1660
@<TRIPOS>BOND
     1     5     6    1
     2     6     7   ar
     3     7     8   ar
     4     8    13    1
     5    13    14    1
     6    14    15    1
     7    15    16    1
     8    16    19    1
     9    19    20   ar
    10    20    21   ar
    11    21    22   ar
    12    22    23    1
    13    22    24   ar
    14    24    25    1
    15    24    26   ar
    16    16    17    1
    17    17    18    1
    18     8     9   ar
    19     9    10   ar
    20    10    11    1
    21    10    12   ar
    22    12     1    1
    23     1     2    2
    24     1     3   am
    25     3    27    1
    26    27    38    1
    27    38    39    1
    28    39    40   ar
    29    40    41   ar
    30    41    42   ar
    31    42    43   ar
    32    43    44   ar
    33    44    45   ar
    34    45    46   ar
    35    46    47   ar
    36    27    28    1
    37    28    29    2
    38    28    30   am
    39    30    32    1
    40    32    33   ar
    41    33    34   ar
    42    34    35   ar
    43    35    36   ar
    44    36    37   ar
    45    12     6   ar
    46    47    39   ar
    47    37    32   ar
    48    18    13    1
    49    47    42   ar
    50    26    19   ar
    51     3     4    1
    52    41    48    1
    53    30    31    1
@<TRIPOS>MOLECULE
*****
 48 53 0 0 0
SMALL
GASTEIGER

@<TRIPOS>ATOM
      1 C          60.2984   86.0801   10.8022 C.2     1  UNL1        0.2480
      2 O          59.4531   86.2598   11.7207 O.2     1  UNL1       -0.2701
      3 N          61.4121   85.1983   11.0104 N.am    1  UNL1       -0.2945
      4 H          62.1463   85.1631   10.2672 H       1  UNL1        0.1501
      5 C          58.8978   84.8076    8.4982 C.3     1  UNL1        0.0313
      6 C          59.4897   86.1907    8.4096 C.ar    1  UNL1       -0.0141
      7 C          59.3899   86.8959    7.1983 C.ar    1  UNL1        0.0106
      8 C          59.9025   88.1962    7.0775 C.ar    1  UNL1        0.0499
      9 C          60.5319   88.7890    8.1785 C.ar    1  UNL1        0.0443
     10 C          60.6535   88.0971    9.3845 C.ar    1  UNL1        0.1454
     11 F          61.3085   88.6904   10.4154 F       1  UNL1       -0.2040
     12 C          60.1426   86.7924    9.5142 C.ar    1  UNL1        0.0769
     13 N          59.7930   88.9162    5.8351 N.pl3   1  UNL1       -0.3040
     14 C          60.8365   88.7963    4.8096 C.3     1  UNL1        0.1122
     15 C          61.0631   90.1467    4.1255 C.3     1  UNL1        0.1122
     16 N          59.7774   90.7444    3.7448 N.pl3   1  UNL1       -0.3040
     17 C          58.7443   90.8655    4.7803 C.3     1  UNL1        0.1122
     18 C          58.5092   89.5088    5.4413 C.3     1  UNL1        0.1122
     19 C          59.6476   91.4734    2.5096 C.ar    1  UNL1        0.0488
     20 C          60.3365   92.6829    2.3297 C.ar    1  UNL1        0.0154
     21 C          60.2113   93.3965    1.1352 C.ar    1  UNL1        0.0135
     22 C          59.3969   92.9127    0.1059 C.ar    1  UNL1        0.0683
     23 CL         59.2646   93.8392   -1.3828 Cl      1  UNL1       -0.0814
     24 C          58.7014   91.7040    0.2768 C.ar    1  UNL1        0.0694
     25 CL         57.6690   91.0593   -0.9923 Cl      1  UNL1       -0.0813
     26 C          58.8279   90.9911    1.4750 C.ar    1  UNL1        0.0268
     27 C          61.6940   84.5959   12.3198 C.3     1  UNL1        0.1535
     28 C          62.2995   85.6008   13.2722 C.2     1  UNL1        0.2443
     29 O          62.8518   85.2094   14.3372 O.2     1  UNL1       -0.2730
     30 N          62.3461   86.9878   12.9006 N.am    1  UNL1       -0.2825
     31 H          62.0790   87.2379   11.9216 H       1  UNL1        0.1549
     32 C          62.9322   88.0134   13.7186 C.ar    1  UNL1        0.0535
     33 C          62.5150   88.2228   15.0433 C.ar    1  UNL1        0.0353
     34 C          63.1034   89.2414   15.7972 C.ar    1  UNL1        0.1002
     35 N          64.0634   90.0308   15.2466 N.ar    1  UNL1       -0.2422
     36 C          64.4738   89.8613   13.9618 C.ar    1  UNL1        0.1002
     37 C          63.9099   88.8559   13.1729 C.ar    1  UNL1        0.0353
     38 C          60.4176   83.9660   12.9109 C.3     1  UNL1        0.0569
     39 C          60.5812   82.5010   13.2078 C.ar    1  UNL1       -0.0017
     40 C          61.6061   81.9163   13.9464 C.ar    1  UNL1        0.0681
     41 N          61.4866   80.5692   13.9353 N.ar    1  UNL1       -0.3523
     42 C          60.4015   80.2981   13.1892 C.ar    1  UNL1        0.0563
     43 C          59.8902   79.0415   12.8676 C.ar    1  UNL1        0.0170
     44 C          58.7497   78.9861   12.0453 C.ar    1  UNL1        0.0015
     45 C          58.1534   80.1741   11.5675 C.ar    1  UNL1        0.0001
     46 C          58.6908   81.4282   11.9085 C.ar    1  UNL1        0.0012
     47 C          59.8222   81.4516   12.7257 C.ar    1  UNL1        0.0131
     48 H          62.1218   79.8819   14.3985 H       1  UNL1        0.1660
@<TRIPOS>BOND
     1     5     6    1
     2     6     7   ar
     3     7     8   ar
     4     8    13    1
     5    13    14    1
     6    14    15    1
     7    15    16    1
     8    16    19    1
     9    19    20   ar
    10    20    21   ar
    11    21    22   ar
    12    22    23    1
    13    22    24   ar
    14    24    25    1
    15    24    26   ar
    16    16    17    1
    17    17    18    1
    18     8     9   ar
    19     9    10   ar
    20    10    11    1
    21    10    12   ar
    22    12     1    1
    23     1     2    2
    24     1     3   am
    25     3    27    1
    26    27    38    1
    27    38    39    1
    28    39    40   ar
    29    40    41   ar
    30    41    42   ar
    31    42    43   ar
    32    43    44   ar
    33    44    45   ar
    34    45    46   ar
    35    46    47   ar
    36    27    28    1
    37    28    29    2
    38    28    30   am
    39    30    32    1
    40    32    33   ar
    41    33    34   ar
    42    34    35   ar
    43    35    36   ar
    44    36    37   ar
    45    12     6   ar
    46    47    39   ar
    47    37    32   ar
    48    18    13    1
    49    47    42   ar
    50    26    19   ar
    51     3     4    1
    52    41    48    1
    53    30    31    1
@<TRIPOS>MOLECULE
*****
 48 53 0 0 0
SMALL
GASTEIGER

@<TRIPOS>ATOM
      1 C          59.8332   85.4481   10.7481 C.2     1  UNL1        0.2480
      2 O          60.5472   84.4107   10.8149 O.2     1  UNL1       -0.2701
      3 N          58.9926   85.8166   11.8521 N.am    1  UNL1       -0.2945
      4 H          58.3367   86.6185   11.7136 H       1  UNL1        0.1501
      5 C          61.5116   87.9068   10.5824 C.3     1  UNL1        0.0313
      6 C          60.6423   87.4530    9.4380 C.ar    1  UNL1       -0.0141
      7 C          60.6120   88.2214    8.2618 C.ar    1  UNL1        0.0106
      8 C          59.8383   87.8236    7.1613 C.ar    1  UNL1        0.0499
      9 C          59.0785   86.6509    7.2467 C.ar    1  UNL1        0.0443
     10 C          59.0847   85.8840    8.4127 C.ar    1  UNL1        0.1454
     11 F          58.3010   84.7766    8.4710 F       1  UNL1       -0.2040
     12 C          59.8575   86.2759    9.5214 C.ar    1  UNL1        0.0769
     13 N          59.8149   88.6123    5.9566 N.pl3   1  UNL1       -0.3040
     14 C          60.8615   88.4514    4.9398 C.3     1  UNL1        0.1122
     15 C          61.2187   89.8090    4.3296 C.3     1  UNL1        0.1122
     16 N          59.9979   90.5376    3.9638 N.pl3   1  UNL1       -0.3040
     17 C          58.9616   90.6982    4.9907 C.3     1  UNL1        0.1122
     18 C          58.5958   89.3363    5.5774 C.3     1  UNL1        0.1122
     19 C          59.9549   91.3368    2.7665 C.ar    1  UNL1        0.0488
     20 C          58.8036   91.3420    1.9640 C.ar    1  UNL1        0.0154
     21 C          58.7576   92.1122    0.7993 C.ar    1  UNL1        0.0135
     22 C          59.8597   92.8859    0.4205 C.ar    1  UNL1        0.0683
     23 CL         59.7639   93.8420   -1.0522 Cl      1  UNL1       -0.0814
     24 C          61.0179   92.8860    1.2159 C.ar    1  UNL1        0.0694
     25 CL         62.4245   93.8457    0.7774 Cl      1  UNL1       -0.0813
     26 C          61.0618   92.1128    2.3822 C.ar    1  UNL1        0.0268
     27 C          58.8160   84.9451   13.0210 C.3     1  UNL1        0.1535
     28 C          58.2704   83.5925   12.6252 C.2     1  UNL1        0.2443
     29 O          57.0254   83.4217   12.5113 O.2     1  UNL1       -0.2730
     30 N          59.1808   82.5406   12.2663 N.am    1  UNL1       -0.2825
     31 H          60.1912   82.7870   12.1615 H       1  UNL1        0.1549
     32 C          58.7618   81.2335   11.8420 C.ar    1  UNL1        0.0535
     33 C          58.7974   80.1328   12.7139 C.ar    1  UNL1        0.0353
     34 C          58.3936   78.8770   12.2536 C.ar    1  UNL1        0.1002
     35 N          57.9816   78.7214   10.9675 N.ar    1  UNL1       -0.2422
     36 C          57.9534   79.7656   10.0978 C.ar    1  UNL1        0.1002
     37 C          58.3508   81.0375   10.5169 C.ar    1  UNL1        0.0353
     38 C          60.1404   84.8070   13.7970 C.3     1  UNL1        0.0569
     39 C          60.5127   86.0651   14.5318 C.ar    1  UNL1       -0.0017
     40 C          59.6347   86.9606   15.1359 C.ar    1  UNL1        0.0681
     41 N          60.3094   88.0257   15.6251 N.ar    1  UNL1       -0.3523
     42 C          61.6035   87.8151   15.3273 C.ar    1  UNL1        0.0563
     43 C          62.6816   88.6539   15.6065 C.ar    1  UNL1        0.0170
     44 C          63.9592   88.2475   15.1793 C.ar    1  UNL1        0.0015
     45 C          64.1285   87.0264   14.4897 C.ar    1  UNL1        0.0001
     46 C          63.0225   86.1999   14.2221 C.ar    1  UNL1        0.0012
     47 C          61.7679   86.6293   14.6581 C.ar    1  UNL1        0.0131
     48 H          59.9014   88.8512   16.1174 H       1  UNL1        0.1660
@<TRIPOS>BOND
     1     5     6    1
     2     6     7   ar
     3     7     8   ar
     4     8    13    1
     5    13    14    1
     6    14    15    1
     7    15    16    1
     8    16    19    1
     9    19    20   ar
    10    20    21   ar
    11    21    22   ar
    12    22    23    1
    13    22    24   ar
    14    24    25    1
    15    24    26   ar
    16    16    17    1
    17    17    18    1
    18     8     9   ar
    19     9    10   ar
    20    10    11    1
    21    10    12   ar
    22    12     1    1
    23     1     2    2
    24     1     3   am
    25     3    27    1
    26    27    38    1
    27    38    39    1
    28    39    40   ar
    29    40    41   ar
    30    41    42   ar
    31    42    43   ar
    32    43    44   ar
    33    44    45   ar
    34    45    46   ar
    35    46    47   ar
    36    27    28    1
    37    28    29    2
    38    28    30   am
    39    30    32    1
    40    32    33   ar
    41    33    34   ar
    42    34    35   ar
    43    35    36   ar
    44    36    37   ar
    45    12     6   ar
    46    47    39   ar
    47    37    32   ar
    48    18    13    1
    49    47    42   ar
    50    26    19   ar
    51     3     4    1
    52    41    48    1
    53    30    31    1
