@<TRIPOS>MOLECULE
*****
 47 52 0 0 0
SMALL
GASTEIGER

@<TRIPOS>ATOM
      1 C          59.1034   85.4969    9.3700 C.ar    1  UNL1        0.1318
      2 C          59.6761   86.7676    9.5370 C.ar    1  UNL1        0.0356
      3 C          59.9437   87.5544    8.4159 C.ar    1  UNL1        0.0191
      4 C          59.6494   87.0788    7.1325 C.ar    1  UNL1        0.0702
      5 C          59.0401   85.8197    7.0091 C.ar    1  UNL1        0.1149
      6 N          58.7856   85.0719    8.1154 N.ar    1  UNL1       -0.2279
      7 C          59.0811   82.3046   12.0024 C.3     1  UNL1        0.0472
      8 C          57.9376   82.3893   10.9512 C.3     1  UNL1        0.0252
      9 C          57.5873   83.8262   10.5340 C.3     1  UNL1        0.0923
     10 N          58.7931   84.6641   10.5034 N.pl3   1  UNL1       -0.2932
     11 C          59.6342   84.7531   11.7053 C.3     1  UNL1        0.0923
     12 C          59.2941   83.6520   12.7215 C.3     1  UNL1        0.0252
     13 C          58.8198   81.1480   12.9888 C.3     1  UNL1        0.2054
     14 O          59.9443   80.2689   13.0781 O.3     1  UNL1       -0.4755
     15 C          63.3110   81.5075   11.9958 C.ar    1  UNL1        0.0105
     16 C          61.9532   81.1610   11.9390 C.ar    1  UNL1        0.0351
     17 C          61.3015   80.6370   13.0721 C.ar    1  UNL1        0.1385
     18 C          62.0263   80.4664   14.2571 C.ar    1  UNL1        0.0433
     19 C          63.3902   80.7952   14.3263 C.ar    1  UNL1        0.0782
     20 C          64.0277   81.3092   13.1848 C.ar    1  UNL1        0.0048
     21 C          64.1428   80.5948   15.5850 C.2     1  UNL1        0.3381
     22 O          64.0093   79.5301   16.2470 O.2     1  UNL1       -0.2451
     23 O          65.0075   81.5822   16.0508 O.3     1  UNL1       -0.4771
     24 H          65.5273   81.4551   16.9109 H       1  UNL1        0.2954
     25 C          64.0098   82.0128   10.7655 C.3     1  UNL1        0.1688
     26 C          62.8403   83.2425    9.2095 C.3     1  UNL1        0.1746
     27 O          63.1178   81.9408    9.6741 O.3     1  UNL1       -0.3463
     28 N          59.9083   87.9105    5.9884 N.am    1  UNL1       -0.2766
     29 C          59.2708   89.1767    5.7539 C.2     1  UNL1        0.2839
     30 O          58.2544   89.5088    6.4213 O.2     1  UNL1       -0.2665
     31 H          60.5348   87.5315    5.2424 H       1  UNL1        0.1553
     32 C          59.7851   90.0718    4.7000 C.ar    1  UNL1        0.1946
     33 O          59.2095   91.2199    4.3896 O.2     1  UNL1       -0.4492
     34 C          59.9016   91.7689    3.4216 C.ar    1  UNL1        0.1452
     35 C          59.6520   92.9813    2.7882 C.ar    1  UNL1        0.0375
     36 C          60.5270   93.3837    1.7645 C.ar    1  UNL1        0.0031
     37 C          61.6328   92.5732    1.3907 C.ar    1  UNL1        0.0002
     38 C          61.8516   91.3458    2.0615 C.ar    1  UNL1        0.0028
     39 C          60.9632   90.9777    3.0731 C.ar    1  UNL1        0.0337
     40 C          60.9083   89.8653    3.8911 C.ar    1  UNL1        0.0202
     41 C          61.8460   88.6959    3.9072 C.3     1  UNL1        0.0345
     42 C          62.5505   93.0087    0.3075 C.ar    1  UNL1        0.0000
     43 C          63.9322   93.1343    0.5472 C.ar    1  UNL1        0.0000
     44 C          64.7939   93.5446   -0.4747 C.ar    1  UNL1        0.0000
     45 C          64.2887   93.8325   -1.7444 C.ar    1  UNL1        0.0000
     46 C          62.9201   93.7112   -1.9951 C.ar    1  UNL1        0.0000
     47 C          62.0536   93.3022   -0.9767 C.ar    1  UNL1        0.0000
@<TRIPOS>BOND
     1    26    27    1
     2    27    25    1
     3    25    15    1
     4    15    16   ar
     5    16    17   ar
     6    17    14    1
     7    14    13    1
     8    13     7    1
     9     7     8    1
    10     8     9    1
    11     9    10    1
    12    10     1    1
    13     1     2   ar
    14     2     3   ar
    15     3     4   ar
    16     4    28    1
    17    28    29   am
    18    29    30    2
    19    29    32    1
    20    32    33   ar
    21    33    34   ar
    22    34    35   ar
    23    35    36   ar
    24    36    37   ar
    25    37    42    1
    26    42    43   ar
    27    43    44   ar
    28    44    45   ar
    29    45    46   ar
    30    46    47   ar
    31    37    38   ar
    32    38    39   ar
    33    39    40   ar
    34    40    41    1
    35     4     5   ar
    36     5     6   ar
    37    10    11    1
    38    11    12    1
    39    17    18   ar
    40    18    19   ar
    41    19    21    1
    42    21    22    2
    43    21    23    1
    44    19    20   ar
    45    20    15   ar
    46    12     7    1
    47     6     1   ar
    48    40    32   ar
    49    39    34   ar
    50    47    42   ar
    51    28    31    1
    52    23    24    1
@<TRIPOS>MOLECULE
*****
 47 52 0 0 0
SMALL
GASTEIGER

@<TRIPOS>ATOM
      1 C          60.5730   86.3028   11.1118 C.ar    1  UNL1        0.1318
      2 C          60.8859   85.7174    9.8749 C.ar    1  UNL1        0.0356
      3 C          60.6650   86.4349    8.6985 C.ar    1  UNL1        0.0191
      4 C          60.1294   87.7273    8.7494 C.ar    1  UNL1        0.0702
      5 C          59.8672   88.2937   10.0073 C.ar    1  UNL1        0.1149
      6 N          60.0933   87.5774   11.1403 N.ar    1  UNL1       -0.2279
      7 C          61.7713   83.4073   13.8138 C.3     1  UNL1        0.0472
      8 C          60.2824   83.4109   13.3631 C.3     1  UNL1        0.0252
      9 C          59.7534   84.8045   12.9901 C.3     1  UNL1        0.0923
     10 N          60.8063   85.6024   12.3486 N.pl3   1  UNL1       -0.2932
     11 C          62.0849   85.7954   13.0472 C.3     1  UNL1        0.0923
     12 C          62.2462   84.8169   14.2206 C.3     1  UNL1        0.0252
     13 C          61.9918   82.3683   14.9323 C.3     1  UNL1        0.2054
     14 O          62.0804   81.0411   14.4070 O.3     1  UNL1       -0.4755
     15 C          61.3400   79.2251   11.2142 C.ar    1  UNL1        0.0105
     16 C          61.3377   79.5450   12.5796 C.ar    1  UNL1        0.0351
     17 C          62.0423   80.6694   13.0513 C.ar    1  UNL1        0.1385
     18 C          62.7456   81.4648   12.1394 C.ar    1  UNL1        0.0433
     19 C          62.7696   81.1499   10.7707 C.ar    1  UNL1        0.0782
     20 C          62.0681   80.0202   10.3173 C.ar    1  UNL1        0.0048
     21 C          63.5302   81.9959    9.8239 C.2     1  UNL1        0.3381
     22 O          64.7824   81.8826    9.7295 O.2     1  UNL1       -0.2451
     23 O          62.8688   82.9266    9.0265 O.3     1  UNL1       -0.4771
     24 H          63.3799   83.5104    8.3752 H       1  UNL1        0.2954
     25 C          60.6314   77.9919   10.7300 C.3     1  UNL1        0.1688
     26 C          58.4258   78.5741   11.0422 C.3     1  UNL1        0.1746
     27 O          59.4863   77.7826   11.5282 O.3     1  UNL1       -0.3463
     28 N          59.9299   88.4637    7.5305 N.am    1  UNL1       -0.2766
     29 C          60.9227   89.3132    6.9326 C.2     1  UNL1        0.2839
     30 O          61.9430   89.6559    7.5884 O.2     1  UNL1       -0.2665
     31 H          58.9774   88.4450    7.1004 H       1  UNL1        0.1553
     32 C          60.7250   89.8174    5.5604 C.ar    1  UNL1        0.1946
     33 O          61.7273   90.0719    4.7380 O.2     1  UNL1       -0.4492
     34 C          61.2221   90.5045    3.6087 C.ar    1  UNL1        0.1452
     35 C          61.9154   90.8902    2.4668 C.ar    1  UNL1        0.0375
     36 C          61.1703   91.3278    1.3583 C.ar    1  UNL1        0.0031
     37 C          59.7507   91.3732    1.4067 C.ar    1  UNL1        0.0002
     38 C          59.0835   90.9712    2.5888 C.ar    1  UNL1        0.0028
     39 C          59.8548   90.5421    3.6701 C.ar    1  UNL1        0.0337
     40 C          59.5068   90.1001    4.9322 C.ar    1  UNL1        0.0202
     41 C          58.1276   89.9560    5.5017 C.3     1  UNL1        0.0345
     42 C          58.9740   91.8375    0.2293 C.ar    1  UNL1        0.0000
     43 C          58.2165   90.9275   -0.5326 C.ar    1  UNL1        0.0000
     44 C          57.4861   91.3675   -1.6408 C.ar    1  UNL1        0.0000
     45 C          57.5021   92.7169   -2.0001 C.ar    1  UNL1        0.0000
     46 C          58.2490   93.6297   -1.2521 C.ar    1  UNL1        0.0000
     47 C          58.9821   93.1951   -0.1435 C.ar    1  UNL1        0.0000
@<TRIPOS>BOND
     1    26    27    1
     2    27    25    1
     3    25    15    1
     4    15    16   ar
     5    16    17   ar
     6    17    14    1
     7    14    13    1
     8    13     7    1
     9     7     8    1
    10     8     9    1
    11     9    10    1
    12    10     1    1
    13     1     2   ar
    14     2     3   ar
    15     3     4   ar
    16     4    28    1
    17    28    29   am
    18    29    30    2
    19    29    32    1
    20    32    33   ar
    21    33    34   ar
    22    34    35   ar
    23    35    36   ar
    24    36    37   ar
    25    37    42    1
    26    42    43   ar
    27    43    44   ar
    28    44    45   ar
    29    45    46   ar
    30    46    47   ar
    31    37    38   ar
    32    38    39   ar
    33    39    40   ar
    34    40    41    1
    35     4     5   ar
    36     5     6   ar
    37    10    11    1
    38    11    12    1
    39    17    18   ar
    40    18    19   ar
    41    19    21    1
    42    21    22    2
    43    21    23    1
    44    19    20   ar
    45    20    15   ar
    46    12     7    1
    47     6     1   ar
    48    40    32   ar
    49    39    34   ar
    50    47    42   ar
    51    28    31    1
    52    23    24    1
@<TRIPOS>MOLECULE
*****
 47 52 0 0 0
SMALL
GASTEIGER

@<TRIPOS>ATOM
      1 C          60.8203   86.3191   10.8370 C.ar    1  UNL1        0.1318
      2 C          61.1389   87.6851   10.7817 C.ar    1  UNL1        0.0356
      3 C          60.8916   88.4025    9.6104 C.ar    1  UNL1        0.0191
      4 C          60.3355   87.7643    8.4954 C.ar    1  UNL1        0.0702
      5 C          59.9934   86.4067    8.6030 C.ar    1  UNL1        0.1149
      6 N          60.2403   85.7286    9.7550 N.ar    1  UNL1       -0.2279
      7 C          61.9312   83.2464   13.3758 C.3     1  UNL1        0.0472
      8 C          60.4375   83.3356   12.9508 C.3     1  UNL1        0.0252
      9 C          59.9640   84.7671   12.6543 C.3     1  UNL1        0.0923
     10 N          61.0410   85.5498   12.0345 N.pl3   1  UNL1       -0.2932
     11 C          62.3369   85.6536   12.7200 C.3     1  UNL1        0.0923
     12 C          62.4728   84.6129   13.8421 C.3     1  UNL1        0.0252
     13 C          62.1228   82.1455   14.4390 C.3     1  UNL1        0.2054
     14 O          62.2217   80.8497   13.8421 O.3     1  UNL1       -0.4755
     15 C          61.0166   80.2957   10.3378 C.ar    1  UNL1        0.0105
     16 C          61.7694   80.7988   11.4086 C.ar    1  UNL1        0.0351
     17 C          61.5045   80.3809   12.7271 C.ar    1  UNL1        0.1385
     18 C          60.4796   79.4558   12.9559 C.ar    1  UNL1        0.0433
     19 C          59.7070   78.9531   11.8959 C.ar    1  UNL1        0.0782
     20 C          59.9786   79.3862   10.5873 C.ar    1  UNL1        0.0048
     21 C          58.6184   77.9855   12.1597 C.2     1  UNL1        0.3381
     22 O          58.3504   77.6310   13.3397 O.2     1  UNL1       -0.2451
     23 O          57.8782   77.4566   11.1052 O.3     1  UNL1       -0.4771
     24 H          57.1311   76.7938   11.2748 H       1  UNL1        0.2954
     25 C          61.2707   80.7907    8.9422 C.3     1  UNL1        0.1688
     26 C          59.5541   82.2431    8.4476 C.3     1  UNL1        0.1746
     27 O          60.8968   82.1496    8.8667 O.3     1  UNL1       -0.3463
     28 N          60.0640   88.5218    7.3036 N.am    1  UNL1       -0.2766
     29 C          61.0004   89.4254    6.6942 C.2     1  UNL1        0.2839
     30 O          62.0287   89.7932    7.3235 O.2     1  UNL1       -0.2665
     31 H          59.0984   88.4747    6.9059 H       1  UNL1        0.1553
     32 C          60.7345   89.9548    5.3432 C.ar    1  UNL1        0.1946
     33 O          61.6953   90.2381    4.4815 O.2     1  UNL1       -0.4492
     34 C          61.1340   90.6871    3.3856 C.ar    1  UNL1        0.1452
     35 C          61.7701   91.1043    2.2216 C.ar    1  UNL1        0.0375
     36 C          60.9702   91.5550    1.1574 C.ar    1  UNL1        0.0031
     37 C          59.5538   91.5820    1.2712 C.ar    1  UNL1        0.0002
     38 C          58.9460   91.1480    2.4739 C.ar    1  UNL1        0.0028
     39 C          59.7707   90.7067    3.5098 C.ar    1  UNL1        0.0337
     40 C          59.4857   90.2352    4.7771 C.ar    1  UNL1        0.0202
     41 C          58.1358   90.0626    5.4055 C.3     1  UNL1        0.0345
     42 C          58.7190   92.0603    0.1402 C.ar    1  UNL1        0.0000
     43 C          57.7689   91.2105   -0.4578 C.ar    1  UNL1        0.0000
     44 C          56.9841   91.6636   -1.5226 C.ar    1  UNL1        0.0000
     45 C          57.1369   92.9666   -2.0013 C.ar    1  UNL1        0.0000
     46 C          58.0754   93.8196   -1.4163 C.ar    1  UNL1        0.0000
     47 C          58.8636   93.3715   -0.3518 C.ar    1  UNL1        0.0000
@<TRIPOS>BOND
     1    26    27    1
     2    27    25    1
     3    25    15    1
     4    15    16   ar
     5    16    17   ar
     6    17    14    1
     7    14    13    1
     8    13     7    1
     9     7     8    1
    10     8     9    1
    11     9    10    1
    12    10     1    1
    13     1     2   ar
    14     2     3   ar
    15     3     4   ar
    16     4    28    1
    17    28    29   am
    18    29    30    2
    19    29    32    1
    20    32    33   ar
    21    33    34   ar
    22    34    35   ar
    23    35    36   ar
    24    36    37   ar
    25    37    42    1
    26    42    43   ar
    27    43    44   ar
    28    44    45   ar
    29    45    46   ar
    30    46    47   ar
    31    37    38   ar
    32    38    39   ar
    33    39    40   ar
    34    40    41    1
    35     4     5   ar
    36     5     6   ar
    37    10    11    1
    38    11    12    1
    39    17    18   ar
    40    18    19   ar
    41    19    21    1
    42    21    22    2
    43    21    23    1
    44    19    20   ar
    45    20    15   ar
    46    12     7    1
    47     6     1   ar
    48    40    32   ar
    49    39    34   ar
    50    47    42   ar
    51    28    31    1
    52    23    24    1
