@<TRIPOS>MOLECULE
*****
 45 50 0 0 0
SMALL
GASTEIGER

@<TRIPOS>ATOM
      1 C         -25.7664   50.1377   -9.5257 C.ar    1  UNL1        0.0702
      2 C         -25.9405   48.8148   -9.1047 C.ar    1  UNL1        0.0191
      3 C         -27.0446   48.0774   -9.5349 C.ar    1  UNL1        0.0356
      4 C         -27.9949   48.6758  -10.3822 C.ar    1  UNL1        0.1319
      5 N         -27.8147   49.9744  -10.7551 N.ar    1  UNL1       -0.2279
      6 C         -26.7457   50.7102  -10.3517 C.ar    1  UNL1        0.1149
      7 N         -29.1479   47.9429  -10.8595 N.pl3   1  UNL1       -0.2904
      8 C         -29.1150   46.4730  -10.9627 C.3     1  UNL1        0.0925
      9 C         -30.2759   45.9335  -11.8118 C.3     1  UNL1        0.0280
     10 C         -30.4627   46.8072  -13.0652 C.3     1  UNL1        0.0797
     11 C         -30.7830   48.2833  -12.6931 C.3     1  UNL1        0.1842
     12 F         -30.1312   49.1267  -13.5783 F       1  UNL1       -0.2353
     13 C         -30.3763   48.6501  -11.2546 C.3     1  UNL1        0.1274
     14 C         -31.5476   46.2085  -13.9814 C.3     1  UNL1        0.2081
     15 O         -30.9652   45.4276  -15.0266 O.3     1  UNL1       -0.4754
     16 C         -30.4355   45.9317  -16.2259 C.ar    1  UNL1        0.1388
     17 C         -30.1861   45.1206  -17.3491 C.ar    1  UNL1        0.0369
     18 C         -29.6558   45.6782  -18.5141 C.ar    1  UNL1        0.0033
     19 C         -29.3723   47.0442  -18.5755 C.ar    1  UNL1        0.0066
     20 C         -29.6198   47.8711  -17.4673 C.ar    1  UNL1        0.0785
     21 C         -30.1545   47.3021  -16.2968 C.ar    1  UNL1        0.0433
     22 C         -29.3203   49.3187  -17.5346 C.2     1  UNL1        0.3381
     23 O         -29.0912   49.8728  -18.6438 O.2     1  UNL1       -0.2451
     24 O         -29.2887   50.0837  -16.3714 O.3     1  UNL1       -0.4771
     25 H         -29.0848   51.0753  -16.4062 H       1  UNL1        0.2954
     26 C         -23.5573   51.3322   -9.8974 C.2     1  UNL1        0.2839
     27 O         -23.4231   50.8579  -11.0575 O.2     1  UNL1       -0.2665
     28 N         -24.6355   50.8915   -9.0560 N.am    1  UNL1       -0.2766
     29 H         -24.5525   51.0550   -8.0269 H       1  UNL1        0.1553
     30 C         -23.5083   54.4838  -10.4791 C.3     1  UNL1        0.0345
     31 C         -22.5572   53.6895   -9.6356 C.ar    1  UNL1        0.0202
     32 C         -22.5817   52.3129   -9.3847 C.ar    1  UNL1        0.1946
     33 O         -21.5787   51.9799   -8.5918 O.2     1  UNL1       -0.4492
     34 C         -20.9047   53.0695   -8.3158 C.ar    1  UNL1        0.1452
     35 C         -19.7735   53.1819   -7.5150 C.ar    1  UNL1        0.0375
     36 C         -19.2055   54.4570   -7.3501 C.ar    1  UNL1        0.0031
     37 C         -19.7731   55.5951   -7.9842 C.ar    1  UNL1        0.0002
     38 C         -20.9250   55.4369   -8.7918 C.ar    1  UNL1        0.0028
     39 C         -21.4624   54.1565   -8.9338 C.ar    1  UNL1        0.0337
     40 C         -19.1644   56.9372   -7.8024 C.ar    1  UNL1        0.0000
     41 C         -19.4131   57.9675   -8.7293 C.ar    1  UNL1        0.0000
     42 C         -18.8377   59.2302   -8.5560 C.ar    1  UNL1        0.0000
     43 C         -18.0104   59.4790   -7.4587 C.ar    1  UNL1        0.0000
     44 C         -17.7563   58.4655   -6.5321 C.ar    1  UNL1        0.0000
     45 C         -18.3281   57.2008   -6.7008 C.ar    1  UNL1        0.0000
@<TRIPOS>BOND
     1    30    31    1
     2    31    32   ar
     3    32    26    1
     4    26    27    2
     5    26    28   am
     6    28     1    1
     7     1     2   ar
     8     2     3   ar
     9     3     4   ar
    10     4     7    1
    11     7     8    1
    12     8     9    1
    13     9    10    1
    14    10    14    1
    15    14    15    1
    16    15    16    1
    17    16    17   ar
    18    17    18   ar
    19    18    19   ar
    20    19    20   ar
    21    20    22    1
    22    22    23    2
    23    22    24    1
    24    20    21   ar
    25    10    11    1
    26    11    12    1
    27    11    13    1
    28     4     5   ar
    29     5     6   ar
    30    32    33   ar
    31    33    34   ar
    32    34    35   ar
    33    35    36   ar
    34    36    37   ar
    35    37    40    1
    36    40    41   ar
    37    41    42   ar
    38    42    43   ar
    39    43    44   ar
    40    44    45   ar
    41    37    38   ar
    42    38    39   ar
    43    39    31   ar
    44     6     1   ar
    45    39    34   ar
    46    13     7    1
    47    45    40   ar
    48    21    16   ar
    49    28    29    1
    50    24    25    1
@<TRIPOS>MOLECULE
*****
 45 50 0 0 0
SMALL
GASTEIGER

@<TRIPOS>ATOM
      1 C         -25.1068   49.9028   -8.9434 C.ar    1  UNL1        0.0702
      2 C         -25.3760   48.7919   -8.1365 C.ar    1  UNL1        0.0191
      3 C         -26.4440   47.9449   -8.4363 C.ar    1  UNL1        0.0356
      4 C         -27.2629   48.2221   -9.5461 C.ar    1  UNL1        0.1319
      5 N         -26.9943   49.3260  -10.2992 N.ar    1  UNL1       -0.2279
      6 C         -25.9579   50.1623  -10.0284 C.ar    1  UNL1        0.1149
      7 N         -28.3735   47.3634   -9.8976 N.pl3   1  UNL1       -0.2904
      8 C         -28.1525   46.1223  -10.6613 C.3     1  UNL1        0.0925
      9 C         -29.4639   45.5603  -11.2304 C.3     1  UNL1        0.0280
     10 C         -30.3181   46.7013  -11.8117 C.3     1  UNL1        0.0797
     11 C         -30.6769   47.7586  -10.7285 C.3     1  UNL1        0.1842
     12 F         -30.6232   49.0230  -11.2923 F       1  UNL1       -0.2353
     13 C         -29.7472   47.7131   -9.5025 C.3     1  UNL1        0.1274
     14 C         -31.5821   46.1360  -12.4884 C.3     1  UNL1        0.2081
     15 O         -31.4084   46.0381  -13.9032 O.3     1  UNL1       -0.4754
     16 C         -31.1063   47.1046  -14.7658 C.ar    1  UNL1        0.1388
     17 C         -31.5330   48.4242  -14.5244 C.ar    1  UNL1        0.0369
     18 C         -31.2037   49.4436  -15.4199 C.ar    1  UNL1        0.0033
     19 C         -30.4461   49.1631  -16.5590 C.ar    1  UNL1        0.0066
     20 C         -30.0058   47.8539  -16.8141 C.ar    1  UNL1        0.0785
     21 C         -30.3414   46.8318  -15.9071 C.ar    1  UNL1        0.0433
     22 C         -29.2017   47.5587  -18.0207 C.2     1  UNL1        0.3381
     23 O         -29.6454   46.7829  -18.9101 O.2     1  UNL1       -0.2451
     24 O         -27.9451   48.1359  -18.1853 O.3     1  UNL1       -0.4771
     25 H         -27.3864   47.9406  -19.0074 H       1  UNL1        0.2954
     26 C         -23.1660   51.4110   -9.5790 C.2     1  UNL1        0.2839
     27 O         -23.1766   51.0258  -10.7792 O.2     1  UNL1       -0.2665
     28 N         -24.0164   50.7785   -8.6087 N.am    1  UNL1       -0.2766
     29 H         -23.7770   50.8938   -7.5978 H       1  UNL1        0.1553
     30 C         -23.4027   54.5283  -10.2857 C.3     1  UNL1        0.0345
     31 C         -22.3488   53.8491   -9.4641 C.ar    1  UNL1        0.0202
     32 C         -22.2486   52.4871   -9.1585 C.ar    1  UNL1        0.1946
     33 O         -21.1831   52.2692   -8.4083 O.2     1  UNL1       -0.4492
     34 C         -20.5867   53.4196   -8.2119 C.ar    1  UNL1        0.1452
     35 C         -19.4294   53.6558   -7.4783 C.ar    1  UNL1        0.0375
     36 C         -18.9593   54.9778   -7.3943 C.ar    1  UNL1        0.0031
     37 C         -19.6488   56.0388   -8.0411 C.ar    1  UNL1        0.0002
     38 C         -20.8234   55.7551   -8.7787 C.ar    1  UNL1        0.0028
     39 C         -21.2614   54.4313   -8.8412 C.ar    1  UNL1        0.0337
     40 C         -19.1428   57.4316   -7.9452 C.ar    1  UNL1        0.0000
     41 C         -18.4031   57.8486   -6.8221 C.ar    1  UNL1        0.0000
     42 C         -17.9287   59.1610   -6.7340 C.ar    1  UNL1        0.0000
     43 C         -18.1853   60.0698   -7.7630 C.ar    1  UNL1        0.0000
     44 C         -18.9175   59.6683   -8.8823 C.ar    1  UNL1        0.0000
     45 C         -19.3952   58.3575   -8.9754 C.ar    1  UNL1        0.0000
@<TRIPOS>BOND
     1    30    31    1
     2    31    32   ar
     3    32    26    1
     4    26    27    2
     5    26    28   am
     6    28     1    1
     7     1     2   ar
     8     2     3   ar
     9     3     4   ar
    10     4     7    1
    11     7     8    1
    12     8     9    1
    13     9    10    1
    14    10    14    1
    15    14    15    1
    16    15    16    1
    17    16    17   ar
    18    17    18   ar
    19    18    19   ar
    20    19    20   ar
    21    20    22    1
    22    22    23    2
    23    22    24    1
    24    20    21   ar
    25    10    11    1
    26    11    12    1
    27    11    13    1
    28     4     5   ar
    29     5     6   ar
    30    32    33   ar
    31    33    34   ar
    32    34    35   ar
    33    35    36   ar
    34    36    37   ar
    35    37    40    1
    36    40    41   ar
    37    41    42   ar
    38    42    43   ar
    39    43    44   ar
    40    44    45   ar
    41    37    38   ar
    42    38    39   ar
    43    39    31   ar
    44     6     1   ar
    45    39    34   ar
    46    13     7    1
    47    45    40   ar
    48    21    16   ar
    49    28    29    1
    50    24    25    1
@<TRIPOS>MOLECULE
*****
 45 50 0 0 0
SMALL
GASTEIGER

@<TRIPOS>ATOM
      1 C         -27.1193   49.9019   -6.4625 C.ar    1  UNL1        0.0702
      2 C         -26.9897   48.8122   -5.5945 C.ar    1  UNL1        0.0191
      3 C         -27.9796   48.5428   -4.6483 C.ar    1  UNL1        0.0356
      4 C         -29.1041   49.3833   -4.5577 C.ar    1  UNL1        0.1319
      5 N         -29.1918   50.4533   -5.3975 N.ar    1  UNL1       -0.2279
      6 C         -28.2423   50.7327   -6.3287 C.ar    1  UNL1        0.1149
      7 N         -30.1579   49.1328   -3.5980 N.pl3   1  UNL1       -0.2904
      8 C         -30.7634   50.2418   -2.8390 C.3     1  UNL1        0.0925
      9 C         -31.5839   49.7352   -1.6433 C.3     1  UNL1        0.0280
     10 C         -30.8225   48.6094   -0.9206 C.3     1  UNL1        0.0797
     11 C         -30.5506   47.4030   -1.8643 C.3     1  UNL1        0.1842
     12 F         -29.2895   46.8941   -1.5994 F       1  UNL1       -0.2353
     13 C         -30.6449   47.7653   -3.3574 C.3     1  UNL1        0.1274
     14 C         -31.5827   48.1735    0.3471 C.3     1  UNL1        0.2081
     15 O         -30.6819   47.9276    1.4285 O.3     1  UNL1       -0.4754
     16 C         -30.8674   48.3422    2.7576 C.ar    1  UNL1        0.1388
     17 C         -31.0603   47.4369    3.8184 C.ar    1  UNL1        0.0369
     18 C         -31.2421   47.9086    5.1198 C.ar    1  UNL1        0.0033
     19 C         -31.2304   49.2806    5.3800 C.ar    1  UNL1        0.0066
     20 C         -31.0333   50.1995    4.3360 C.ar    1  UNL1        0.0785
     21 C         -30.8506   49.7166    3.0269 C.ar    1  UNL1        0.0433
     22 C         -31.0195   51.6528    4.6136 C.2     1  UNL1        0.3381
     23 O         -31.5839   52.4592    3.8254 O.2     1  UNL1       -0.2451
     24 O         -30.3819   52.1444    5.7498 O.3     1  UNL1       -0.4771
     25 H         -30.3666   53.1374    5.9493 H       1  UNL1        0.2954
     26 C         -25.8752   51.4617   -8.0324 C.2     1  UNL1        0.2839
     27 O         -26.7634   52.3527   -7.9537 O.2     1  UNL1       -0.2665
     28 N         -26.0803   50.1795   -7.4171 N.am    1  UNL1       -0.2766
     29 H         -25.4934   49.3790   -7.7448 H       1  UNL1        0.1553
     30 C         -22.9305   50.4067   -7.3333 C.3     1  UNL1        0.0345
     31 C         -23.3505   51.2606   -8.4916 C.ar    1  UNL1        0.0202
     32 C         -24.6377   51.7199   -8.7929 C.ar    1  UNL1        0.1946
     33 O         -24.6119   52.4458   -9.8965 O.2     1  UNL1       -0.4492
     34 C         -23.3743   52.4815  -10.3263 C.ar    1  UNL1        0.1452
     35 C         -22.8921   53.1316  -11.4569 C.ar    1  UNL1        0.0375
     36 C         -21.5178   53.0380  -11.7364 C.ar    1  UNL1        0.0031
     37 C         -20.6500   52.3000  -10.8867 C.ar    1  UNL1        0.0002
     38 C         -21.1817   51.6533   -9.7451 C.ar    1  UNL1        0.0028
     39 C         -22.5506   51.7675   -9.4978 C.ar    1  UNL1        0.0337
     40 C         -19.1998   52.2080  -11.1922 C.ar    1  UNL1        0.0000
     41 C         -18.7487   52.1939  -12.5259 C.ar    1  UNL1        0.0000
     42 C         -17.3825   52.1063  -12.8106 C.ar    1  UNL1        0.0000
     43 C         -16.4530   52.0326  -11.7709 C.ar    1  UNL1        0.0000
     44 C         -16.8877   52.0460  -10.4438 C.ar    1  UNL1        0.0000
     45 C         -18.2526   52.1326  -10.1531 C.ar    1  UNL1        0.0000
@<TRIPOS>BOND
     1    30    31    1
     2    31    32   ar
     3    32    26    1
     4    26    27    2
     5    26    28   am
     6    28     1    1
     7     1     2   ar
     8     2     3   ar
     9     3     4   ar
    10     4     7    1
    11     7     8    1
    12     8     9    1
    13     9    10    1
    14    10    14    1
    15    14    15    1
    16    15    16    1
    17    16    17   ar
    18    17    18   ar
    19    18    19   ar
    20    19    20   ar
    21    20    22    1
    22    22    23    2
    23    22    24    1
    24    20    21   ar
    25    10    11    1
    26    11    12    1
    27    11    13    1
    28     4     5   ar
    29     5     6   ar
    30    32    33   ar
    31    33    34   ar
    32    34    35   ar
    33    35    36   ar
    34    36    37   ar
    35    37    40    1
    36    40    41   ar
    37    41    42   ar
    38    42    43   ar
    39    43    44   ar
    40    44    45   ar
    41    37    38   ar
    42    38    39   ar
    43    39    31   ar
    44     6     1   ar
    45    39    34   ar
    46    13     7    1
    47    45    40   ar
    48    21    16   ar
    49    28    29    1
    50    24    25    1
@<TRIPOS>MOLECULE
*****
 45 50 0 0 0
SMALL
GASTEIGER

@<TRIPOS>ATOM
      1 C         -26.2589   50.0132   -7.9511 C.ar    1  UNL1        0.0702
      2 C         -26.0598   49.3615   -9.1732 C.ar    1  UNL1        0.0191
      3 C         -25.1366   49.8578  -10.0947 C.ar    1  UNL1        0.0356
      4 C         -24.4166   51.0294   -9.7978 C.ar    1  UNL1        0.1319
      5 N         -24.6499   51.6590   -8.6117 N.ar    1  UNL1       -0.2279
      6 C         -25.5409   51.1920   -7.6979 C.ar    1  UNL1        0.1149
      7 N         -23.4427   51.5709  -10.7212 N.pl3   1  UNL1       -0.2904
      8 C         -22.0746   51.0253  -10.7771 C.3     1  UNL1        0.0925
      9 C         -21.1196   51.9543  -11.5417 C.3     1  UNL1        0.0280
     10 C         -21.3681   53.4174  -11.1333 C.3     1  UNL1        0.0797
     11 C         -22.8258   53.8610  -11.4467 C.3     1  UNL1        0.1842
     12 F         -23.2824   54.6768  -10.4241 F       1  UNL1       -0.2353
     13 C         -23.7969   52.6796  -11.6214 C.3     1  UNL1        0.1274
     14 C         -20.3389   54.3461  -11.8067 C.3     1  UNL1        0.2081
     15 O         -19.8835   55.3527  -10.9006 O.3     1  UNL1       -0.4754
     16 C         -19.6520   55.1722   -9.5271 C.ar    1  UNL1        0.1388
     17 C         -19.8568   56.1927   -8.5792 C.ar    1  UNL1        0.0369
     18 C         -19.6070   55.9549   -7.2263 C.ar    1  UNL1        0.0033
     19 C         -19.1559   54.7032   -6.8026 C.ar    1  UNL1        0.0066
     20 C         -18.9513   53.6702   -7.7323 C.ar    1  UNL1        0.0785
     21 C         -19.2053   53.9172   -9.0941 C.ar    1  UNL1        0.0433
     22 C         -18.4749   52.3438   -7.2815 C.2     1  UNL1        0.3381
     23 O         -17.7454   51.6387   -8.0301 O.2     1  UNL1       -0.2451
     24 O         -18.8284   51.8612   -6.0239 O.3     1  UNL1       -0.4771
     25 H         -18.5077   50.9546   -5.7055 H       1  UNL1        0.2954
     26 C         -27.2796   48.1355   -6.5809 C.2     1  UNL1        0.2839
     27 O         -26.6211   47.2486   -7.1881 O.2     1  UNL1       -0.2665
     28 N         -27.2297   49.5023   -7.0215 N.am    1  UNL1       -0.2766
     29 H         -27.9949   50.1447   -6.7141 H       1  UNL1        0.1553
     30 C         -26.6060   48.5010   -3.4687 C.3     1  UNL1        0.0345
     31 C         -27.8472   47.9232   -4.0793 C.ar    1  UNL1        0.0202
     32 C         -28.1371   47.7646   -5.4392 C.ar    1  UNL1        0.1946
     33 O         -29.3313   47.2189   -5.5862 O.2     1  UNL1       -0.4492
     34 C         -29.8307   47.0148   -4.3918 C.ar    1  UNL1        0.1452
     35 C         -31.0667   46.4607   -4.0773 C.ar    1  UNL1        0.0375
     36 C         -31.4070   46.3340   -2.7194 C.ar    1  UNL1        0.0031
     37 C         -30.5122   46.7607   -1.7011 C.ar    1  UNL1        0.0002
     38 C         -29.2631   47.3193   -2.0644 C.ar    1  UNL1        0.0028
     39 C         -28.9579   47.4297   -3.4219 C.ar    1  UNL1        0.0337
     40 C         -30.8828   46.6221   -0.2699 C.ar    1  UNL1        0.0000
     41 C         -30.9244   47.7504    0.5714 C.ar    1  UNL1        0.0000
     42 C         -31.2728   47.6167    1.9189 C.ar    1  UNL1        0.0000
     43 C         -31.5836   46.3593    2.4413 C.ar    1  UNL1        0.0000
     44 C         -31.5463   45.2325    1.6171 C.ar    1  UNL1        0.0000
     45 C         -31.1977   45.3600    0.2691 C.ar    1  UNL1        0.0000
@<TRIPOS>BOND
     1    30    31    1
     2    31    32   ar
     3    32    26    1
     4    26    27    2
     5    26    28   am
     6    28     1    1
     7     1     2   ar
     8     2     3   ar
     9     3     4   ar
    10     4     7    1
    11     7     8    1
    12     8     9    1
    13     9    10    1
    14    10    14    1
    15    14    15    1
    16    15    16    1
    17    16    17   ar
    18    17    18   ar
    19    18    19   ar
    20    19    20   ar
    21    20    22    1
    22    22    23    2
    23    22    24    1
    24    20    21   ar
    25    10    11    1
    26    11    12    1
    27    11    13    1
    28     4     5   ar
    29     5     6   ar
    30    32    33   ar
    31    33    34   ar
    32    34    35   ar
    33    35    36   ar
    34    36    37   ar
    35    37    40    1
    36    40    41   ar
    37    41    42   ar
    38    42    43   ar
    39    43    44   ar
    40    44    45   ar
    41    37    38   ar
    42    38    39   ar
    43    39    31   ar
    44     6     1   ar
    45    39    34   ar
    46    13     7    1
    47    45    40   ar
    48    21    16   ar
    49    28    29    1
    50    24    25    1
