@<TRIPOS>MOLECULE
*****
 47 52 0 0 0
SMALL
GASTEIGER

@<TRIPOS>ATOM
      1 C          11.6148   80.9189   25.3302 C.ar    1  UNL1        0.0702
      2 C          12.9986   80.7487   25.1711 C.ar    1  UNL1        0.0191
      3 C          13.7897   81.8134   24.7362 C.ar    1  UNL1        0.0356
      4 C          13.1886   83.0458   24.4344 C.ar    1  UNL1        0.1318
      5 N          11.8423   83.1836   24.5889 N.ar    1  UNL1       -0.2279
      6 C          11.0529   82.1610   25.0112 C.ar    1  UNL1        0.1149
      7 N          13.9744   84.1733   24.0044 N.pl3   1  UNL1       -0.2932
      8 C          14.0388   85.4111   24.7941 C.3     1  UNL1        0.0923
      9 C          13.7836   86.6405   23.9054 C.3     1  UNL1        0.0252
     10 C          14.2928   86.4665   22.4491 C.3     1  UNL1        0.0472
     11 C          15.3900   85.3877   22.3584 C.3     1  UNL1        0.0252
     12 C          14.8357   84.0317   22.8209 C.3     1  UNL1        0.0923
     13 C          14.7857   87.8102   21.8781 C.3     1  UNL1        0.2055
     14 O          15.2513   88.6745   22.9164 O.3     1  UNL1       -0.4742
     15 C          16.5868   88.8169   23.3342 C.ar    1  UNL1        0.1515
     16 C          17.6478   88.9102   22.4139 C.ar    1  UNL1        0.0382
     17 C          18.9563   89.0757   22.8599 C.ar    1  UNL1        0.0034
     18 C          19.2312   89.1302   24.2240 C.ar    1  UNL1        0.0079
     19 C          18.1975   89.0194   25.1684 C.ar    1  UNL1        0.0913
     20 C          16.8577   88.8901   24.7180 C.ar    1  UNL1        0.0822
     21 N          15.7611   88.8867   25.6454 N.pl3   1  UNL1       -0.3545
     22 H          15.8577   89.2742   26.6088 H       1  UNL1        0.1424
     23 H          14.7993   88.6138   25.3447 H       1  UNL1        0.1424
     24 C          18.5568   88.9915   26.6046 C.2     1  UNL1        0.3393
     25 O          19.6380   88.4586   26.9743 O.2     1  UNL1       -0.2450
     26 O          17.6840   89.4987   27.5632 O.3     1  UNL1       -0.4771
     27 H          17.9169   89.4658   28.5485 H       1  UNL1        0.2954
     28 C           9.6733   79.3220   24.9653 C.2     1  UNL1        0.2839
     29 O           9.3675   79.8546   23.8653 O.2     1  UNL1       -0.2665
     30 N          10.7608   79.8420   25.7503 N.am    1  UNL1       -0.2766
     31 H          10.9895   79.3829   26.6586 H       1  UNL1        0.1553
     32 C           8.0197   79.0604   27.7372 C.3     1  UNL1        0.0345
     33 C           8.1439   78.0673   26.6217 C.ar    1  UNL1        0.0202
     34 C           8.8757   78.1748   25.4325 C.ar    1  UNL1        0.1946
     35 O           8.7799   77.0531   24.7403 O.2     1  UNL1       -0.4492
     36 C           8.0044   76.2334   25.4070 C.ar    1  UNL1        0.1452
     37 C           7.6245   74.9457   25.0449 C.ar    1  UNL1        0.0375
     38 C           6.7786   74.2376   25.9167 C.ar    1  UNL1        0.0031
     39 C           6.3284   74.8232   27.1311 C.ar    1  UNL1        0.0002
     40 C           6.7409   76.1362   27.4623 C.ar    1  UNL1        0.0028
     41 C           7.5785   76.8092   26.5727 C.ar    1  UNL1        0.0337
     42 C           5.4352   74.0660   28.0444 C.ar    1  UNL1        0.0000
     43 C           4.8439   74.6986   29.1546 C.ar    1  UNL1        0.0000
     44 C           4.0041   73.9828   30.0134 C.ar    1  UNL1        0.0000
     45 C           3.7446   72.6315   29.7747 C.ar    1  UNL1        0.0000
     46 C           4.3248   71.9926   28.6767 C.ar    1  UNL1        0.0000
     47 C           5.1661   72.7031   27.8151 C.ar    1  UNL1        0.0000
@<TRIPOS>BOND
     1    32    33    1
     2    33    34   ar
     3    34    28    1
     4    28    29    2
     5    28    30   am
     6    30     1    1
     7     1     2   ar
     8     2     3   ar
     9     3     4   ar
    10     4     7    1
    11     7     8    1
    12     8     9    1
    13     9    10    1
    14    10    13    1
    15    13    14    1
    16    14    15    1
    17    15    16   ar
    18    16    17   ar
    19    17    18   ar
    20    18    19   ar
    21    19    24    1
    22    24    25    2
    23    24    26    1
    24    19    20   ar
    25    20    21    1
    26    10    11    1
    27    11    12    1
    28     4     5   ar
    29     5     6   ar
    30    34    35   ar
    31    35    36   ar
    32    36    37   ar
    33    37    38   ar
    34    38    39   ar
    35    39    42    1
    36    42    43   ar
    37    43    44   ar
    38    44    45   ar
    39    45    46   ar
    40    46    47   ar
    41    39    40   ar
    42    40    41   ar
    43    41    33   ar
    44     6     1   ar
    45    41    36   ar
    46    12     7    1
    47    47    42   ar
    48    20    15   ar
    49    30    31    1
    50    26    27    1
    51    21    22    1
    52    21    23    1
@<TRIPOS>MOLECULE
*****
 47 52 0 0 0
SMALL
GASTEIGER

@<TRIPOS>ATOM
      1 C          11.5476   81.2521   25.5742 C.ar    1  UNL1        0.0702
      2 C          12.5310   81.9156   26.3238 C.ar    1  UNL1        0.0191
      3 C          13.3088   82.9124   25.7322 C.ar    1  UNL1        0.0356
      4 C          13.1185   83.2276   24.3773 C.ar    1  UNL1        0.1318
      5 N          12.1633   82.5637   23.6687 N.ar    1  UNL1       -0.2279
      6 C          11.3945   81.5902   24.2241 C.ar    1  UNL1        0.1149
      7 N          13.8863   84.2648   23.7381 N.pl3   1  UNL1       -0.2932
      8 C          13.7842   85.6684   24.1617 C.3     1  UNL1        0.0923
      9 C          13.5705   86.5911   22.9497 C.3     1  UNL1        0.0252
     10 C          14.2624   86.0824   21.6563 C.3     1  UNL1        0.0472
     11 C          15.4214   85.1180   21.9765 C.3     1  UNL1        0.0252
     12 C          14.8921   83.8901   22.7328 C.3     1  UNL1        0.0923
     13 C          14.7449   87.2644   20.7933 C.3     1  UNL1        0.2055
     14 O          13.8083   87.5652   19.7569 O.3     1  UNL1       -0.4742
     15 C          14.0941   87.6347   18.3814 C.ar    1  UNL1        0.1515
     16 C          14.0911   88.8564   17.6823 C.ar    1  UNL1        0.0382
     17 C          14.4027   88.8939   16.3258 C.ar    1  UNL1        0.0034
     18 C          14.7012   87.7184   15.6416 C.ar    1  UNL1        0.0079
     19 C          14.6925   86.4807   16.3055 C.ar    1  UNL1        0.0913
     20 C          14.4139   86.4421   17.6967 C.ar    1  UNL1        0.0822
     21 N          14.5045   85.2146   18.4370 N.pl3   1  UNL1       -0.3545
     22 H          15.0533   84.4013   18.0833 H       1  UNL1        0.1424
     23 H          14.1311   85.1405   19.4091 H       1  UNL1        0.1424
     24 C          14.9268   85.2539   15.5099 C.2     1  UNL1        0.3393
     25 O          14.3145   85.0814   14.4213 O.2     1  UNL1       -0.2450
     26 O          15.7767   84.2565   15.9798 O.3     1  UNL1       -0.4771
     27 H          15.9265   83.4074   15.4480 H       1  UNL1        0.2954
     28 C          11.0978   78.8086   26.1031 C.2     1  UNL1        0.2839
     29 O          12.1327   78.4272   25.4942 O.2     1  UNL1       -0.2665
     30 N          10.7435   80.2024   26.1371 N.am    1  UNL1       -0.2766
     31 H           9.8793   80.4890   26.6462 H       1  UNL1        0.1553
     32 C           7.9431   78.2547   25.6267 C.3     1  UNL1        0.0345
     33 C           8.8948   77.5371   26.5352 C.ar    1  UNL1        0.0202
     34 C          10.2545   77.7911   26.7542 C.ar    1  UNL1        0.1946
     35 O          10.7223   76.9761   27.6835 O.2     1  UNL1       -0.4492
     36 C           9.7430   76.1907   28.0604 C.ar    1  UNL1        0.1452
     37 C           9.7897   75.1771   29.0112 C.ar    1  UNL1        0.0375
     38 C           8.6109   74.4526   29.2616 C.ar    1  UNL1        0.0031
     39 C           7.4096   74.7508   28.5627 C.ar    1  UNL1        0.0002
     40 C           7.4056   75.7925   27.6042 C.ar    1  UNL1        0.0028
     41 C           8.5936   76.4884   27.3805 C.ar    1  UNL1        0.0337
     42 C           6.1706   73.9790   28.8353 C.ar    1  UNL1        0.0000
     43 C           5.3361   74.3230   29.9159 C.ar    1  UNL1        0.0000
     44 C           4.1705   73.5939   30.1707 C.ar    1  UNL1        0.0000
     45 C           3.8246   72.5164   29.3523 C.ar    1  UNL1        0.0000
     46 C           4.6439   72.1653   28.2772 C.ar    1  UNL1        0.0000
     47 C           5.8111   72.8903   28.0181 C.ar    1  UNL1        0.0000
@<TRIPOS>BOND
     1    32    33    1
     2    33    34   ar
     3    34    28    1
     4    28    29    2
     5    28    30   am
     6    30     1    1
     7     1     2   ar
     8     2     3   ar
     9     3     4   ar
    10     4     7    1
    11     7     8    1
    12     8     9    1
    13     9    10    1
    14    10    13    1
    15    13    14    1
    16    14    15    1
    17    15    16   ar
    18    16    17   ar
    19    17    18   ar
    20    18    19   ar
    21    19    24    1
    22    24    25    2
    23    24    26    1
    24    19    20   ar
    25    20    21    1
    26    10    11    1
    27    11    12    1
    28     4     5   ar
    29     5     6   ar
    30    34    35   ar
    31    35    36   ar
    32    36    37   ar
    33    37    38   ar
    34    38    39   ar
    35    39    42    1
    36    42    43   ar
    37    43    44   ar
    38    44    45   ar
    39    45    46   ar
    40    46    47   ar
    41    39    40   ar
    42    40    41   ar
    43    41    33   ar
    44     6     1   ar
    45    41    36   ar
    46    12     7    1
    47    47    42   ar
    48    20    15   ar
    49    30    31    1
    50    26    27    1
    51    21    22    1
    52    21    23    1
@<TRIPOS>MOLECULE
*****
 47 52 0 0 0
SMALL
GASTEIGER

@<TRIPOS>ATOM
      1 C          11.5370   81.1934   25.6266 C.ar    1  UNL1        0.0702
      2 C          12.5543   81.8124   26.3690 C.ar    1  UNL1        0.0191
      3 C          13.3382   82.8100   25.7868 C.ar    1  UNL1        0.0356
      4 C          13.1194   83.1706   24.4477 C.ar    1  UNL1        0.1318
      5 N          12.1313   82.5493   23.7454 N.ar    1  UNL1       -0.2279
      6 C          11.3560   81.5760   24.2919 C.ar    1  UNL1        0.1149
      7 N          13.8929   84.2102   23.8194 N.pl3   1  UNL1       -0.2932
      8 C          13.6875   85.6274   24.1503 C.3     1  UNL1        0.0923
      9 C          13.5421   86.4716   22.8726 C.3     1  UNL1        0.0252
     10 C          14.3715   85.9305   21.6769 C.3     1  UNL1        0.0472
     11 C          15.5402   85.0458   22.1533 C.3     1  UNL1        0.0252
     12 C          15.0021   83.8345   22.9301 C.3     1  UNL1        0.0923
     13 C          14.8748   87.0879   20.7926 C.3     1  UNL1        0.2055
     14 O          14.2222   87.0900   19.5214 O.3     1  UNL1       -0.4742
     15 C          14.4996   86.2215   18.4503 C.ar    1  UNL1        0.1515
     16 C          14.8580   84.8762   18.6576 C.ar    1  UNL1        0.0382
     17 C          15.1020   84.0360   17.5746 C.ar    1  UNL1        0.0034
     18 C          15.0135   84.5245   16.2735 C.ar    1  UNL1        0.0079
     19 C          14.6785   85.8672   16.0333 C.ar    1  UNL1        0.0913
     20 C          14.3905   86.7173   17.1327 C.ar    1  UNL1        0.0822
     21 N          13.9352   88.0642   16.9289 N.pl3   1  UNL1       -0.3545
     22 H          13.5130   88.3683   16.0251 H       1  UNL1        0.1424
     23 H          13.8949   88.7467   17.7178 H       1  UNL1        0.1424
     24 C          14.6888   86.3555   14.6354 C.2     1  UNL1        0.3393
     25 O          14.2411   87.5027   14.3645 O.2     1  UNL1       -0.2450
     26 O          15.1365   85.5369   13.6023 O.3     1  UNL1       -0.4771
     27 H          15.1288   85.8596   12.6421 H       1  UNL1        0.2954
     28 C          11.0849   78.7518   26.1622 C.2     1  UNL1        0.2839
     29 O          12.1340   78.3703   25.5781 O.2     1  UNL1       -0.2665
     30 N          10.7248   80.1445   26.1792 N.am    1  UNL1       -0.2766
     31 H           9.8489   80.4311   26.6677 H       1  UNL1        0.1553
     32 C           7.9357   78.2033   25.6448 C.3     1  UNL1        0.0345
     33 C           8.8744   77.4838   26.5652 C.ar    1  UNL1        0.0202
     34 C          10.2317   77.7355   26.8019 C.ar    1  UNL1        0.1946
     35 O          10.6860   76.9193   27.7367 O.2     1  UNL1       -0.4492
     36 C           9.7007   76.1353   28.1006 C.ar    1  UNL1        0.1452
     37 C           9.7334   75.1213   29.0515 C.ar    1  UNL1        0.0375
     38 C           8.5503   74.3986   29.2863 C.ar    1  UNL1        0.0031
     39 C           7.3586   74.6991   28.5721 C.ar    1  UNL1        0.0002
     40 C           7.3687   75.7412   27.6140 C.ar    1  UNL1        0.0028
     41 C           8.5607   76.4352   27.4060 C.ar    1  UNL1        0.0337
     42 C           6.1149   73.9293   28.8284 C.ar    1  UNL1        0.0000
     43 C           5.7601   72.8464   28.0015 C.ar    1  UNL1        0.0000
     44 C           4.5879   72.1239   28.2446 C.ar    1  UNL1        0.0000
     45 C           3.7587   72.4721   29.3130 C.ar    1  UNL1        0.0000
     46 C           4.0996   73.5441   30.1407 C.ar    1  UNL1        0.0000
     47 C           5.2701   74.2707   29.9018 C.ar    1  UNL1        0.0000
@<TRIPOS>BOND
     1    32    33    1
     2    33    34   ar
     3    34    28    1
     4    28    29    2
     5    28    30   am
     6    30     1    1
     7     1     2   ar
     8     2     3   ar
     9     3     4   ar
    10     4     7    1
    11     7     8    1
    12     8     9    1
    13     9    10    1
    14    10    13    1
    15    13    14    1
    16    14    15    1
    17    15    16   ar
    18    16    17   ar
    19    17    18   ar
    20    18    19   ar
    21    19    24    1
    22    24    25    2
    23    24    26    1
    24    19    20   ar
    25    20    21    1
    26    10    11    1
    27    11    12    1
    28     4     5   ar
    29     5     6   ar
    30    34    35   ar
    31    35    36   ar
    32    36    37   ar
    33    37    38   ar
    34    38    39   ar
    35    39    42    1
    36    42    43   ar
    37    43    44   ar
    38    44    45   ar
    39    45    46   ar
    40    46    47   ar
    41    39    40   ar
    42    40    41   ar
    43    41    33   ar
    44     6     1   ar
    45    41    36   ar
    46    12     7    1
    47    47    42   ar
    48    20    15   ar
    49    30    31    1
    50    26    27    1
    51    21    22    1
    52    21    23    1
@<TRIPOS>MOLECULE
*****
 47 52 0 0 0
SMALL
GASTEIGER

@<TRIPOS>ATOM
      1 C          11.6598   80.9958   25.3437 C.ar    1  UNL1        0.0702
      2 C          13.0362   80.7995   25.1534 C.ar    1  UNL1        0.0191
      3 C          13.8431   81.8583   24.7334 C.ar    1  UNL1        0.0356
      4 C          13.2647   83.1118   24.4778 C.ar    1  UNL1        0.1318
      5 N          11.9249   83.2751   24.6619 N.ar    1  UNL1       -0.2279
      6 C          11.1205   82.2587   25.0704 C.ar    1  UNL1        0.1149
      7 N          14.0679   84.2334   24.0645 N.pl3   1  UNL1       -0.2932
      8 C          14.2721   85.3963   24.9396 C.3     1  UNL1        0.0923
      9 C          14.0035   86.7064   24.1795 C.3     1  UNL1        0.0252
     10 C          14.3661   86.6314   22.6717 C.3     1  UNL1        0.0472
     11 C          15.3899   85.5138   22.3910 C.3     1  UNL1        0.0252
     12 C          14.8075   84.1512   22.7962 C.3     1  UNL1        0.0923
     13 C          14.8769   87.9937   22.1639 C.3     1  UNL1        0.2055
     14 O          13.7946   88.8348   21.7601 O.3     1  UNL1       -0.4742
     15 C          13.1018   88.7582   20.5384 C.ar    1  UNL1        0.1515
     16 C          11.7108   88.5493   20.4843 C.ar    1  UNL1        0.0382
     17 C          11.0512   88.5034   19.2591 C.ar    1  UNL1        0.0034
     18 C          11.7654   88.6437   18.0719 C.ar    1  UNL1        0.0079
     19 C          13.1571   88.8326   18.0908 C.ar    1  UNL1        0.0913
     20 C          13.8282   88.9195   19.3384 C.ar    1  UNL1        0.0822
     21 N          15.2302   89.2237   19.4064 N.pl3   1  UNL1       -0.3545
     22 H          15.7298   89.6821   18.6140 H       1  UNL1        0.1424
     23 H          15.7652   89.1126   20.2959 H       1  UNL1        0.1424
     24 C          13.8777   88.8836   16.7982 C.2     1  UNL1        0.3393
     25 O          13.3934   88.3142   15.7829 O.2     1  UNL1       -0.2450
     26 O          15.1185   89.5075   16.7031 O.3     1  UNL1       -0.4771
     27 H          15.6240   89.5296   15.8255 H       1  UNL1        0.2954
     28 C           9.7622   79.3621   24.9158 C.2     1  UNL1        0.2839
     29 O           9.5264   79.8459   23.7767 O.2     1  UNL1       -0.2665
     30 N          10.7895   79.9267   25.7497 N.am    1  UNL1       -0.2766
     31 H          10.9606   79.5076   26.6895 H       1  UNL1        0.1553
     32 C           8.1966   79.0633   27.7346 C.3     1  UNL1        0.0345
     33 C           8.2518   78.1025   26.5858 C.ar    1  UNL1        0.0202
     34 C           8.9457   78.2253   25.3755 C.ar    1  UNL1        0.1946
     35 O           8.7915   77.1294   24.6533 O.2     1  UNL1       -0.4492
     36 C           8.0139   76.3128   25.3215 C.ar    1  UNL1        0.1452
     37 C           7.5820   75.0491   24.9339 C.ar    1  UNL1        0.0375
     38 C           6.7446   74.3397   25.8128 C.ar    1  UNL1        0.0031
     39 C           6.3544   74.9001   27.0595 C.ar    1  UNL1        0.0002
     40 C           6.8187   76.1891   27.4158 C.ar    1  UNL1        0.0028
     41 C           7.6460   76.8642   26.5184 C.ar    1  UNL1        0.0337
     42 C           5.4697   74.1418   27.9800 C.ar    1  UNL1        0.0000
     43 C           4.8276   74.7904   29.0520 C.ar    1  UNL1        0.0000
     44 C           3.9958   74.0735   29.9177 C.ar    1  UNL1        0.0000
     45 C           3.7950   72.7051   29.7240 C.ar    1  UNL1        0.0000
     46 C           4.4260   72.0502   28.6642 C.ar    1  UNL1        0.0000
     47 C           5.2596   72.7617   27.7959 C.ar    1  UNL1        0.0000
@<TRIPOS>BOND
     1    32    33    1
     2    33    34   ar
     3    34    28    1
     4    28    29    2
     5    28    30   am
     6    30     1    1
     7     1     2   ar
     8     2     3   ar
     9     3     4   ar
    10     4     7    1
    11     7     8    1
    12     8     9    1
    13     9    10    1
    14    10    13    1
    15    13    14    1
    16    14    15    1
    17    15    16   ar
    18    16    17   ar
    19    17    18   ar
    20    18    19   ar
    21    19    24    1
    22    24    25    2
    23    24    26    1
    24    19    20   ar
    25    20    21    1
    26    10    11    1
    27    11    12    1
    28     4     5   ar
    29     5     6   ar
    30    34    35   ar
    31    35    36   ar
    32    36    37   ar
    33    37    38   ar
    34    38    39   ar
    35    39    42    1
    36    42    43   ar
    37    43    44   ar
    38    44    45   ar
    39    45    46   ar
    40    46    47   ar
    41    39    40   ar
    42    40    41   ar
    43    41    33   ar
    44     6     1   ar
    45    41    36   ar
    46    12     7    1
    47    47    42   ar
    48    20    15   ar
    49    30    31    1
    50    26    27    1
    51    21    22    1
    52    21    23    1
@<TRIPOS>MOLECULE
*****
 47 52 0 0 0
SMALL
GASTEIGER

@<TRIPOS>ATOM
      1 C           9.9030   79.6936   24.0331 C.ar    1  UNL1        0.0702
      2 C           9.5103   78.8581   25.0900 C.ar    1  UNL1        0.0191
      3 C           8.8105   77.6791   24.8279 C.ar    1  UNL1        0.0356
      4 C           8.4800   77.3488   23.5039 C.ar    1  UNL1        0.1318
      5 N           8.8651   78.1802   22.4960 N.ar    1  UNL1       -0.2279
      6 C           9.5472   79.3326   22.7279 C.ar    1  UNL1        0.1149
      7 N           7.7783   76.1305   23.1923 N.pl3   1  UNL1       -0.2932
      8 C           8.4186   75.0478   22.4322 C.3     1  UNL1        0.0923
      9 C           7.5123   74.5772   21.2819 C.3     1  UNL1        0.0252
     10 C           5.9975   74.6856   21.6048 C.3     1  UNL1        0.0472
     11 C           5.7429   74.7020   23.1249 C.3     1  UNL1        0.0252
     12 C           6.4408   75.9125   23.7635 C.3     1  UNL1        0.0923
     13 C           5.2104   73.5506   20.9215 C.3     1  UNL1        0.2055
     14 O           4.1250   74.0659   20.1480 O.3     1  UNL1       -0.4742
     15 C           3.9073   75.4188   19.8307 C.ar    1  UNL1        0.1515
     16 C           4.4657   76.0125   18.6831 C.ar    1  UNL1        0.0382
     17 C           4.2103   77.3481   18.3843 C.ar    1  UNL1        0.0034
     18 C           3.4149   78.1168   19.2302 C.ar    1  UNL1        0.0079
     19 C           2.8599   77.5600   20.3941 C.ar    1  UNL1        0.0913
     20 C           3.0851   76.1886   20.6822 C.ar    1  UNL1        0.0822
     21 N           2.4458   75.5511   21.7992 N.pl3   1  UNL1       -0.3545
     22 H           1.5898   75.9507   22.2412 H       1  UNL1        0.1424
     23 H           2.7412   74.6036   22.1229 H       1  UNL1        0.1424
     24 C           2.0990   78.4463   21.3043 C.2     1  UNL1        0.3393
     25 O           2.3790   79.6740   21.3694 O.2     1  UNL1       -0.2450
     26 O           1.1106   77.9274   22.1359 O.3     1  UNL1       -0.4771
     27 H           0.5996   78.5262   22.7733 H       1  UNL1        0.2954
     28 C          12.0111   81.0195   24.5338 C.2     1  UNL1        0.2839
     29 O          12.7062   79.9762   24.6586 O.2     1  UNL1       -0.2665
     30 N          10.6016   80.9286   24.2610 N.am    1  UNL1       -0.2766
     31 H          10.0504   81.8091   24.1658 H       1  UNL1        0.1553
     32 C          12.9713   82.4177   27.2922 C.3     1  UNL1        0.0345
     33 C          13.1074   82.9225   25.8877 C.ar    1  UNL1        0.0202
     34 C          12.6738   82.3250   24.6977 C.ar    1  UNL1        0.1946
     35 O          12.9247   83.1226   23.6743 O.2     1  UNL1       -0.4492
     36 C          13.5205   84.1949   24.1359 C.ar    1  UNL1        0.1452
     37 C          13.9700   85.2920   23.4093 C.ar    1  UNL1        0.0375
     38 C          14.5867   86.3416   24.1130 C.ar    1  UNL1        0.0031
     39 C          14.7431   86.2800   25.5244 C.ar    1  UNL1        0.0002
     40 C          14.2690   85.1453   26.2256 C.ar    1  UNL1        0.0028
     41 C          13.6645   84.1226   25.4946 C.ar    1  UNL1        0.0337
     42 C          15.3959   87.3944   26.2572 C.ar    1  UNL1        0.0000
     43 C          16.3644   88.1970   25.6246 C.ar    1  UNL1        0.0000
     44 C          16.9781   89.2451   26.3174 C.ar    1  UNL1        0.0000
     45 C          16.6332   89.5043   27.6457 C.ar    1  UNL1        0.0000
     46 C          15.6739   88.7156   28.2844 C.ar    1  UNL1        0.0000
     47 C          15.0575   87.6656   27.5968 C.ar    1  UNL1        0.0000
@<TRIPOS>BOND
     1    32    33    1
     2    33    34   ar
     3    34    28    1
     4    28    29    2
     5    28    30   am
     6    30     1    1
     7     1     2   ar
     8     2     3   ar
     9     3     4   ar
    10     4     7    1
    11     7     8    1
    12     8     9    1
    13     9    10    1
    14    10    13    1
    15    13    14    1
    16    14    15    1
    17    15    16   ar
    18    16    17   ar
    19    17    18   ar
    20    18    19   ar
    21    19    24    1
    22    24    25    2
    23    24    26    1
    24    19    20   ar
    25    20    21    1
    26    10    11    1
    27    11    12    1
    28     4     5   ar
    29     5     6   ar
    30    34    35   ar
    31    35    36   ar
    32    36    37   ar
    33    37    38   ar
    34    38    39   ar
    35    39    42    1
    36    42    43   ar
    37    43    44   ar
    38    44    45   ar
    39    45    46   ar
    40    46    47   ar
    41    39    40   ar
    42    40    41   ar
    43    41    33   ar
    44     6     1   ar
    45    41    36   ar
    46    12     7    1
    47    47    42   ar
    48    20    15   ar
    49    30    31    1
    50    26    27    1
    51    21    22    1
    52    21    23    1
@<TRIPOS>MOLECULE
*****
 47 52 0 0 0
SMALL
GASTEIGER

@<TRIPOS>ATOM
      1 C          11.5779   80.7744   25.4725 C.ar    1  UNL1        0.0702
      2 C          12.9704   80.6312   25.3754 C.ar    1  UNL1        0.0191
      3 C          13.7596   81.7122   24.9791 C.ar    1  UNL1        0.0356
      4 C          13.1491   82.9339   24.6535 C.ar    1  UNL1        0.1318
      5 N          11.7948   83.0455   24.7476 N.ar    1  UNL1       -0.2279
      6 C          11.0071   82.0066   25.1316 C.ar    1  UNL1        0.1149
      7 N          13.9316   84.0775   24.2619 N.pl3   1  UNL1       -0.2932
      8 C          14.0033   85.2830   25.0996 C.3     1  UNL1        0.0923
      9 C          13.7410   86.5467   24.2629 C.3     1  UNL1        0.0252
     10 C          14.2374   86.4308   22.7964 C.3     1  UNL1        0.0472
     11 C          15.3334   85.3565   22.6533 C.3     1  UNL1        0.0252
     12 C          14.7826   83.9831   23.0663 C.3     1  UNL1        0.0923
     13 C          14.7259   87.7962   22.2751 C.3     1  UNL1        0.2055
     14 O          14.4865   87.9311   20.8729 O.3     1  UNL1       -0.4742
     15 C          14.1181   86.8953   19.9955 C.ar    1  UNL1        0.1515
     16 C          12.7702   86.6060   19.7111 C.ar    1  UNL1        0.0382
     17 C          12.4396   85.5899   18.8185 C.ar    1  UNL1        0.0034
     18 C          13.4406   84.8349   18.2127 C.ar    1  UNL1        0.0079
     19 C          14.7945   85.0845   18.4911 C.ar    1  UNL1        0.0913
     20 C          15.1375   86.1450   19.3700 C.ar    1  UNL1        0.0822
     21 N          16.5091   86.5070   19.5948 N.pl3   1  UNL1       -0.3545
     22 H          17.2626   86.2396   18.9252 H       1  UNL1        0.1424
     23 H          16.7774   87.1564   20.3669 H       1  UNL1        0.1424
     24 C          15.8124   84.1923   17.8906 C.2     1  UNL1        0.3393
     25 O          16.2756   83.2262   18.5553 O.2     1  UNL1       -0.2450
     26 O          16.3091   84.4422   16.6144 O.3     1  UNL1       -0.4771
     27 H          17.0185   83.8455   16.2060 H       1  UNL1        0.2954
     28 C           9.6225   79.2061   25.0605 C.2     1  UNL1        0.2839
     29 O           9.2990   79.7970   23.9958 O.2     1  UNL1       -0.2665
     30 N          10.7267   79.6801   25.8513 N.am    1  UNL1       -0.2766
     31 H          10.9699   79.1729   26.7298 H       1  UNL1        0.1553
     32 C           7.9422   78.8427   27.8046 C.3     1  UNL1        0.0345
     33 C           8.0850   77.8875   26.6587 C.ar    1  UNL1        0.0202
     34 C           8.8284   78.0388   25.4814 C.ar    1  UNL1        0.1946
     35 O           8.7477   76.9398   24.7520 O.2     1  UNL1       -0.4492
     36 C           7.9711   76.0934   25.3833 C.ar    1  UNL1        0.1452
     37 C           7.6042   74.8157   24.9753 C.ar    1  UNL1        0.0375
     38 C           6.7544   74.0738   25.8145 C.ar    1  UNL1        0.0031
     39 C           6.2874   74.6163   27.0426 C.ar    1  UNL1        0.0002
     40 C           6.6872   75.9205   27.4208 C.ar    1  UNL1        0.0028
     41 C           7.5291   76.6279   26.5626 C.ar    1  UNL1        0.0337
     42 C           5.3902   73.8236   27.9211 C.ar    1  UNL1        0.0000
     43 C           4.6888   74.4426   28.9733 C.ar    1  UNL1        0.0000
     44 C           3.8454   73.6934   29.7995 C.ar    1  UNL1        0.0000
     45 C           3.6920   72.3219   29.5857 C.ar    1  UNL1        0.0000
     46 C           4.3820   71.6961   28.5452 C.ar    1  UNL1        0.0000
     47 C           5.2274   72.4401   27.7164 C.ar    1  UNL1        0.0000
@<TRIPOS>BOND
     1    32    33    1
     2    33    34   ar
     3    34    28    1
     4    28    29    2
     5    28    30   am
     6    30     1    1
     7     1     2   ar
     8     2     3   ar
     9     3     4   ar
    10     4     7    1
    11     7     8    1
    12     8     9    1
    13     9    10    1
    14    10    13    1
    15    13    14    1
    16    14    15    1
    17    15    16   ar
    18    16    17   ar
    19    17    18   ar
    20    18    19   ar
    21    19    24    1
    22    24    25    2
    23    24    26    1
    24    19    20   ar
    25    20    21    1
    26    10    11    1
    27    11    12    1
    28     4     5   ar
    29     5     6   ar
    30    34    35   ar
    31    35    36   ar
    32    36    37   ar
    33    37    38   ar
    34    38    39   ar
    35    39    42    1
    36    42    43   ar
    37    43    44   ar
    38    44    45   ar
    39    45    46   ar
    40    46    47   ar
    41    39    40   ar
    42    40    41   ar
    43    41    33   ar
    44     6     1   ar
    45    41    36   ar
    46    12     7    1
    47    47    42   ar
    48    20    15   ar
    49    30    31    1
    50    26    27    1
    51    21    22    1
    52    21    23    1
@<TRIPOS>MOLECULE
*****
 47 52 0 0 0
SMALL
GASTEIGER

@<TRIPOS>ATOM
      1 C          10.0222   79.5178   24.1084 C.ar    1  UNL1        0.0702
      2 C           9.7691   78.6034   25.1423 C.ar    1  UNL1        0.0191
      3 C           9.1015   77.4077   24.8719 C.ar    1  UNL1        0.0356
      4 C           8.6628   77.1386   23.5657 C.ar    1  UNL1        0.1318
      5 N           8.9132   78.0457   22.5808 N.ar    1  UNL1       -0.2279
      6 C           9.5615   79.2158   22.8212 C.ar    1  UNL1        0.1149
      7 N           7.9905   75.9065   23.2438 N.pl3   1  UNL1       -0.2932
      8 C           8.4186   75.0700   22.1137 C.3     1  UNL1        0.0923
      9 C           7.2174   74.6828   21.2343 C.3     1  UNL1        0.0252
     10 C           5.8945   74.5226   22.0310 C.3     1  UNL1        0.0472
     11 C           6.1628   74.2422   23.5227 C.3     1  UNL1        0.0252
     12 C           6.9416   75.4100   24.1471 C.3     1  UNL1        0.0923
     13 C           5.0113   73.4238   21.4088 C.3     1  UNL1        0.2055
     14 O           3.9003   73.9869   20.7085 O.3     1  UNL1       -0.4742
     15 C           3.6533   75.3588   20.5202 C.ar    1  UNL1        0.1515
     16 C           2.9786   76.1318   21.4838 C.ar    1  UNL1        0.0382
     17 C           2.7720   77.4932   21.2778 C.ar    1  UNL1        0.0034
     18 C           3.2138   78.1005   20.1051 C.ar    1  UNL1        0.0079
     19 C           3.8720   77.3528   19.1148 C.ar    1  UNL1        0.0913
     20 C           4.1197   75.9732   19.3376 C.ar    1  UNL1        0.0822
     21 N           4.8868   75.1975   18.4034 N.pl3   1  UNL1       -0.3545
     22 H           5.5313   75.6472   17.7178 H       1  UNL1        0.1424
     23 H           4.9210   74.1559   18.4649 H       1  UNL1        0.1424
     24 C           4.2379   78.0294   17.8495 C.2     1  UNL1        0.3393
     25 O           4.3514   79.2847   17.8151 O.2     1  UNL1       -0.2450
     26 O           4.4034   77.2974   16.6770 O.3     1  UNL1       -0.4771
     27 H           4.6361   77.7573   15.8049 H       1  UNL1        0.2954
     28 C          12.0998   80.9099   24.5537 C.2     1  UNL1        0.2839
     29 O          12.8407   79.8921   24.6036 O.2     1  UNL1       -0.2665
     30 N          10.6827   80.7713   24.3484 N.am    1  UNL1       -0.2766
     31 H          10.0934   81.6314   24.3147 H       1  UNL1        0.1553
     32 C          13.0069   82.3072   27.3306 C.3     1  UNL1        0.0345
     33 C          13.1294   82.8324   25.9324 C.ar    1  UNL1        0.0202
     34 C          12.7184   82.2347   24.7344 C.ar    1  UNL1        0.1946
     35 O          12.9451   83.0520   23.7209 O.2     1  UNL1       -0.4492
     36 C          13.5040   84.1380   24.1964 C.ar    1  UNL1        0.1452
     37 C          13.9185   85.2577   23.4836 C.ar    1  UNL1        0.0375
     38 C          14.4985   86.3189   24.2009 C.ar    1  UNL1        0.0031
     39 C          14.6536   86.2462   25.6120 C.ar    1  UNL1        0.0002
     40 C          14.2159   85.0884   26.2988 C.ar    1  UNL1        0.0028
     41 C          13.6473   84.0547   25.5545 C.ar    1  UNL1        0.0337
     42 C          15.2675   87.3731   26.3593 C.ar    1  UNL1        0.0000
     43 C          16.3280   88.1104   25.7988 C.ar    1  UNL1        0.0000
     44 C          16.9047   89.1704   26.5052 C.ar    1  UNL1        0.0000
     45 C          16.4310   89.5065   27.7752 C.ar    1  UNL1        0.0000
     46 C          15.3795   88.7831   28.3421 C.ar    1  UNL1        0.0000
     47 C          14.7995   87.7216   27.6407 C.ar    1  UNL1        0.0000
@<TRIPOS>BOND
     1    32    33    1
     2    33    34   ar
     3    34    28    1
     4    28    29    2
     5    28    30   am
     6    30     1    1
     7     1     2   ar
     8     2     3   ar
     9     3     4   ar
    10     4     7    1
    11     7     8    1
    12     8     9    1
    13     9    10    1
    14    10    13    1
    15    13    14    1
    16    14    15    1
    17    15    16   ar
    18    16    17   ar
    19    17    18   ar
    20    18    19   ar
    21    19    24    1
    22    24    25    2
    23    24    26    1
    24    19    20   ar
    25    20    21    1
    26    10    11    1
    27    11    12    1
    28     4     5   ar
    29     5     6   ar
    30    34    35   ar
    31    35    36   ar
    32    36    37   ar
    33    37    38   ar
    34    38    39   ar
    35    39    42    1
    36    42    43   ar
    37    43    44   ar
    38    44    45   ar
    39    45    46   ar
    40    46    47   ar
    41    39    40   ar
    42    40    41   ar
    43    41    33   ar
    44     6     1   ar
    45    41    36   ar
    46    12     7    1
    47    47    42   ar
    48    20    15   ar
    49    30    31    1
    50    26    27    1
    51    21    22    1
    52    21    23    1
@<TRIPOS>MOLECULE
*****
 47 52 0 0 0
SMALL
GASTEIGER

@<TRIPOS>ATOM
      1 C          11.5846   81.1994   25.8998 C.ar    1  UNL1        0.0702
      2 C          11.5296   81.5983   24.5555 C.ar    1  UNL1        0.0191
      3 C          12.3266   82.6518   24.1045 C.ar    1  UNL1        0.0356
      4 C          13.1626   83.3253   25.0092 C.ar    1  UNL1        0.1318
      5 N          13.1922   82.9248   26.3108 N.ar    1  UNL1       -0.2279
      6 C          12.4253   81.9018   26.7717 C.ar    1  UNL1        0.1149
      7 N          14.0154   84.4022   24.5767 N.pl3   1  UNL1       -0.2932
      8 C          14.3634   85.5141   25.4726 C.3     1  UNL1        0.0923
      9 C          14.1398   86.8675   24.7765 C.3     1  UNL1        0.0252
     10 C          14.3919   86.8238   23.2452 C.3     1  UNL1        0.0472
     11 C          15.3098   85.6482   22.8563 C.3     1  UNL1        0.0252
     12 C          14.6586   84.3158   23.2571 C.3     1  UNL1        0.0923
     13 C          14.9648   88.1648   22.7471 C.3     1  UNL1        0.2055
     14 O          14.6244   88.3973   21.3789 O.3     1  UNL1       -0.4742
     15 C          13.9164   87.5145   20.5436 C.ar    1  UNL1        0.1515
     16 C          12.5120   87.5417   20.4533 C.ar    1  UNL1        0.0382
     17 C          11.8428   86.6707   19.5977 C.ar    1  UNL1        0.0034
     18 C          12.5564   85.7484   18.8366 C.ar    1  UNL1        0.0079
     19 C          13.9569   85.6816   18.9193 C.ar    1  UNL1        0.0913
     20 C          14.6461   86.5938   19.7603 C.ar    1  UNL1        0.0822
     21 N          16.0815   86.6355   19.7898 N.pl3   1  UNL1       -0.3545
     22 H          16.6564   86.2457   19.0119 H       1  UNL1        0.1424
     23 H          16.5920   87.1691   20.5277 H       1  UNL1        0.1424
     24 C          14.6568   84.6216   18.1581 C.2     1  UNL1        0.3393
     25 O          15.8136   84.2568   18.5024 O.2     1  UNL1       -0.2450
     26 O          14.0733   84.0597   17.0261 O.3     1  UNL1       -0.4771
     27 H          14.5554   83.3471   16.4914 H       1  UNL1        0.2954
     28 C          11.1045   78.7426   26.3314 C.2     1  UNL1        0.2839
     29 O          12.1458   78.3738   25.7256 O.2     1  UNL1       -0.2665
     30 N          10.7621   80.1375   26.4108 N.am    1  UNL1       -0.2766
     31 H           9.8922   80.4134   26.9161 H       1  UNL1        0.1553
     32 C           7.9403   78.2726   25.8285 C.3     1  UNL1        0.0345
     33 C           8.8776   77.4928   26.7000 C.ar    1  UNL1        0.0202
     34 C          10.2417   77.7100   26.9312 C.ar    1  UNL1        0.1946
     35 O          10.6933   76.8410   27.8186 O.2     1  UNL1       -0.4492
     36 C           9.6991   76.0564   28.1561 C.ar    1  UNL1        0.1452
     37 C           9.7259   74.9960   29.0552 C.ar    1  UNL1        0.0375
     38 C           8.5336   74.2823   29.2693 C.ar    1  UNL1        0.0031
     39 C           7.3387   74.6376   28.5864 C.ar    1  UNL1        0.0002
     40 C           7.3550   75.7255   27.6809 C.ar    1  UNL1        0.0028
     41 C           8.5561   76.4092   27.4920 C.ar    1  UNL1        0.0337
     42 C           6.0851   73.8766   28.8204 C.ar    1  UNL1        0.0000
     43 C           5.7578   72.7706   28.0131 C.ar    1  UNL1        0.0000
     44 C           4.5762   72.0566   28.2351 C.ar    1  UNL1        0.0000
     45 C           3.7102   72.4364   29.2628 C.ar    1  UNL1        0.0000
     46 C           4.0236   73.5316   30.0708 C.ar    1  UNL1        0.0000
     47 C           5.2033   74.2498   29.8528 C.ar    1  UNL1        0.0000
@<TRIPOS>BOND
     1    32    33    1
     2    33    34   ar
     3    34    28    1
     4    28    29    2
     5    28    30   am
     6    30     1    1
     7     1     2   ar
     8     2     3   ar
     9     3     4   ar
    10     4     7    1
    11     7     8    1
    12     8     9    1
    13     9    10    1
    14    10    13    1
    15    13    14    1
    16    14    15    1
    17    15    16   ar
    18    16    17   ar
    19    17    18   ar
    20    18    19   ar
    21    19    24    1
    22    24    25    2
    23    24    26    1
    24    19    20   ar
    25    20    21    1
    26    10    11    1
    27    11    12    1
    28     4     5   ar
    29     5     6   ar
    30    34    35   ar
    31    35    36   ar
    32    36    37   ar
    33    37    38   ar
    34    38    39   ar
    35    39    42    1
    36    42    43   ar
    37    43    44   ar
    38    44    45   ar
    39    45    46   ar
    40    46    47   ar
    41    39    40   ar
    42    40    41   ar
    43    41    33   ar
    44     6     1   ar
    45    41    36   ar
    46    12     7    1
    47    47    42   ar
    48    20    15   ar
    49    30    31    1
    50    26    27    1
    51    21    22    1
    52    21    23    1
@<TRIPOS>MOLECULE
*****
 47 52 0 0 0
SMALL
GASTEIGER

@<TRIPOS>ATOM
      1 C          10.8302   81.3302   24.6600 C.ar    1  UNL1        0.0702
      2 C          10.5007   80.9801   25.9783 C.ar    1  UNL1        0.0191
      3 C           9.6913   79.8703   26.2267 C.ar    1  UNL1        0.0356
      4 C           9.1885   79.1238   25.1491 C.ar    1  UNL1        0.1318
      5 N           9.5158   79.4886   23.8782 N.ar    1  UNL1       -0.2279
      6 C          10.3023   80.5649   23.6131 C.ar    1  UNL1        0.1149
      7 N           8.3687   77.9600   25.3664 N.pl3   1  UNL1       -0.2932
      8 C           8.4064   76.8115   24.4501 C.3     1  UNL1        0.0923
      9 C           6.9842   76.3902   24.0426 C.3     1  UNL1        0.0252
     10 C           5.9267   76.6292   25.1540 C.3     1  UNL1        0.0472
     11 C           6.5784   76.7012   26.5489 C.3     1  UNL1        0.0252
     12 C           7.5797   77.8649   26.6038 C.3     1  UNL1        0.0923
     13 C           4.8308   75.5469   25.1075 C.3     1  UNL1        0.2055
     14 O           3.5305   76.1305   25.0047 O.3     1  UNL1       -0.4742
     15 C           3.1202   77.0658   24.0376 C.ar    1  UNL1        0.1515
     16 C           2.6508   78.3446   24.3921 C.ar    1  UNL1        0.0382
     17 C           2.2756   79.2562   23.4089 C.ar    1  UNL1        0.0034
     18 C           2.3420   78.9040   22.0633 C.ar    1  UNL1        0.0079
     19 C           2.7862   77.6287   21.6773 C.ar    1  UNL1        0.0913
     20 C           3.2069   76.7099   22.6740 C.ar    1  UNL1        0.0822
     21 N           3.7729   75.4386   22.3186 N.pl3   1  UNL1       -0.3545
     22 H           4.1745   75.2636   21.3722 H       1  UNL1        0.1424
     23 H           3.9160   74.6915   23.0336 H       1  UNL1        0.1424
     24 C           2.7493   77.2763   20.2395 C.2     1  UNL1        0.3393
     25 O           3.1242   78.1138   19.3748 O.2     1  UNL1       -0.2450
     26 O           2.2493   76.0452   19.8245 O.3     1  UNL1       -0.4771
     27 H           2.2051   75.8062   18.8411 H       1  UNL1        0.2954
     28 C          12.8596   82.8087   25.0451 C.2     1  UNL1        0.2839
     29 O          13.2503   82.1157   26.0220 O.2     1  UNL1       -0.2665
     30 N          11.6386   82.4797   24.3593 N.am    1  UNL1       -0.2766
     31 H          11.3380   83.0731   23.5557 H       1  UNL1        0.1553
     32 C          15.2451   82.8950   22.8569 C.3     1  UNL1        0.0345
     33 C          14.6893   84.0149   23.6834 C.ar    1  UNL1        0.0202
     34 C          13.6706   83.9712   24.6435 C.ar    1  UNL1        0.1946
     35 O          13.5213   85.1615   25.1979 O.2     1  UNL1       -0.4492
     36 C          14.3729   85.9801   24.6300 C.ar    1  UNL1        0.1452
     37 C          14.5546   87.3322   24.8992 C.ar    1  UNL1        0.0375
     38 C          15.5331   88.0254   24.1649 C.ar    1  UNL1        0.0031
     39 C          16.3116   87.3605   23.1789 C.ar    1  UNL1        0.0002
     40 C          16.0955   85.9824   22.9380 C.ar    1  UNL1        0.0028
     41 C          15.1152   85.3277   23.6838 C.ar    1  UNL1        0.0337
     42 C          17.3423   88.1026   22.4094 C.ar    1  UNL1        0.0000
     43 C          17.0859   88.5236   21.0905 C.ar    1  UNL1        0.0000
     44 C          18.0587   89.2214   20.3680 C.ar    1  UNL1        0.0000
     45 C          19.2949   89.5071   20.9516 C.ar    1  UNL1        0.0000
     46 C          19.5614   89.0951   22.2591 C.ar    1  UNL1        0.0000
     47 C          18.5928   88.3962   22.9861 C.ar    1  UNL1        0.0000
@<TRIPOS>BOND
     1    32    33    1
     2    33    34   ar
     3    34    28    1
     4    28    29    2
     5    28    30   am
     6    30     1    1
     7     1     2   ar
     8     2     3   ar
     9     3     4   ar
    10     4     7    1
    11     7     8    1
    12     8     9    1
    13     9    10    1
    14    10    13    1
    15    13    14    1
    16    14    15    1
    17    15    16   ar
    18    16    17   ar
    19    17    18   ar
    20    18    19   ar
    21    19    24    1
    22    24    25    2
    23    24    26    1
    24    19    20   ar
    25    20    21    1
    26    10    11    1
    27    11    12    1
    28     4     5   ar
    29     5     6   ar
    30    34    35   ar
    31    35    36   ar
    32    36    37   ar
    33    37    38   ar
    34    38    39   ar
    35    39    42    1
    36    42    43   ar
    37    43    44   ar
    38    44    45   ar
    39    45    46   ar
    40    46    47   ar
    41    39    40   ar
    42    40    41   ar
    43    41    33   ar
    44     6     1   ar
    45    41    36   ar
    46    12     7    1
    47    47    42   ar
    48    20    15   ar
    49    30    31    1
    50    26    27    1
    51    21    22    1
    52    21    23    1
