@<TRIPOS>MOLECULE
*****
 43 47 0 0 0
SMALL
GASTEIGER

@<TRIPOS>ATOM
      1 C         -21.9429  -13.5497  -15.9384 C.3     1  UNL1        0.0323
      2 C         -21.5580  -13.0014  -14.5912 C.ar    1  UNL1       -0.0083
      3 C         -20.6938  -13.7414  -13.7658 C.ar    1  UNL1       -0.0018
      4 C         -20.3476  -13.2736  -12.4963 C.ar    1  UNL1        0.0144
      5 C         -20.8428  -12.0451  -12.0379 C.ar    1  UNL1        0.0518
      6 C         -21.6397  -11.2697  -12.8873 C.ar    1  UNL1        0.0290
      7 C         -22.0479  -11.7526  -14.1435 C.ar    1  UNL1        0.0477
      8 N         -20.5483  -11.5572  -10.7186 N.am    1  UNL1       -0.2803
      9 C         -19.7751  -10.3651  -10.4804 C.2     1  UNL1        0.2495
     10 O         -19.5455   -9.5648  -11.4280 O.2     1  UNL1       -0.2698
     11 H         -20.6379  -12.2498   -9.9431 H       1  UNL1        0.1552
     12 C         -19.1598  -10.1040   -9.1546 C.ar    1  UNL1        0.0537
     13 C         -18.1407  -10.9502   -8.6808 C.ar    1  UNL1        0.0042
     14 C         -17.6188  -10.7852   -7.3957 C.ar    1  UNL1       -0.0028
     15 C         -18.0949   -9.7612   -6.5651 C.ar    1  UNL1       -0.0061
     16 C         -19.0770   -8.8854   -7.0481 C.ar    1  UNL1       -0.0028
     17 C         -19.5997   -9.0487   -8.3339 C.ar    1  UNL1        0.0042
     18 C         -17.6105   -9.6396   -5.1443 C.3     1  UNL1        0.0992
     19 N         -18.3510   -8.5748   -4.4359 N.3     1  UNL1       -0.2665
     20 C         -18.6776   -8.9862   -3.0538 C.3     1  UNL1        0.0899
     21 C         -19.4514   -7.8739   -2.3406 C.3     1  UNL1        0.0897
     22 N         -18.6542   -6.6340   -2.3257 N.3     1  UNL1       -0.2691
     23 C         -19.3962   -5.5661   -1.6390 C.3     1  UNL1        0.0897
     24 C         -18.3317   -6.2207   -3.7036 C.3     1  UNL1        0.0897
     25 C         -17.5553   -7.3323   -4.4159 C.3     1  UNL1        0.0899
     26 N         -22.9455  -10.9766  -14.9638 N.pl3   1  UNL1       -0.2827
     27 H         -23.9501  -11.2579  -15.0174 H       1  UNL1        0.1551
     28 C         -22.5637   -9.7630  -15.6323 C.ar    1  UNL1        0.2207
     29 N         -21.4434   -9.1001  -15.2427 N.ar    1  UNL1       -0.2120
     30 C         -21.0592   -7.9547  -15.8636 C.ar    1  UNL1        0.1034
     31 C         -21.8205   -7.4360  -16.9123 C.ar    1  UNL1        0.0400
     32 C         -22.9802   -8.1224  -17.3066 C.ar    1  UNL1        0.0872
     33 N         -23.3029   -9.2763  -16.6642 N.ar    1  UNL1       -0.2135
     34 C         -23.8756   -7.6269  -18.3866 C.ar    1  UNL1        0.0372
     35 C         -24.5895   -6.4213  -18.2664 C.ar    1  UNL1        0.1003
     36 N         -25.4345   -6.0226  -19.2528 N.ar    1  UNL1       -0.2421
     37 C         -25.6258   -6.7564  -20.3792 C.ar    1  UNL1        0.1053
     38 C         -24.9485   -7.9709  -20.5547 C.ar    1  UNL1        0.0946
     39 C         -24.0739   -8.4010  -19.5440 C.ar    1  UNL1        0.0111
     40 C         -25.1513   -8.7764  -21.7784 C.2     1  UNL1        0.3396
     41 O         -24.8165   -8.3203  -22.9051 O.2     1  UNL1       -0.2450
     42 O         -25.7186  -10.0453  -21.6976 O.3     1  UNL1       -0.4771
     43 H         -25.8589  -10.6066  -22.5291 H       1  UNL1        0.2954
@<TRIPOS>BOND
     1     1     2    1
     2     2     3   ar
     3     3     4   ar
     4     4     5   ar
     5     5     8    1
     6     8     9   am
     7     9    10    2
     8     9    12    1
     9    12    13   ar
    10    13    14   ar
    11    14    15   ar
    12    15    18    1
    13    18    19    1
    14    19    20    1
    15    20    21    1
    16    21    22    1
    17    22    23    1
    18    22    24    1
    19    24    25    1
    20    15    16   ar
    21    16    17   ar
    22     5     6   ar
    23     6     7   ar
    24     7    26    1
    25    26    28    1
    26    28    29   ar
    27    29    30   ar
    28    30    31   ar
    29    31    32   ar
    30    32    34    1
    31    34    35   ar
    32    35    36   ar
    33    36    37   ar
    34    37    38   ar
    35    38    40    1
    36    40    41    2
    37    40    42    1
    38    38    39   ar
    39    32    33   ar
    40     7     2   ar
    41    33    28   ar
    42    17    12   ar
    43    39    34   ar
    44    25    19    1
    45     8    11    1
    46    26    27    1
    47    42    43    1
@<TRIPOS>MOLECULE
*****
 43 47 0 0 0
SMALL
GASTEIGER

@<TRIPOS>ATOM
      1 C         -32.4056   -1.9884  -16.9887 C.3     1  UNL1        0.0323
      2 C         -31.4905   -2.9967  -16.3487 C.ar    1  UNL1       -0.0083
      3 C         -32.0154   -3.9175  -15.4256 C.ar    1  UNL1       -0.0018
      4 C         -31.1833   -4.8416  -14.7899 C.ar    1  UNL1        0.0144
      5 C         -29.8132   -4.8755  -15.0830 C.ar    1  UNL1        0.0518
      6 C         -29.3014   -4.0130  -16.0586 C.ar    1  UNL1        0.0290
      7 C         -30.1122   -3.0358  -16.6632 C.ar    1  UNL1        0.0477
      8 N         -28.9194   -5.7784  -14.4110 N.am    1  UNL1       -0.2803
      9 C         -27.4939   -5.5755  -14.3623 C.2     1  UNL1        0.2495
     10 O         -27.0062   -4.4593  -14.6904 O.2     1  UNL1       -0.2698
     11 H         -29.2872   -6.7384  -14.2316 H       1  UNL1        0.1552
     12 C         -26.5734   -6.6892  -14.0209 C.ar    1  UNL1        0.0537
     13 C         -25.2065   -6.5848  -14.3362 C.ar    1  UNL1        0.0042
     14 C         -24.3415   -7.6595  -14.1173 C.ar    1  UNL1       -0.0028
     15 C         -24.8235   -8.8541  -13.5644 C.ar    1  UNL1       -0.0061
     16 C         -26.1749   -8.9484  -13.2046 C.ar    1  UNL1       -0.0028
     17 C         -27.0416   -7.8739  -13.4224 C.ar    1  UNL1        0.0042
     18 C         -23.9203  -10.0504  -13.4194 C.3     1  UNL1        0.0992
     19 N         -24.4572  -11.1977  -14.1805 N.3     1  UNL1       -0.2665
     20 C         -23.6778  -11.4250  -15.4162 C.3     1  UNL1        0.0899
     21 C         -24.2548  -12.6111  -16.1939 C.3     1  UNL1        0.0897
     22 N         -24.2376  -13.8221  -15.3535 N.3     1  UNL1       -0.2691
     23 C         -24.7899  -14.9618  -16.1009 C.3     1  UNL1        0.0897
     24 C         -25.0182  -13.5978  -14.1232 C.3     1  UNL1        0.0897
     25 C         -24.4392  -12.4131  -13.3439 C.3     1  UNL1        0.0899
     26 N         -29.5431   -2.0958  -17.5978 N.pl3   1  UNL1       -0.2827
     27 H         -29.7908   -1.0848  -17.5101 H       1  UNL1        0.1551
     28 C         -28.5603   -2.4511  -18.5843 C.ar    1  UNL1        0.2207
     29 N         -28.4840   -1.7502  -19.7459 N.ar    1  UNL1       -0.2120
     30 C         -27.5593   -2.0636  -20.6902 C.ar    1  UNL1        0.1034
     31 C         -26.6746   -3.1229  -20.4814 C.ar    1  UNL1        0.0400
     32 C         -26.7622   -3.8472  -19.2817 C.ar    1  UNL1        0.0872
     33 N         -27.6919   -3.4734  -18.3629 N.ar    1  UNL1       -0.2135
     34 C         -25.8894   -5.0153  -18.9862 C.ar    1  UNL1        0.0372
     35 C         -25.1150   -5.0879  -17.8147 C.ar    1  UNL1        0.1003
     36 N         -24.2932   -6.1483  -17.5996 N.ar    1  UNL1       -0.2421
     37 C         -24.1832   -7.1680  -18.4897 C.ar    1  UNL1        0.1053
     38 C         -24.9238   -7.1500  -19.6795 C.ar    1  UNL1        0.0946
     39 C         -25.7755   -6.0603  -19.9207 C.ar    1  UNL1        0.0111
     40 C         -24.8096   -8.2564  -20.6543 C.2     1  UNL1        0.3396
     41 O         -25.2283   -8.1123  -21.8348 O.2     1  UNL1       -0.2450
     42 O         -24.2422   -9.4702  -20.2755 O.3     1  UNL1       -0.4771
     43 H         -24.1562  -10.2332  -20.9362 H       1  UNL1        0.2954
@<TRIPOS>BOND
     1     1     2    1
     2     2     3   ar
     3     3     4   ar
     4     4     5   ar
     5     5     8    1
     6     8     9   am
     7     9    10    2
     8     9    12    1
     9    12    13   ar
    10    13    14   ar
    11    14    15   ar
    12    15    18    1
    13    18    19    1
    14    19    20    1
    15    20    21    1
    16    21    22    1
    17    22    23    1
    18    22    24    1
    19    24    25    1
    20    15    16   ar
    21    16    17   ar
    22     5     6   ar
    23     6     7   ar
    24     7    26    1
    25    26    28    1
    26    28    29   ar
    27    29    30   ar
    28    30    31   ar
    29    31    32   ar
    30    32    34    1
    31    34    35   ar
    32    35    36   ar
    33    36    37   ar
    34    37    38   ar
    35    38    40    1
    36    40    41    2
    37    40    42    1
    38    38    39   ar
    39    32    33   ar
    40     7     2   ar
    41    33    28   ar
    42    17    12   ar
    43    39    34   ar
    44    25    19    1
    45     8    11    1
    46    26    27    1
    47    42    43    1
@<TRIPOS>MOLECULE
*****
 43 47 0 0 0
SMALL
GASTEIGER

@<TRIPOS>ATOM
      1 C         -32.1555   -2.2714  -16.2823 C.3     1  UNL1        0.0323
      2 C         -31.2072   -3.3547  -15.8456 C.ar    1  UNL1       -0.0083
      3 C         -31.6418   -4.3225  -14.9235 C.ar    1  UNL1       -0.0018
      4 C         -30.7725   -5.3187  -14.4738 C.ar    1  UNL1        0.0144
      5 C         -29.4578   -5.3779  -14.9557 C.ar    1  UNL1        0.0518
      6 C         -29.0459   -4.4639  -15.9319 C.ar    1  UNL1        0.0290
      7 C         -29.8876   -3.4178  -16.3502 C.ar    1  UNL1        0.0477
      8 N         -28.5216   -6.3577  -14.4773 N.am    1  UNL1       -0.2803
      9 C         -27.2918   -6.0059  -13.8145 C.2     1  UNL1        0.2495
     10 O         -27.1150   -4.8270  -13.4018 O.2     1  UNL1       -0.2698
     11 H         -28.6006   -7.3102  -14.8965 H       1  UNL1        0.1552
     12 C         -26.1826   -6.9848  -13.6890 C.ar    1  UNL1        0.0537
     13 C         -24.9701   -6.7541  -14.3641 C.ar    1  UNL1        0.0042
     14 C         -23.9510   -7.7091  -14.3431 C.ar    1  UNL1       -0.0028
     15 C         -24.1184   -8.9066  -13.6338 C.ar    1  UNL1       -0.0061
     16 C         -25.3056   -9.1224  -12.9205 C.ar    1  UNL1       -0.0028
     17 C         -26.3260   -8.1676  -12.9399 C.ar    1  UNL1        0.0042
     18 C         -23.0670   -9.9834  -13.6894 C.3     1  UNL1        0.0992
     19 N         -22.2884  -10.0097  -12.4336 N.3     1  UNL1       -0.2665
     20 C         -21.4796  -11.2437  -12.3376 C.3     1  UNL1        0.0899
     21 C         -20.6880  -11.2556  -11.0268 C.3     1  UNL1        0.0897
     22 N         -19.8151  -10.0701  -10.9535 N.3     1  UNL1       -0.2691
     23 C         -19.0533  -10.0823   -9.6957 C.3     1  UNL1        0.0897
     24 C         -20.6212   -8.8391  -11.0448 C.3     1  UNL1        0.0897
     25 C         -21.4107   -8.8260  -12.3572 C.3     1  UNL1        0.0899
     26 N         -29.4099   -2.4316  -17.2884 N.pl3   1  UNL1       -0.2827
     27 H         -29.6967   -1.4351  -17.1623 H       1  UNL1        0.1551
     28 C         -28.4656   -2.7193  -18.3329 C.ar    1  UNL1        0.2207
     29 N         -28.4374   -1.9471  -19.4506 N.ar    1  UNL1       -0.2120
     30 C         -27.5496   -2.1959  -20.4481 C.ar    1  UNL1        0.1034
     31 C         -26.6539   -3.2610  -20.3404 C.ar    1  UNL1        0.0400
     32 C         -26.6917   -4.0590  -19.1857 C.ar    1  UNL1        0.0872
     33 N         -27.5858   -3.7484  -18.2098 N.ar    1  UNL1       -0.2135
     34 C         -25.8042   -5.2382  -18.9980 C.ar    1  UNL1        0.0372
     35 C         -24.9723   -5.3715  -17.8721 C.ar    1  UNL1        0.1003
     36 N         -24.1398   -6.4389  -17.7561 N.ar    1  UNL1       -0.2421
     37 C         -24.0733   -7.4083  -18.7048 C.ar    1  UNL1        0.1053
     38 C         -24.8722   -7.3285  -19.8536 C.ar    1  UNL1        0.0946
     39 C         -25.7360   -6.2305  -19.9925 C.ar    1  UNL1        0.0111
     40 C         -24.8057   -8.3799  -20.8917 C.2     1  UNL1        0.3396
     41 O         -25.1644   -8.1321  -22.0747 O.2     1  UNL1       -0.2450
     42 O         -24.3500   -9.6558  -20.5705 O.3     1  UNL1       -0.4771
     43 H         -24.2974  -10.3822  -21.2745 H       1  UNL1        0.2954
@<TRIPOS>BOND
     1     1     2    1
     2     2     3   ar
     3     3     4   ar
     4     4     5   ar
     5     5     8    1
     6     8     9   am
     7     9    10    2
     8     9    12    1
     9    12    13   ar
    10    13    14   ar
    11    14    15   ar
    12    15    18    1
    13    18    19    1
    14    19    20    1
    15    20    21    1
    16    21    22    1
    17    22    23    1
    18    22    24    1
    19    24    25    1
    20    15    16   ar
    21    16    17   ar
    22     5     6   ar
    23     6     7   ar
    24     7    26    1
    25    26    28    1
    26    28    29   ar
    27    29    30   ar
    28    30    31   ar
    29    31    32   ar
    30    32    34    1
    31    34    35   ar
    32    35    36   ar
    33    36    37   ar
    34    37    38   ar
    35    38    40    1
    36    40    41    2
    37    40    42    1
    38    38    39   ar
    39    32    33   ar
    40     7     2   ar
    41    33    28   ar
    42    17    12   ar
    43    39    34   ar
    44    25    19    1
    45     8    11    1
    46    26    27    1
    47    42    43    1
@<TRIPOS>MOLECULE
*****
 43 47 0 0 0
SMALL
GASTEIGER

@<TRIPOS>ATOM
      1 C         -22.1185  -13.4191  -16.5050 C.3     1  UNL1        0.0323
      2 C         -21.7362  -12.9145  -15.1402 C.ar    1  UNL1       -0.0083
      3 C         -20.9302  -13.7123  -14.3098 C.ar    1  UNL1       -0.0018
      4 C         -20.5889  -13.2847  -13.0248 C.ar    1  UNL1        0.0144
      5 C         -21.0302  -12.0402  -12.5551 C.ar    1  UNL1        0.0518
      6 C         -21.7668  -11.2100  -13.4073 C.ar    1  UNL1        0.0290
      7 C         -22.1710  -11.6497  -14.6805 C.ar    1  UNL1        0.0477
      8 N         -20.7407  -11.5906  -11.2211 N.am    1  UNL1       -0.2803
      9 C         -20.1970  -10.2872  -10.9360 C.2     1  UNL1        0.2495
     10 O         -20.1956   -9.3973  -11.8300 O.2     1  UNL1       -0.2698
     11 H         -20.6384  -12.3364  -10.4982 H       1  UNL1        0.1552
     12 C         -19.5493   -9.9966   -9.6320 C.ar    1  UNL1        0.0537
     13 C         -18.4389  -10.7561   -9.2211 C.ar    1  UNL1        0.0042
     14 C         -17.8773  -10.5688   -7.9559 C.ar    1  UNL1       -0.0028
     15 C         -18.4055   -9.6074   -7.0830 C.ar    1  UNL1       -0.0061
     16 C         -19.4822   -8.8149   -7.5040 C.ar    1  UNL1       -0.0028
     17 C         -20.0449   -9.0007   -8.7698 C.ar    1  UNL1        0.0042
     18 C         -17.8714   -9.4693   -5.6817 C.3     1  UNL1        0.0992
     19 N         -18.7191   -8.5496   -4.8947 N.3     1  UNL1       -0.2665
     20 C         -19.5064   -9.2885   -3.8846 C.3     1  UNL1        0.0899
     21 C         -20.3836   -8.3197   -3.0866 C.3     1  UNL1        0.0897
     22 N         -19.5432   -7.3022   -2.4296 N.3     1  UNL1       -0.2691
     23 C         -20.3852   -6.3728   -1.6615 C.3     1  UNL1        0.0897
     24 C         -18.7611   -6.5620   -3.4364 C.3     1  UNL1        0.0897
     25 C         -17.8817   -7.5308   -4.2327 C.3     1  UNL1        0.0899
     26 N         -23.0087  -10.8143  -15.5059 N.pl3   1  UNL1       -0.2827
     27 H         -23.9913  -11.1147  -15.6940 H       1  UNL1        0.1551
     28 C         -22.6064   -9.5264  -16.0007 C.ar    1  UNL1        0.2207
     29 N         -21.3305   -9.0983  -15.8132 N.ar    1  UNL1       -0.2120
     30 C         -20.9256   -7.8877  -16.2775 C.ar    1  UNL1        0.1034
     31 C         -21.8240   -7.0584  -16.9509 C.ar    1  UNL1        0.0400
     32 C         -23.1426   -7.5037  -17.1365 C.ar    1  UNL1        0.0872
     33 N         -23.4849   -8.7343  -16.6708 N.ar    1  UNL1       -0.2135
     34 C         -24.1807   -6.6750  -17.8068 C.ar    1  UNL1        0.0372
     35 C         -24.4937   -6.8332  -19.1686 C.ar    1  UNL1        0.1003
     36 N         -25.4141   -6.0272  -19.7596 N.ar    1  UNL1       -0.2421
     37 C         -26.0618   -5.0492  -19.0754 C.ar    1  UNL1        0.1053
     38 C         -25.7882   -4.8372  -17.7173 C.ar    1  UNL1        0.0946
     39 C         -24.8372   -5.6581  -17.0905 C.ar    1  UNL1        0.0111
     40 C         -26.4890   -3.7741  -16.9648 C.2     1  UNL1        0.3396
     41 O         -27.7489   -3.7310  -16.9451 O.2     1  UNL1       -0.2450
     42 O         -25.7629   -2.8073  -16.2744 O.3     1  UNL1       -0.4771
     43 H         -26.2329   -2.0769  -15.7533 H       1  UNL1        0.2954
@<TRIPOS>BOND
     1     1     2    1
     2     2     3   ar
     3     3     4   ar
     4     4     5   ar
     5     5     8    1
     6     8     9   am
     7     9    10    2
     8     9    12    1
     9    12    13   ar
    10    13    14   ar
    11    14    15   ar
    12    15    18    1
    13    18    19    1
    14    19    20    1
    15    20    21    1
    16    21    22    1
    17    22    23    1
    18    22    24    1
    19    24    25    1
    20    15    16   ar
    21    16    17   ar
    22     5     6   ar
    23     6     7   ar
    24     7    26    1
    25    26    28    1
    26    28    29   ar
    27    29    30   ar
    28    30    31   ar
    29    31    32   ar
    30    32    34    1
    31    34    35   ar
    32    35    36   ar
    33    36    37   ar
    34    37    38   ar
    35    38    40    1
    36    40    41    2
    37    40    42    1
    38    38    39   ar
    39    32    33   ar
    40     7     2   ar
    41    33    28   ar
    42    17    12   ar
    43    39    34   ar
    44    25    19    1
    45     8    11    1
    46    26    27    1
    47    42    43    1
@<TRIPOS>MOLECULE
*****
 43 47 0 0 0
SMALL
GASTEIGER

@<TRIPOS>ATOM
      1 C         -21.2868  -13.6018  -14.7538 C.3     1  UNL1        0.0323
      2 C         -21.9707  -12.5093  -15.5299 C.ar    1  UNL1       -0.0083
      3 C         -22.0895  -12.6244  -16.9257 C.ar    1  UNL1       -0.0018
      4 C         -22.6880  -11.6095  -17.6755 C.ar    1  UNL1        0.0144
      5 C         -23.1987  -10.4699  -17.0392 C.ar    1  UNL1        0.0518
      6 C         -23.1523  -10.3880  -15.6432 C.ar    1  UNL1        0.0290
      7 C         -22.4991  -11.3709  -14.8782 C.ar    1  UNL1        0.0477
      8 N         -23.7752   -9.3840  -17.7835 N.am    1  UNL1       -0.2803
      9 C         -23.3293   -8.0206  -17.6494 C.2     1  UNL1        0.2495
     10 O         -22.2420   -7.7698  -17.0612 O.2     1  UNL1       -0.2698
     11 H         -24.7235   -9.5554  -18.1841 H       1  UNL1        0.1552
     12 C         -24.1743   -6.8901  -18.1101 C.ar    1  UNL1        0.0537
     13 C         -24.3910   -5.7906  -17.2598 C.ar    1  UNL1        0.0042
     14 C         -25.2630   -4.7646  -17.6313 C.ar    1  UNL1       -0.0028
     15 C         -25.9232   -4.8103  -18.8671 C.ar    1  UNL1       -0.0061
     16 C         -25.6757   -5.8794  -19.7390 C.ar    1  UNL1       -0.0028
     17 C         -24.8032   -6.9065  -19.3691 C.ar    1  UNL1        0.0042
     18 C         -26.9405   -3.7613  -19.2314 C.3     1  UNL1        0.0992
     19 N         -28.1134   -3.8470  -18.3364 N.3     1  UNL1       -0.2665
     20 C         -27.7139   -3.6822  -16.9224 C.3     1  UNL1        0.0899
     21 C         -28.9408   -3.7828  -16.0119 C.3     1  UNL1        0.0897
     22 N         -29.9302   -2.7548  -16.3825 N.3     1  UNL1       -0.2691
     23 C         -31.1078   -2.8499  -15.5068 C.3     1  UNL1        0.0897
     24 C         -30.3323   -2.9211  -17.7910 C.3     1  UNL1        0.0897
     25 C         -29.1054   -2.8176  -18.7020 C.3     1  UNL1        0.0899
     26 N         -22.3815  -11.2198  -13.4484 N.pl3   1  UNL1       -0.2827
     27 H         -22.7556  -11.9735  -12.8293 H       1  UNL1        0.1551
     28 C         -21.6765  -10.1376  -12.8183 C.ar    1  UNL1        0.2207
     29 N         -21.6810   -8.9044  -13.3889 N.ar    1  UNL1       -0.2120
     30 C         -21.0271   -7.8649  -12.8085 C.ar    1  UNL1        0.1034
     31 C         -20.3302   -8.0536  -11.6139 C.ar    1  UNL1        0.0400
     32 C         -20.3243   -9.3315  -11.0321 C.ar    1  UNL1        0.0872
     33 N         -21.0158  -10.3284  -11.6456 N.ar    1  UNL1       -0.2135
     34 C         -19.5783   -9.6386   -9.7820 C.ar    1  UNL1        0.0372
     35 C         -19.7111   -8.8518   -8.6241 C.ar    1  UNL1        0.1003
     36 N         -18.9788   -9.1336   -7.5149 N.ar    1  UNL1       -0.2421
     37 C         -18.1007  -10.1686   -7.4740 C.ar    1  UNL1        0.1053
     38 C         -17.9182  -10.9851   -8.5984 C.ar    1  UNL1        0.0946
     39 C         -18.6636  -10.7067   -9.7552 C.ar    1  UNL1        0.0111
     40 C         -16.9636  -12.1143   -8.5623 C.2     1  UNL1        0.3396
     41 O         -15.7648  -11.9255   -8.2206 O.2     1  UNL1       -0.2450
     42 O         -17.3796  -13.3967   -8.9100 O.3     1  UNL1       -0.4771
     43 H         -16.7348  -14.1776   -8.8856 H       1  UNL1        0.2954
@<TRIPOS>BOND
     1     1     2    1
     2     2     3   ar
     3     3     4   ar
     4     4     5   ar
     5     5     8    1
     6     8     9   am
     7     9    10    2
     8     9    12    1
     9    12    13   ar
    10    13    14   ar
    11    14    15   ar
    12    15    18    1
    13    18    19    1
    14    19    20    1
    15    20    21    1
    16    21    22    1
    17    22    23    1
    18    22    24    1
    19    24    25    1
    20    15    16   ar
    21    16    17   ar
    22     5     6   ar
    23     6     7   ar
    24     7    26    1
    25    26    28    1
    26    28    29   ar
    27    29    30   ar
    28    30    31   ar
    29    31    32   ar
    30    32    34    1
    31    34    35   ar
    32    35    36   ar
    33    36    37   ar
    34    37    38   ar
    35    38    40    1
    36    40    41    2
    37    40    42    1
    38    38    39   ar
    39    32    33   ar
    40     7     2   ar
    41    33    28   ar
    42    17    12   ar
    43    39    34   ar
    44    25    19    1
    45     8    11    1
    46    26    27    1
    47    42    43    1
@<TRIPOS>MOLECULE
*****
 43 47 0 0 0
SMALL
GASTEIGER

@<TRIPOS>ATOM
      1 C         -23.1256  -15.3082  -14.8299 C.3     1  UNL1        0.0323
      2 C         -23.6145  -13.8863  -14.7767 C.ar    1  UNL1       -0.0083
      3 C         -24.9790  -13.6172  -14.9802 C.ar    1  UNL1       -0.0018
      4 C         -25.4549  -12.3043  -14.9713 C.ar    1  UNL1        0.0144
      5 C         -24.5770  -11.2373  -14.7365 C.ar    1  UNL1        0.0518
      6 C         -23.2330  -11.5071  -14.4561 C.ar    1  UNL1        0.0290
      7 C         -22.7250  -12.8168  -14.5216 C.ar    1  UNL1        0.0477
      8 N         -25.0226   -9.8713  -14.7704 N.am    1  UNL1       -0.2803
      9 C         -25.5123   -9.1795  -13.6055 C.2     1  UNL1        0.2495
     10 O         -25.3265   -9.6704  -12.4584 O.2     1  UNL1       -0.2698
     11 H         -25.2767   -9.4953  -15.7102 H       1  UNL1        0.1552
     12 C         -26.3180   -7.9391  -13.7341 C.ar    1  UNL1        0.0537
     13 C         -27.7180   -8.0258  -13.8421 C.ar    1  UNL1        0.0042
     14 C         -28.4867   -6.8813  -14.0659 C.ar    1  UNL1       -0.0028
     15 C         -27.8721   -5.6257  -14.1706 C.ar    1  UNL1       -0.0061
     16 C         -26.4824   -5.5262  -14.0172 C.ar    1  UNL1       -0.0028
     17 C         -25.7118   -6.6703  -13.7926 C.ar    1  UNL1        0.0042
     18 C         -28.6815   -4.4026  -14.5122 C.3     1  UNL1        0.0992
     19 N         -28.6659   -4.1641  -15.9706 N.3     1  UNL1       -0.2665
     20 C         -29.7355   -3.2225  -16.3648 C.3     1  UNL1        0.0899
     21 C         -29.7078   -2.9958  -17.8790 C.3     1  UNL1        0.0897
     22 N         -28.3927   -2.4690  -18.2865 N.3     1  UNL1       -0.2691
     23 C         -28.3665   -2.2493  -19.7404 C.3     1  UNL1        0.0897
     24 C         -27.3260   -3.4094  -17.8977 C.3     1  UNL1        0.0897
     25 C         -27.3520   -3.6339  -16.3828 C.3     1  UNL1        0.0899
     26 N         -21.3176  -13.0614  -14.3207 N.pl3   1  UNL1       -0.2827
     27 H         -20.7269  -13.3132  -15.1446 H       1  UNL1        0.1551
     28 C         -20.6489  -12.8711  -13.0629 C.ar    1  UNL1        0.2207
     29 N         -19.8236  -13.8379  -12.5827 N.ar    1  UNL1       -0.2120
     30 C         -19.1760  -13.6778  -11.3995 C.ar    1  UNL1        0.1034
     31 C         -19.3579  -12.5129  -10.6523 C.ar    1  UNL1        0.0400
     32 C         -20.2164  -11.5199  -11.1509 C.ar    1  UNL1        0.0872
     33 N         -20.8194  -11.7249  -12.3520 N.ar    1  UNL1       -0.2135
     34 C         -20.5031  -10.2629  -10.4084 C.ar    1  UNL1        0.0372
     35 C         -19.4955   -9.3279  -10.1116 C.ar    1  UNL1        0.1003
     36 N         -19.7842   -8.2129   -9.3909 N.ar    1  UNL1       -0.2421
     37 C         -21.0359   -7.9549   -8.9316 C.ar    1  UNL1        0.1053
     38 C         -22.0815   -8.8521   -9.1885 C.ar    1  UNL1        0.0946
     39 C         -21.8011  -10.0118   -9.9286 C.ar    1  UNL1        0.0111
     40 C         -23.4475   -8.5788   -8.6917 C.2     1  UNL1        0.3396
     41 O         -24.4438   -8.7272   -9.4501 O.2     1  UNL1       -0.2450
     42 O         -23.6456   -8.1502   -7.3819 O.3     1  UNL1       -0.4771
     43 H         -24.5771   -7.9633   -7.0306 H       1  UNL1        0.2954
@<TRIPOS>BOND
     1     1     2    1
     2     2     3   ar
     3     3     4   ar
     4     4     5   ar
     5     5     8    1
     6     8     9   am
     7     9    10    2
     8     9    12    1
     9    12    13   ar
    10    13    14   ar
    11    14    15   ar
    12    15    18    1
    13    18    19    1
    14    19    20    1
    15    20    21    1
    16    21    22    1
    17    22    23    1
    18    22    24    1
    19    24    25    1
    20    15    16   ar
    21    16    17   ar
    22     5     6   ar
    23     6     7   ar
    24     7    26    1
    25    26    28    1
    26    28    29   ar
    27    29    30   ar
    28    30    31   ar
    29    31    32   ar
    30    32    34    1
    31    34    35   ar
    32    35    36   ar
    33    36    37   ar
    34    37    38   ar
    35    38    40    1
    36    40    41    2
    37    40    42    1
    38    38    39   ar
    39    32    33   ar
    40     7     2   ar
    41    33    28   ar
    42    17    12   ar
    43    39    34   ar
    44    25    19    1
    45     8    11    1
    46    26    27    1
    47    42    43    1
@<TRIPOS>MOLECULE
*****
 43 47 0 0 0
SMALL
GASTEIGER

@<TRIPOS>ATOM
      1 C         -23.3935   -8.5807  -17.7626 C.3     1  UNL1        0.0323
      2 C         -22.9784   -8.6134  -16.3169 C.ar    1  UNL1       -0.0083
      3 C         -22.2717   -9.7250  -15.8264 C.ar    1  UNL1       -0.0018
      4 C         -21.9044   -9.7984  -14.4810 C.ar    1  UNL1        0.0144
      5 C         -22.2186   -8.7497  -13.6059 C.ar    1  UNL1        0.0518
      6 C         -22.8526   -7.6076  -14.1074 C.ar    1  UNL1        0.0290
      7 C         -23.2838   -7.5431  -15.4445 C.ar    1  UNL1        0.0477
      8 N         -21.9011   -8.8139  -12.2057 N.am    1  UNL1       -0.2803
      9 C         -20.7477   -8.1662  -11.6350 C.2     1  UNL1        0.2495
     10 O         -20.1148   -7.3048  -12.3048 O.2     1  UNL1       -0.2698
     11 H         -22.3446   -9.5923  -11.6703 H       1  UNL1        0.1552
     12 C         -20.2294   -8.5617  -10.3011 C.ar    1  UNL1        0.0537
     13 C         -20.6648   -7.8752   -9.1530 C.ar    1  UNL1        0.0042
     14 C         -20.1152   -8.1616   -7.9012 C.ar    1  UNL1       -0.0028
     15 C         -19.1307   -9.1510   -7.7707 C.ar    1  UNL1       -0.0061
     16 C         -18.7261   -9.8712   -8.9031 C.ar    1  UNL1       -0.0028
     17 C         -19.2754   -9.5862  -10.1562 C.ar    1  UNL1        0.0042
     18 C         -18.4614   -9.3955   -6.4439 C.3     1  UNL1        0.0992
     19 N         -19.0071   -8.4857   -5.4152 N.3     1  UNL1       -0.2665
     20 C         -19.6787   -9.2452   -4.3389 C.3     1  UNL1        0.0899
     21 C         -20.2442   -8.2849   -3.2887 C.3     1  UNL1        0.0897
     22 N         -19.1615   -7.4577   -2.7261 N.3     1  UNL1       -0.2691
     23 C         -19.7041   -6.5368   -1.7161 C.3     1  UNL1        0.0897
     24 C         -18.4942   -6.6967   -3.7981 C.3     1  UNL1        0.0897
     25 C         -17.9261   -7.6574   -4.8470 C.3     1  UNL1        0.0899
     26 N         -24.0182   -6.3947  -15.9166 N.pl3   1  UNL1       -0.2827
     27 H         -23.6366   -5.8479  -16.7207 H       1  UNL1        0.1551
     28 C         -25.3110   -6.0164  -15.4157 C.ar    1  UNL1        0.2207
     29 N         -25.7400   -6.4974  -14.2195 N.ar    1  UNL1       -0.2120
     30 C         -26.9553   -6.1489  -13.7228 C.ar    1  UNL1        0.1034
     31 C         -27.7885   -5.2923  -14.4443 C.ar    1  UNL1        0.0400
     32 C         -27.3421   -4.8031  -15.6824 C.ar    1  UNL1        0.0872
     33 N         -26.1070   -5.1674  -16.1184 N.ar    1  UNL1       -0.2135
     34 C         -28.1744   -3.9172  -16.5404 C.ar    1  UNL1        0.0372
     35 C         -29.4865   -3.5567  -16.1854 C.ar    1  UNL1        0.1003
     36 N         -30.2345   -2.7840  -17.0156 N.ar    1  UNL1       -0.2421
     37 C         -29.7589   -2.3327  -18.2048 C.ar    1  UNL1        0.1053
     38 C         -28.4612   -2.6638  -18.6180 C.ar    1  UNL1        0.0946
     39 C         -27.6747   -3.4648  -17.7748 C.ar    1  UNL1        0.0111
     40 C         -27.9356   -2.1767  -19.9118 C.2     1  UNL1        0.3396
     41 O         -26.8744   -2.6596  -20.3919 O.2     1  UNL1       -0.2450
     42 O         -28.6062   -1.1760  -20.6101 O.3     1  UNL1       -0.4771
     43 H         -28.2566   -0.8375  -21.4985 H       1  UNL1        0.2954
@<TRIPOS>BOND
     1     1     2    1
     2     2     3   ar
     3     3     4   ar
     4     4     5   ar
     5     5     8    1
     6     8     9   am
     7     9    10    2
     8     9    12    1
     9    12    13   ar
    10    13    14   ar
    11    14    15   ar
    12    15    18    1
    13    18    19    1
    14    19    20    1
    15    20    21    1
    16    21    22    1
    17    22    23    1
    18    22    24    1
    19    24    25    1
    20    15    16   ar
    21    16    17   ar
    22     5     6   ar
    23     6     7   ar
    24     7    26    1
    25    26    28    1
    26    28    29   ar
    27    29    30   ar
    28    30    31   ar
    29    31    32   ar
    30    32    34    1
    31    34    35   ar
    32    35    36   ar
    33    36    37   ar
    34    37    38   ar
    35    38    40    1
    36    40    41    2
    37    40    42    1
    38    38    39   ar
    39    32    33   ar
    40     7     2   ar
    41    33    28   ar
    42    17    12   ar
    43    39    34   ar
    44    25    19    1
    45     8    11    1
    46    26    27    1
    47    42    43    1
@<TRIPOS>MOLECULE
*****
 43 47 0 0 0
SMALL
GASTEIGER

@<TRIPOS>ATOM
      1 C         -22.9025  -14.9206  -14.6338 C.3     1  UNL1        0.0323
      2 C         -23.4890  -13.5351  -14.6292 C.ar    1  UNL1       -0.0083
      3 C         -24.6659  -13.2811  -15.3544 C.ar    1  UNL1       -0.0018
      4 C         -25.2132  -11.9969  -15.3966 C.ar    1  UNL1        0.0144
      5 C         -24.6044  -10.9473  -14.6953 C.ar    1  UNL1        0.0518
      6 C         -23.4777  -11.2133  -13.9095 C.ar    1  UNL1        0.0290
      7 C         -22.8783  -12.4855  -13.9044 C.ar    1  UNL1        0.0477
      8 N         -25.1110   -9.6038  -14.7573 N.am    1  UNL1       -0.2803
      9 C         -25.7061   -8.9396  -13.6258 C.2     1  UNL1        0.2495
     10 O         -25.5708   -9.4249  -12.4693 O.2     1  UNL1       -0.2698
     11 H         -25.3222   -9.2372  -15.7113 H       1  UNL1        0.1552
     12 C         -26.5598   -7.7382  -13.8054 C.ar    1  UNL1        0.0537
     13 C         -27.9479   -7.8891  -13.9765 C.ar    1  UNL1        0.0042
     14 C         -28.7559   -6.7827  -14.2484 C.ar    1  UNL1       -0.0028
     15 C         -28.1939   -5.5017  -14.3389 C.ar    1  UNL1       -0.0061
     16 C         -26.8187   -5.3379  -14.1230 C.ar    1  UNL1       -0.0028
     17 C         -26.0089   -6.4438  -13.8504 C.ar    1  UNL1        0.0042
     18 C         -29.0406   -4.3196  -14.7312 C.3     1  UNL1        0.0992
     19 N         -28.9276   -4.0626  -16.1820 N.3     1  UNL1       -0.2665
     20 C         -29.8924   -3.0287  -16.6136 C.3     1  UNL1        0.0899
     21 C         -29.7653   -2.7836  -18.1197 C.3     1  UNL1        0.0897
     22 N         -28.3911   -2.3636  -18.4487 N.3     1  UNL1       -0.2691
     23 C         -28.2693   -2.1262  -19.8948 C.3     1  UNL1        0.0897
     24 C         -27.4287   -3.3960  -18.0226 C.3     1  UNL1        0.0897
     25 C         -27.5540   -3.6390  -16.5156 C.3     1  UNL1        0.0899
     26 N         -21.6634  -12.7136  -13.1607 N.pl3   1  UNL1       -0.2827
     27 H         -21.1094  -13.5781  -13.3527 H       1  UNL1        0.1551
     28 C         -21.1039  -11.7622  -12.2403 C.ar    1  UNL1        0.2207
     29 N         -20.1367  -12.1522  -11.3692 N.ar    1  UNL1       -0.2120
     30 C         -19.5886  -11.2695  -10.4944 C.ar    1  UNL1        0.1034
     31 C         -20.0211   -9.9425  -10.4734 C.ar    1  UNL1        0.0400
     32 C         -21.0249   -9.5468  -11.3718 C.ar    1  UNL1        0.0872
     33 N         -21.5200  -10.4680  -12.2405 N.ar    1  UNL1       -0.2135
     34 C         -21.5773   -8.1655  -11.3975 C.ar    1  UNL1        0.0372
     35 C         -22.4284   -7.7237  -12.4261 C.ar    1  UNL1        0.1003
     36 N         -22.8767   -6.4412  -12.4428 N.ar    1  UNL1       -0.2421
     37 C         -22.5296   -5.5431  -11.4852 C.ar    1  UNL1        0.1053
     38 C         -21.6784   -5.9208  -10.4378 C.ar    1  UNL1        0.0946
     39 C         -21.2020   -7.2412  -10.4061 C.ar    1  UNL1        0.0111
     40 C         -21.2952   -4.9488   -9.3909 C.2     1  UNL1        0.3396
     41 O         -21.9665   -4.8587   -8.3275 O.2     1  UNL1       -0.2450
     42 O         -20.1910   -4.1204   -9.5724 O.3     1  UNL1       -0.4771
     43 H         -19.9180   -3.4535   -8.8605 H       1  UNL1        0.2954
@<TRIPOS>BOND
     1     1     2    1
     2     2     3   ar
     3     3     4   ar
     4     4     5   ar
     5     5     8    1
     6     8     9   am
     7     9    10    2
     8     9    12    1
     9    12    13   ar
    10    13    14   ar
    11    14    15   ar
    12    15    18    1
    13    18    19    1
    14    19    20    1
    15    20    21    1
    16    21    22    1
    17    22    23    1
    18    22    24    1
    19    24    25    1
    20    15    16   ar
    21    16    17   ar
    22     5     6   ar
    23     6     7   ar
    24     7    26    1
    25    26    28    1
    26    28    29   ar
    27    29    30   ar
    28    30    31   ar
    29    31    32   ar
    30    32    34    1
    31    34    35   ar
    32    35    36   ar
    33    36    37   ar
    34    37    38   ar
    35    38    40    1
    36    40    41    2
    37    40    42    1
    38    38    39   ar
    39    32    33   ar
    40     7     2   ar
    41    33    28   ar
    42    17    12   ar
    43    39    34   ar
    44    25    19    1
    45     8    11    1
    46    26    27    1
    47    42    43    1
@<TRIPOS>MOLECULE
*****
 43 47 0 0 0
SMALL
GASTEIGER

@<TRIPOS>ATOM
      1 C         -20.1450  -12.1213  -11.0019 C.3     1  UNL1        0.0323
      2 C         -21.2202  -11.1131  -11.3038 C.ar    1  UNL1       -0.0083
      3 C         -21.7117  -10.2973  -10.2701 C.ar    1  UNL1       -0.0018
      4 C         -22.7339   -9.3774  -10.5138 C.ar    1  UNL1        0.0144
      5 C         -23.2682   -9.2415  -11.8023 C.ar    1  UNL1        0.0518
      6 C         -22.7276   -9.9961  -12.8494 C.ar    1  UNL1        0.0290
      7 C         -21.7415  -10.9699  -12.6106 C.ar    1  UNL1        0.0477
      8 N         -24.3545   -8.3420  -12.0784 N.am    1  UNL1       -0.2803
      9 C         -25.4506   -8.6835  -12.9487 C.2     1  UNL1        0.2495
     10 O         -25.6258   -9.8829  -13.2980 O.2     1  UNL1       -0.2698
     11 H         -24.1733   -7.3322  -11.8867 H       1  UNL1        0.1552
     12 C         -26.3289   -7.6327  -13.5220 C.ar    1  UNL1        0.0537
     13 C         -25.7847   -6.3828  -13.8689 C.ar    1  UNL1        0.0042
     14 C         -26.6088   -5.3465  -14.3139 C.ar    1  UNL1       -0.0028
     15 C         -27.9912   -5.5448  -14.4355 C.ar    1  UNL1       -0.0061
     16 C         -28.5339   -6.8021  -14.1363 C.ar    1  UNL1       -0.0028
     17 C         -27.7106   -7.8401  -13.6915 C.ar    1  UNL1        0.0042
     18 C         -28.8982   -4.4046  -14.8169 C.3     1  UNL1        0.0992
     19 N         -28.7953   -4.1252  -16.2643 N.3     1  UNL1       -0.2665
     20 C         -29.8051   -3.1305  -16.6849 C.3     1  UNL1        0.0899
     21 C         -29.6877   -2.8617  -18.1878 C.3     1  UNL1        0.0897
     22 N         -28.3333   -2.3768  -18.5096 N.3     1  UNL1       -0.2691
     23 C         -28.2209   -2.1167  -19.9526 C.3     1  UNL1        0.0897
     24 C         -27.3261   -3.3700  -18.0946 C.3     1  UNL1        0.0897
     25 C         -27.4418   -3.6366  -16.5907 C.3     1  UNL1        0.0899
     26 N         -21.2650  -11.8014  -13.6888 N.pl3   1  UNL1       -0.2827
     27 H         -20.6113  -12.5861  -13.4695 H       1  UNL1        0.1551
     28 C         -21.7241  -11.6848  -15.0457 C.ar    1  UNL1        0.2207
     29 N         -21.6903  -12.7672  -15.8664 N.ar    1  UNL1       -0.2120
     30 C         -22.1247  -12.6826  -17.1506 C.ar    1  UNL1        0.1034
     31 C         -22.6071  -11.4716  -17.6497 C.ar    1  UNL1        0.0400
     32 C         -22.6341  -10.3552  -16.7985 C.ar    1  UNL1        0.0872
     33 N         -22.2086  -10.5048  -15.5161 N.ar    1  UNL1       -0.2135
     34 C         -23.0939   -9.0144  -17.2510 C.ar    1  UNL1        0.0372
     35 C         -22.9308   -7.8651  -16.4573 C.ar    1  UNL1        0.1003
     36 N         -23.4049   -6.6647  -16.8819 N.ar    1  UNL1       -0.2421
     37 C         -24.0469   -6.5219  -18.0700 C.ar    1  UNL1        0.1053
     38 C         -24.2469   -7.6314  -18.9027 C.ar    1  UNL1        0.0946
     39 C         -23.7671   -8.8810  -18.4787 C.ar    1  UNL1        0.0111
     40 C         -24.9453   -7.4846  -20.1981 C.2     1  UNL1        0.3396
     41 O         -24.8527   -8.3827  -21.0782 O.2     1  UNL1       -0.2450
     42 O         -25.7086   -6.3499  -20.4595 O.3     1  UNL1       -0.4771
     43 H         -26.1937   -6.2409  -21.3421 H       1  UNL1        0.2954
@<TRIPOS>BOND
     1     1     2    1
     2     2     3   ar
     3     3     4   ar
     4     4     5   ar
     5     5     8    1
     6     8     9   am
     7     9    10    2
     8     9    12    1
     9    12    13   ar
    10    13    14   ar
    11    14    15   ar
    12    15    18    1
    13    18    19    1
    14    19    20    1
    15    20    21    1
    16    21    22    1
    17    22    23    1
    18    22    24    1
    19    24    25    1
    20    15    16   ar
    21    16    17   ar
    22     5     6   ar
    23     6     7   ar
    24     7    26    1
    25    26    28    1
    26    28    29   ar
    27    29    30   ar
    28    30    31   ar
    29    31    32   ar
    30    32    34    1
    31    34    35   ar
    32    35    36   ar
    33    36    37   ar
    34    37    38   ar
    35    38    40    1
    36    40    41    2
    37    40    42    1
    38    38    39   ar
    39    32    33   ar
    40     7     2   ar
    41    33    28   ar
    42    17    12   ar
    43    39    34   ar
    44    25    19    1
    45     8    11    1
    46    26    27    1
    47    42    43    1
