@<TRIPOS>MOLECULE
*****
 46 50 0 0 0
SMALL
GASTEIGER

@<TRIPOS>ATOM
      1 N         -28.0369   51.7525   -4.8583 N.3     1  UNL1       -0.3183
      2 C         -27.3406   50.5635   -5.3712 C.3     1  UNL1        0.1088
      3 C         -27.2420   50.5165   -6.9194 C.3     1  UNL1        0.1703
      4 N         -28.1920   49.4997   -7.3549 N.am    1  UNL1       -0.2532
      5 C         -28.2221   48.9791   -8.6985 C.2     1  UNL1        0.3081
      6 O         -27.2712   49.2406   -9.4835 O.2     1  UNL1       -0.2522
      7 N         -29.3133   48.1430   -9.1280 N.am    1  UNL1       -0.2681
      8 C         -28.8196   48.8038   -6.2403 C.3     1  UNL1        0.1278
      9 C         -28.0860   49.2620   -4.9598 C.3     1  UNL1        0.1421
     10 O         -29.0491   49.5423   -3.9654 O.3     1  UNL1       -0.3795
     11 H         -28.9836   51.8319   -5.2928 H       1  UNL1        0.1189
     12 H         -27.4840   52.6098   -5.0879 H       1  UNL1        0.1189
     13 H         -30.0017   47.8355   -8.4061 H       1  UNL1        0.1564
     14 H         -29.5547   48.7042   -3.7921 H       1  UNL1        0.2108
     15 C         -27.0704   48.2254   -4.4327 C.ar    1  UNL1        0.0323
     16 C         -26.8188   47.0562   -5.1865 C.ar    1  UNL1        0.0026
     17 C         -25.9415   46.0734   -4.7219 C.ar    1  UNL1        0.0295
     18 C         -25.3162   46.2206   -3.4857 C.ar    1  UNL1        0.1424
     19 F         -24.4679   45.2635   -3.0356 F       1  UNL1       -0.2041
     20 C         -25.5786   47.3447   -2.7042 C.ar    1  UNL1        0.0590
     21 C         -26.4559   48.3351   -3.1582 C.ar    1  UNL1        0.1406
     22 F         -26.7012   49.3824   -2.3349 F       1  UNL1       -0.2043
     23 C         -29.5150   47.6475  -10.4660 C.ar    1  UNL1        0.0516
     24 C         -29.0617   46.3571  -10.7864 C.ar    1  UNL1        0.0156
     25 C         -29.3001   45.8115  -12.0506 C.ar    1  UNL1        0.0127
     26 C         -30.0019   46.5465  -13.0094 C.ar    1  UNL1        0.0578
     27 CL        -30.3130   45.8559  -14.5912 Cl      1  UNL1       -0.0822
     28 C         -30.4670   47.8276  -12.7008 C.ar    1  UNL1        0.0127
     29 C         -30.2300   48.3764  -11.4368 C.ar    1  UNL1        0.0156
     30 C         -27.4443   51.8531   -7.6143 C.2     1  UNL1        0.2467
     31 O         -28.2677   52.6671   -7.1171 O.2     1  UNL1       -0.2729
     32 N         -26.8522   52.1629   -8.8851 N.am    1  UNL1       -0.2680
     33 H         -27.3848   52.7979   -9.5207 H       1  UNL1        0.1563
     34 C         -25.4446   52.0882   -9.1051 C.ar    1  UNL1        0.1346
     35 C         -24.6750   51.1232   -8.4487 C.ar    1  UNL1        0.0406
     36 C         -23.2974   51.0805   -8.6702 C.ar    1  UNL1        0.0736
     37 C         -22.6987   51.9853   -9.5613 C.ar    1  UNL1        0.2466
     38 C         -23.5218   52.8955  -10.2431 C.ar    1  UNL1        0.1691
     39 N         -24.8570   52.9329   -9.9938 N.ar    1  UNL1       -0.2228
     40 N         -21.2701   51.9903   -9.7713 N.am    1  UNL1       -0.0841
     41 C         -20.7821   51.6547  -11.0063 C.2     1  UNL1        0.2905
     42 C         -19.4099   51.6753  -11.2616 C.2     1  UNL1        0.0758
     43 C         -18.5302   52.0430  -10.2474 C.2     1  UNL1        0.0161
     44 C         -19.0280   52.3841   -8.9923 C.2     1  UNL1        0.1156
     45 C         -20.4078   52.3554   -8.7644 C.2     1  UNL1        0.4230
     46 O         -20.8436   52.6853   -7.6276 O.2     1  UNL1       -0.2135
@<TRIPOS>BOND
     1     1     2    1
     2     2     3    1
     3     3    30    1
     4    30    31    2
     5    30    32   am
     6    32    34    1
     7    34    35   ar
     8    35    36   ar
     9    36    37   ar
    10    37    40    1
    11    40    41    1
    12    41    42    2
    13    42    43    1
    14    43    44    2
    15    44    45    1
    16    45    46    2
    17    37    38   ar
    18    38    39   ar
    19     3     4    1
    20     4     5   am
    21     5     6    2
    22     5     7   am
    23     7    23    1
    24    23    24   ar
    25    24    25   ar
    26    25    26   ar
    27    26    27    1
    28    26    28   ar
    29    28    29   ar
    30     4     8    1
    31     8     9    1
    32     9    10    1
    33     9    15    1
    34    15    16   ar
    35    16    17   ar
    36    17    18   ar
    37    18    19    1
    38    18    20   ar
    39    20    21   ar
    40    21    22    1
    41     9     2    1
    42    21    15   ar
    43    39    34   ar
    44    29    23   ar
    45    45    40    1
    46     1    11    1
    47     1    12    1
    48    32    33    1
    49     7    13    1
    50    10    14    1
@<TRIPOS>MOLECULE
*****
 46 50 0 0 0
SMALL
GASTEIGER

@<TRIPOS>ATOM
      1 N         -31.0653   47.9554   -5.4596 N.3     1  UNL1       -0.3183
      2 C         -29.6605   48.0879   -5.0468 C.3     1  UNL1        0.1088
      3 C         -28.9823   49.3911   -5.5471 C.3     1  UNL1        0.1703
      4 N         -28.0804   48.9917   -6.6209 N.am    1  UNL1       -0.2532
      5 C         -27.0840   49.8727   -7.1761 C.2     1  UNL1        0.3081
      6 O         -26.8221   50.9568   -6.5889 O.2     1  UNL1       -0.2522
      7 N         -26.3737   49.5015   -8.3728 N.am    1  UNL1       -0.2681
      8 C         -28.0217   47.5473   -6.7965 C.3     1  UNL1        0.1278
      9 C         -28.8014   46.9237   -5.6171 C.3     1  UNL1        0.1421
     10 O         -29.6348   45.9001   -6.1199 O.3     1  UNL1       -0.3795
     11 H         -31.1461   48.0407   -6.4977 H       1  UNL1        0.1189
     12 H         -31.6358   48.7082   -5.0110 H       1  UNL1        0.1189
     13 H         -26.5186   48.5363   -8.7429 H       1  UNL1        0.1564
     14 H         -29.0499   45.2185   -6.5457 H       1  UNL1        0.2108
     15 C         -27.8860   46.3610   -4.5083 C.ar    1  UNL1        0.0323
     16 C         -26.4838   46.4890   -4.6357 C.ar    1  UNL1        0.0026
     17 C         -25.6207   45.9535   -3.6769 C.ar    1  UNL1        0.0295
     18 C         -26.1330   45.2566   -2.5847 C.ar    1  UNL1        0.1424
     19 F         -25.2928   44.7347   -1.6573 F       1  UNL1       -0.2041
     20 C         -27.5099   45.0808   -2.4569 C.ar    1  UNL1        0.0590
     21 C         -28.3843   45.6116   -3.4110 C.ar    1  UNL1        0.1406
     22 F         -29.7080   45.3713   -3.2526 F       1  UNL1       -0.2043
     23 C         -25.4352   50.3322   -9.0837 C.ar    1  UNL1        0.0516
     24 C         -24.3369   50.8632   -8.3871 C.ar    1  UNL1        0.0156
     25 C         -23.3655   51.6145   -9.0541 C.ar    1  UNL1        0.0127
     26 C         -23.4757   51.8387  -10.4286 C.ar    1  UNL1        0.0578
     27 CL        -22.2491   52.7700  -11.2678 Cl      1  UNL1       -0.0822
     28 C         -24.5579   51.3082  -11.1358 C.ar    1  UNL1        0.0127
     29 C         -25.5315   50.5560  -10.4713 C.ar    1  UNL1        0.0156
     30 C         -29.9428   50.4946   -5.9594 C.2     1  UNL1        0.2467
     31 O         -29.8302   51.6222   -5.4085 O.2     1  UNL1       -0.2729
     32 N         -31.0583   50.2640   -6.8335 N.am    1  UNL1       -0.2680
     33 H         -31.9147   50.8424   -6.6816 H       1  UNL1        0.1563
     34 C         -30.8988   49.7060   -8.1367 C.ar    1  UNL1        0.1346
     35 C         -30.1599   50.3827   -9.1116 C.ar    1  UNL1        0.0406
     36 C         -30.0309   49.8221  -10.3836 C.ar    1  UNL1        0.0736
     37 C         -30.6205   48.5803  -10.6693 C.ar    1  UNL1        0.2466
     38 C         -31.3004   47.9106   -9.6398 C.ar    1  UNL1        0.1691
     39 N         -31.4318   48.4869   -8.4162 N.ar    1  UNL1       -0.2228
     40 N         -30.5396   48.0027  -11.9902 N.am    1  UNL1       -0.0841
     41 C         -30.9068   48.7636  -13.0682 C.2     1  UNL1        0.2905
     42 C         -30.8159   48.2553  -14.3652 C.2     1  UNL1        0.0758
     43 C         -30.3449   46.9603  -14.5616 C.2     1  UNL1        0.0161
     44 C         -29.9718   46.1879  -13.4645 C.2     1  UNL1        0.1156
     45 C         -30.0726   46.7228  -12.1759 C.2     1  UNL1        0.4230
     46 O         -29.7128   46.0169  -11.1943 O.2     1  UNL1       -0.2135
@<TRIPOS>BOND
     1     1     2    1
     2     2     3    1
     3     3    30    1
     4    30    31    2
     5    30    32   am
     6    32    34    1
     7    34    35   ar
     8    35    36   ar
     9    36    37   ar
    10    37    40    1
    11    40    41    1
    12    41    42    2
    13    42    43    1
    14    43    44    2
    15    44    45    1
    16    45    46    2
    17    37    38   ar
    18    38    39   ar
    19     3     4    1
    20     4     5   am
    21     5     6    2
    22     5     7   am
    23     7    23    1
    24    23    24   ar
    25    24    25   ar
    26    25    26   ar
    27    26    27    1
    28    26    28   ar
    29    28    29   ar
    30     4     8    1
    31     8     9    1
    32     9    10    1
    33     9    15    1
    34    15    16   ar
    35    16    17   ar
    36    17    18   ar
    37    18    19    1
    38    18    20   ar
    39    20    21   ar
    40    21    22    1
    41     9     2    1
    42    21    15   ar
    43    39    34   ar
    44    29    23   ar
    45    45    40    1
    46     1    11    1
    47     1    12    1
    48    32    33    1
    49     7    13    1
    50    10    14    1
@<TRIPOS>MOLECULE
*****
 46 50 0 0 0
SMALL
GASTEIGER

@<TRIPOS>ATOM
      1 N         -29.8941   50.4859   -9.6943 N.3     1  UNL1       -0.3183
      2 C         -28.5487   49.9089   -9.5573 C.3     1  UNL1        0.1088
      3 C         -28.5291   48.5324   -8.8407 C.3     1  UNL1        0.1703
      4 N         -27.9868   48.7767   -7.5095 N.am    1  UNL1       -0.2532
      5 C         -27.5748   47.7166   -6.6242 C.2     1  UNL1        0.3081
      6 O         -27.4721   46.5429   -7.0721 O.2     1  UNL1       -0.2522
      7 N         -27.2538   48.0032   -5.2497 N.am    1  UNL1       -0.2681
      8 C         -27.5500   50.1535   -7.3253 C.3     1  UNL1        0.1278
      9 C         -27.6304   50.8348   -8.7099 C.3     1  UNL1        0.1421
     10 O         -28.2269   52.1054   -8.5521 O.3     1  UNL1       -0.3795
     11 H         -30.3573   50.5474   -8.7599 H       1  UNL1        0.1189
     12 H         -30.4730   49.8823  -10.3219 H       1  UNL1        0.1189
     13 H         -27.2135   49.0053   -4.9601 H       1  UNL1        0.1564
     14 H         -27.6493   52.6346   -7.9402 H       1  UNL1        0.2108
     15 C         -26.2573   50.9793   -9.4010 C.ar    1  UNL1        0.0323
     16 C         -25.0914   51.0929   -8.6095 C.ar    1  UNL1        0.0026
     17 C         -23.8362   51.2707   -9.1959 C.ar    1  UNL1        0.0295
     18 C         -23.7172   51.3655  -10.5808 C.ar    1  UNL1        0.1424
     19 F         -22.4980   51.5416  -11.1472 F       1  UNL1       -0.2041
     20 C         -24.8560   51.2977  -11.3818 C.ar    1  UNL1        0.0590
     21 C         -26.1186   51.1208  -10.8063 C.ar    1  UNL1        0.1406
     22 F         -27.1900   51.1042  -11.6350 F       1  UNL1       -0.2043
     23 C         -26.9321   47.0255   -4.2413 C.ar    1  UNL1        0.0516
     24 C         -25.6131   46.5501   -4.1545 C.ar    1  UNL1        0.0156
     25 C         -25.2428   45.6557   -3.1467 C.ar    1  UNL1        0.0127
     26 C         -26.1852   45.2302   -2.2073 C.ar    1  UNL1        0.0578
     27 CL        -25.7167   44.1185   -0.9343 Cl      1  UNL1       -0.0822
     28 C         -27.4986   45.7027   -2.2760 C.ar    1  UNL1        0.0127
     29 C         -27.8723   46.5977   -3.2832 C.ar    1  UNL1        0.0156
     30 C         -29.8641   47.8064   -8.8130 C.2     1  UNL1        0.2467
     31 O         -30.6504   48.0367   -7.8555 O.2     1  UNL1       -0.2729
     32 N         -30.2001   46.7667   -9.7445 N.am    1  UNL1       -0.2680
     33 H         -30.8238   46.0010   -9.4047 H       1  UNL1        0.1563
     34 C         -30.1678   46.9725  -11.1558 C.ar    1  UNL1        0.1346
     35 C         -29.7357   45.9543  -12.0106 C.ar    1  UNL1        0.0406
     36 C         -29.6999   46.1860  -13.3868 C.ar    1  UNL1        0.0736
     37 C         -30.1159   47.4231  -13.9040 C.ar    1  UNL1        0.2466
     38 C         -30.5996   48.3922  -13.0110 C.ar    1  UNL1        0.1691
     39 N         -30.6036   48.1517  -11.6737 N.ar    1  UNL1       -0.2228
     40 N         -30.0443   47.7018  -15.3190 N.am    1  UNL1       -0.0841
     41 C         -30.4539   46.7400  -16.2040 C.2     1  UNL1        0.2905
     42 C         -30.4299   46.9783  -17.5793 C.2     1  UNL1        0.0758
     43 C         -29.9853   48.2092  -18.0532 C.2     1  UNL1        0.0161
     44 C         -29.5693   49.1862  -17.1521 C.2     1  UNL1        0.1156
     45 C         -29.6045   48.9206  -15.7792 C.2     1  UNL1        0.4230
     46 O         -29.2421   49.8229  -14.9755 O.2     1  UNL1       -0.2135
@<TRIPOS>BOND
     1     1     2    1
     2     2     3    1
     3     3    30    1
     4    30    31    2
     5    30    32   am
     6    32    34    1
     7    34    35   ar
     8    35    36   ar
     9    36    37   ar
    10    37    40    1
    11    40    41    1
    12    41    42    2
    13    42    43    1
    14    43    44    2
    15    44    45    1
    16    45    46    2
    17    37    38   ar
    18    38    39   ar
    19     3     4    1
    20     4     5   am
    21     5     6    2
    22     5     7   am
    23     7    23    1
    24    23    24   ar
    25    24    25   ar
    26    25    26   ar
    27    26    27    1
    28    26    28   ar
    29    28    29   ar
    30     4     8    1
    31     8     9    1
    32     9    10    1
    33     9    15    1
    34    15    16   ar
    35    16    17   ar
    36    17    18   ar
    37    18    19    1
    38    18    20   ar
    39    20    21   ar
    40    21    22    1
    41     9     2    1
    42    21    15   ar
    43    39    34   ar
    44    29    23   ar
    45    45    40    1
    46     1    11    1
    47     1    12    1
    48    32    33    1
    49     7    13    1
    50    10    14    1
@<TRIPOS>MOLECULE
*****
 46 50 0 0 0
SMALL
GASTEIGER

@<TRIPOS>ATOM
      1 N         -30.0466   51.1634  -11.1602 N.3     1  UNL1       -0.3183
      2 C         -28.8916   50.5521  -10.4865 C.3     1  UNL1        0.1088
      3 C         -29.2785   49.4904   -9.4226 C.3     1  UNL1        0.1703
      4 N         -29.0392   50.1113   -8.1253 N.am    1  UNL1       -0.2532
      5 C         -29.0381   49.3696   -6.8895 C.2     1  UNL1        0.3081
      6 O         -29.0311   48.1097   -6.9255 O.2     1  UNL1       -0.2522
      7 N         -29.0136   50.0632   -5.6275 N.am    1  UNL1       -0.2681
      8 C         -28.4327   51.4304   -8.2376 C.3     1  UNL1        0.1278
      9 C         -28.0609   51.6239   -9.7249 C.3     1  UNL1        0.1421
     10 O         -28.4537   52.9214  -10.1216 O.3     1  UNL1       -0.3795
     11 H         -30.7037   51.5668  -10.4553 H       1  UNL1        0.1189
     12 H         -30.5511   50.4384  -11.7198 H       1  UNL1        0.1189
     13 H         -28.8749   51.0976   -5.6454 H       1  UNL1        0.1564
     14 H         -27.9592   53.5714   -9.5550 H       1  UNL1        0.2108
     15 C         -26.5578   51.4175  -10.0114 C.ar    1  UNL1        0.0323
     16 C         -25.6325   51.4909   -8.9451 C.ar    1  UNL1        0.0026
     17 C         -24.2606   51.3549   -9.1701 C.ar    1  UNL1        0.0295
     18 C         -23.7782   51.1694  -10.4639 C.ar    1  UNL1        0.1424
     19 F         -22.4458   51.0412  -10.6799 F       1  UNL1       -0.2041
     20 C         -24.6662   51.1344  -11.5378 C.ar    1  UNL1        0.0590
     21 C         -26.0420   51.2703  -11.3253 C.ar    1  UNL1        0.1406
     22 F         -26.8489   51.2692  -12.4133 F       1  UNL1       -0.2043
     23 C         -29.1144   49.4469   -4.3289 C.ar    1  UNL1        0.0516
     24 C         -30.3629   49.4224   -3.6854 C.ar    1  UNL1        0.0156
     25 C         -30.5195   48.7727   -2.4581 C.ar    1  UNL1        0.0127
     26 C         -29.4308   48.1321   -1.8612 C.ar    1  UNL1        0.0578
     27 CL        -29.6310   47.3050   -0.3277 Cl      1  UNL1       -0.0822
     28 C         -28.1854   48.1403   -2.4950 C.ar    1  UNL1        0.0127
     29 C         -28.0255   48.7896   -3.7231 C.ar    1  UNL1        0.0156
     30 C         -30.6841   48.9289   -9.5609 C.2     1  UNL1        0.2467
     31 O         -31.5838   49.3746   -8.7994 O.2     1  UNL1       -0.2729
     32 N         -30.9932   47.8155  -10.4131 N.am    1  UNL1       -0.2680
     33 H         -31.7630   47.1781  -10.1099 H       1  UNL1        0.1563
     34 C         -30.6935   47.8211  -11.8079 C.ar    1  UNL1        0.1346
     35 C         -30.1446   46.6900  -12.4192 C.ar    1  UNL1        0.0406
     36 C         -29.8470   46.7261  -13.7827 C.ar    1  UNL1        0.0736
     37 C         -30.1188   47.8814  -14.5328 C.ar    1  UNL1        0.2466
     38 C         -30.7270   48.9696  -13.8873 C.ar    1  UNL1        0.1691
     39 N         -30.9864   48.9190  -12.5544 N.ar    1  UNL1       -0.2228
     40 N         -29.7774   47.9583  -15.9336 N.am    1  UNL1       -0.0841
     41 C         -30.2309   46.9812  -16.7794 C.2     1  UNL1        0.2905
     42 C         -29.9496   47.0324  -18.1458 C.2     1  UNL1        0.0758
     43 C         -29.2005   48.0911  -18.6513 C.2     1  UNL1        0.0161
     44 C         -28.7402   49.0840  -17.7901 C.2     1  UNL1        0.1156
     45 C         -29.0374   49.0078  -16.4253 C.2     1  UNL1        0.4230
     46 O         -28.6291   49.9251  -15.6617 O.2     1  UNL1       -0.2135
@<TRIPOS>BOND
     1     1     2    1
     2     2     3    1
     3     3    30    1
     4    30    31    2
     5    30    32   am
     6    32    34    1
     7    34    35   ar
     8    35    36   ar
     9    36    37   ar
    10    37    40    1
    11    40    41    1
    12    41    42    2
    13    42    43    1
    14    43    44    2
    15    44    45    1
    16    45    46    2
    17    37    38   ar
    18    38    39   ar
    19     3     4    1
    20     4     5   am
    21     5     6    2
    22     5     7   am
    23     7    23    1
    24    23    24   ar
    25    24    25   ar
    26    25    26   ar
    27    26    27    1
    28    26    28   ar
    29    28    29   ar
    30     4     8    1
    31     8     9    1
    32     9    10    1
    33     9    15    1
    34    15    16   ar
    35    16    17   ar
    36    17    18   ar
    37    18    19    1
    38    18    20   ar
    39    20    21   ar
    40    21    22    1
    41     9     2    1
    42    21    15   ar
    43    39    34   ar
    44    29    23   ar
    45    45    40    1
    46     1    11    1
    47     1    12    1
    48    32    33    1
    49     7    13    1
    50    10    14    1
@<TRIPOS>MOLECULE
*****
 46 50 0 0 0
SMALL
GASTEIGER

@<TRIPOS>ATOM
      1 N         -29.9475   50.8968   -7.6763 N.3     1  UNL1       -0.3183
      2 C         -28.8685   49.9601   -8.0225 C.3     1  UNL1        0.1088
      3 C         -27.4521   50.4728   -7.6488 C.3     1  UNL1        0.1703
      4 N         -26.8135   50.8494   -8.9043 N.am    1  UNL1       -0.2532
      5 C         -25.4054   51.1371   -9.0122 C.2     1  UNL1        0.3081
      6 O         -24.6420   50.8557   -8.0495 O.2     1  UNL1       -0.2522
      7 N         -24.8732   51.7116  -10.2209 N.am    1  UNL1       -0.2681
      8 C         -27.6306   50.5316  -10.0671 C.3     1  UNL1        0.1278
      9 C         -28.8284   49.7003   -9.5553 C.3     1  UNL1        0.1421
     10 O         -30.0062   50.1855  -10.1657 O.3     1  UNL1       -0.3795
     11 H         -29.7659   51.8315   -8.1061 H       1  UNL1        0.1189
     12 H         -29.9995   51.0044   -6.6375 H       1  UNL1        0.1189
     13 H         -25.5133   51.7942  -11.0413 H       1  UNL1        0.1564
     14 H         -29.9034   50.0739  -11.1481 H       1  UNL1        0.2108
     15 C         -28.6811   48.1868   -9.8228 C.ar    1  UNL1        0.0323
     16 C         -27.5858   47.4878   -9.2657 C.ar    1  UNL1        0.0026
     17 C         -27.3925   46.1283   -9.5214 C.ar    1  UNL1        0.0295
     18 C         -28.2698   45.4413  -10.3578 C.ar    1  UNL1        0.1424
     19 F         -28.0779   44.1225  -10.6072 F       1  UNL1       -0.2041
     20 C         -29.3344   46.1167  -10.9525 C.ar    1  UNL1        0.0590
     21 C         -29.5378   47.4782  -10.7049 C.ar    1  UNL1        0.1406
     22 F         -30.5651   48.0866  -11.3449 F       1  UNL1       -0.2043
     23 C         -23.5118   52.1408  -10.4177 C.ar    1  UNL1        0.0516
     24 C         -22.5315   51.1760  -10.7037 C.ar    1  UNL1        0.0156
     25 C         -21.2138   51.5566  -10.9714 C.ar    1  UNL1        0.0127
     26 C         -20.8601   52.9081  -10.9640 C.ar    1  UNL1        0.0578
     27 CL        -19.2094   53.3861  -11.3137 Cl      1  UNL1       -0.0822
     28 C         -21.8273   53.8790  -10.6907 C.ar    1  UNL1        0.0127
     29 C         -23.1467   53.5016  -10.4224 C.ar    1  UNL1        0.0156
     30 C         -27.4268   51.5855   -6.6137 C.2     1  UNL1        0.2467
     31 O         -27.6282   52.7675   -7.0013 O.2     1  UNL1       -0.2729
     32 N         -27.0383   51.3654   -5.2491 N.am    1  UNL1       -0.2680
     33 H         -26.5592   52.1504   -4.7539 H       1  UNL1        0.1563
     34 C         -27.6872   50.4018   -4.4211 C.ar    1  UNL1        0.1346
     35 C         -29.0823   50.3159   -4.3936 C.ar    1  UNL1        0.0406
     36 C         -29.6932   49.3739   -3.5639 C.ar    1  UNL1        0.0736
     37 C         -28.9095   48.5088   -2.7837 C.ar    1  UNL1        0.2466
     38 C         -27.5124   48.5921   -2.8920 C.ar    1  UNL1        0.1691
     39 N         -26.9409   49.5323   -3.6894 N.ar    1  UNL1       -0.2228
     40 N         -29.5190   47.5581   -1.8839 N.am    1  UNL1       -0.0841
     41 C         -29.7578   47.9330   -0.5884 C.2     1  UNL1        0.2905
     42 C         -30.3724   47.0559    0.3070 C.2     1  UNL1        0.0758
     43 C         -30.7468   45.7870   -0.1255 C.2     1  UNL1        0.0161
     44 C         -30.5034   45.4073   -1.4431 C.2     1  UNL1        0.1156
     45 C         -29.8865   46.3066   -2.3191 C.2     1  UNL1        0.4230
     46 O         -29.6903   45.9539   -3.5143 O.2     1  UNL1       -0.2135
@<TRIPOS>BOND
     1     1     2    1
     2     2     3    1
     3     3    30    1
     4    30    31    2
     5    30    32   am
     6    32    34    1
     7    34    35   ar
     8    35    36   ar
     9    36    37   ar
    10    37    40    1
    11    40    41    1
    12    41    42    2
    13    42    43    1
    14    43    44    2
    15    44    45    1
    16    45    46    2
    17    37    38   ar
    18    38    39   ar
    19     3     4    1
    20     4     5   am
    21     5     6    2
    22     5     7   am
    23     7    23    1
    24    23    24   ar
    25    24    25   ar
    26    25    26   ar
    27    26    27    1
    28    26    28   ar
    29    28    29   ar
    30     4     8    1
    31     8     9    1
    32     9    10    1
    33     9    15    1
    34    15    16   ar
    35    16    17   ar
    36    17    18   ar
    37    18    19    1
    38    18    20   ar
    39    20    21   ar
    40    21    22    1
    41     9     2    1
    42    21    15   ar
    43    39    34   ar
    44    29    23   ar
    45    45    40    1
    46     1    11    1
    47     1    12    1
    48    32    33    1
    49     7    13    1
    50    10    14    1
@<TRIPOS>MOLECULE
*****
 46 50 0 0 0
SMALL
GASTEIGER

@<TRIPOS>ATOM
      1 N         -29.1541   49.9456  -10.5780 N.3     1  UNL1       -0.3183
      2 C         -27.7928   49.6015  -10.1420 C.3     1  UNL1        0.1088
      3 C         -27.6970   48.2350   -9.4125 C.3     1  UNL1        0.1703
      4 N         -27.5053   48.5426   -8.0002 N.am    1  UNL1       -0.2532
      5 C         -27.1221   47.5511   -7.0270 C.2     1  UNL1        0.3081
      6 O         -26.7283   46.4200   -7.4198 O.2     1  UNL1       -0.2522
      7 N         -27.1597   47.8623   -5.6212 N.am    1  UNL1       -0.2681
      8 C         -27.3574   49.9698   -7.7516 C.3     1  UNL1        0.1278
      9 C         -27.2496   50.6532   -9.1333 C.3     1  UNL1        0.1421
     10 O         -28.0718   51.8018   -9.1324 O.3     1  UNL1       -0.3795
     11 H         -29.8123   49.9108   -9.7676 H       1  UNL1        0.1189
     12 H         -29.4729   49.2648  -11.3048 H       1  UNL1        0.1189
     13 H         -27.3527   48.8512   -5.3485 H       1  UNL1        0.1564
     14 H         -27.7383   52.4095   -8.4199 H       1  UNL1        0.2108
     15 C         -25.8039   51.0402   -9.5131 C.ar    1  UNL1        0.0323
     16 C         -25.4585   51.1765  -10.8772 C.ar    1  UNL1        0.0026
     17 C         -24.1509   51.4807  -11.2630 C.ar    1  UNL1        0.0295
     18 C         -23.1538   51.6299  -10.3016 C.ar    1  UNL1        0.1424
     19 F         -21.8846   51.9216  -10.6791 F       1  UNL1       -0.2041
     20 C         -23.4593   51.4601   -8.9521 C.ar    1  UNL1        0.0590
     21 C         -24.7647   51.1545   -8.5534 C.ar    1  UNL1        0.1406
     22 F         -24.9889   50.9613   -7.2315 F       1  UNL1       -0.2043
     23 C         -26.9039   46.9343   -4.5489 C.ar    1  UNL1        0.0516
     24 C         -25.8120   46.0571   -4.6577 C.ar    1  UNL1        0.0156
     25 C         -25.4866   45.1911   -3.6103 C.ar    1  UNL1        0.0127
     26 C         -26.2445   45.1959   -2.4367 C.ar    1  UNL1        0.0578
     27 CL        -25.8273   44.1187   -1.1171 Cl      1  UNL1       -0.0822
     28 C         -27.3274   46.0703   -2.3112 C.ar    1  UNL1        0.0127
     29 C         -27.6557   46.9380   -3.3574 C.ar    1  UNL1        0.0156
     30 C         -28.8642   47.2938   -9.6611 C.2     1  UNL1        0.2467
     31 O         -28.6967   46.3302  -10.4556 O.2     1  UNL1       -0.2729
     32 N         -30.1822   47.5419   -9.1483 N.am    1  UNL1       -0.2680
     33 H         -30.9903   47.2098   -9.7207 H       1  UNL1        0.1563
     34 C         -30.4322   47.7303   -7.7565 C.ar    1  UNL1        0.1346
     35 C         -30.8182   48.9824   -7.2690 C.ar    1  UNL1        0.0406
     36 C         -31.0428   49.1440   -5.9007 C.ar    1  UNL1        0.0736
     37 C         -30.9028   48.0515   -5.0299 C.ar    1  UNL1        0.2466
     38 C         -30.5735   46.8004   -5.5749 C.ar    1  UNL1        0.1691
     39 N         -30.3377   46.6729   -6.9070 N.ar    1  UNL1       -0.2228
     40 N         -31.0848   48.2051   -3.6058 N.am    1  UNL1       -0.0841
     41 C         -31.3262   47.0913   -2.8461 C.2     1  UNL1        0.2905
     42 C         -31.4785   47.1903   -1.4620 C.2     1  UNL1        0.0758
     43 C         -31.3819   48.4368   -0.8500 C.2     1  UNL1        0.0161
     44 C         -31.1363   49.5683   -1.6238 C.2     1  UNL1        0.1156
     45 C         -30.9873   49.4399   -3.0087 C.2     1  UNL1        0.4230
     46 O         -30.7464   50.4719   -3.6929 O.2     1  UNL1       -0.2135
@<TRIPOS>BOND
     1     1     2    1
     2     2     3    1
     3     3    30    1
     4    30    31    2
     5    30    32   am
     6    32    34    1
     7    34    35   ar
     8    35    36   ar
     9    36    37   ar
    10    37    40    1
    11    40    41    1
    12    41    42    2
    13    42    43    1
    14    43    44    2
    15    44    45    1
    16    45    46    2
    17    37    38   ar
    18    38    39   ar
    19     3     4    1
    20     4     5   am
    21     5     6    2
    22     5     7   am
    23     7    23    1
    24    23    24   ar
    25    24    25   ar
    26    25    26   ar
    27    26    27    1
    28    26    28   ar
    29    28    29   ar
    30     4     8    1
    31     8     9    1
    32     9    10    1
    33     9    15    1
    34    15    16   ar
    35    16    17   ar
    36    17    18   ar
    37    18    19    1
    38    18    20   ar
    39    20    21   ar
    40    21    22    1
    41     9     2    1
    42    21    15   ar
    43    39    34   ar
    44    29    23   ar
    45    45    40    1
    46     1    11    1
    47     1    12    1
    48    32    33    1
    49     7    13    1
    50    10    14    1
@<TRIPOS>MOLECULE
*****
 46 50 0 0 0
SMALL
GASTEIGER

@<TRIPOS>ATOM
      1 N         -27.4964   52.8074   -6.8266 N.3     1  UNL1       -0.3183
      2 C         -27.0772   51.4121   -7.0238 C.3     1  UNL1        0.1088
      3 C         -26.9830   50.9927   -8.5151 C.3     1  UNL1        0.1703
      4 N         -28.1317   50.1307   -8.7666 N.am    1  UNL1       -0.2532
      5 C         -28.2687   49.3358   -9.9611 C.2     1  UNL1        0.3081
      6 O         -27.2792   49.2014  -10.7303 O.2     1  UNL1       -0.2522
      7 N         -29.5153   48.6771  -10.2547 N.am    1  UNL1       -0.2681
      8 C         -28.9038   49.8586   -7.5623 C.3     1  UNL1        0.1278
      9 C         -28.0941   50.4294   -6.3764 C.3     1  UNL1        0.1421
     10 O         -28.9770   51.1288   -5.5240 O.3     1  UNL1       -0.3795
     11 H         -28.3997   52.9862   -7.3200 H       1  UNL1        0.1189
     12 H         -26.7665   53.4510   -7.2093 H       1  UNL1        0.1189
     13 H         -30.2587   48.6972   -9.5222 H       1  UNL1        0.1564
     14 H         -29.6562   50.4805   -5.1978 H       1  UNL1        0.2108
     15 C         -27.3356   49.3480   -5.5769 C.ar    1  UNL1        0.0323
     16 C         -27.1266   49.5298   -4.1905 C.ar    1  UNL1        0.0026
     17 C         -26.4062   48.5967   -3.4413 C.ar    1  UNL1        0.0295
     18 C         -25.8560   47.4762   -4.0601 C.ar    1  UNL1        0.1424
     19 F         -25.1541   46.5739   -3.3312 F       1  UNL1       -0.2041
     20 C         -26.0126   47.2943   -5.4333 C.ar    1  UNL1        0.0590
     21 C         -26.7311   48.2222   -6.1944 C.ar    1  UNL1        0.1406
     22 F         -26.8126   48.0107   -7.5299 F       1  UNL1       -0.2043
     23 C         -29.8141   47.9440  -11.4588 C.ar    1  UNL1        0.0516
     24 C         -30.1568   48.6575  -12.6193 C.ar    1  UNL1        0.0156
     25 C         -30.3844   47.9895  -13.8255 C.ar    1  UNL1        0.0127
     26 C         -30.2649   46.5989  -13.8890 C.ar    1  UNL1        0.0578
     27 CL        -30.5370   45.7622  -15.4061 Cl      1  UNL1       -0.0822
     28 C         -29.9150   45.8775  -12.7444 C.ar    1  UNL1        0.0127
     29 C         -29.6867   46.5430  -11.5360 C.ar    1  UNL1        0.0156
     30 C         -26.8810   52.1466   -9.4990 C.2     1  UNL1        0.2467
     31 O         -27.8352   52.9675   -9.5591 O.2     1  UNL1       -0.2729
     32 N         -25.8192   52.2542  -10.4595 N.am    1  UNL1       -0.2680
     33 H         -26.0434   52.7055  -11.3744 H       1  UNL1        0.1563
     34 C         -24.4454   52.2600  -10.0749 C.ar    1  UNL1        0.1346
     35 C         -23.5272   53.0786  -10.7390 C.ar    1  UNL1        0.0406
     36 C         -22.1858   53.0551  -10.3529 C.ar    1  UNL1        0.0736
     37 C         -21.7722   52.2325   -9.2929 C.ar    1  UNL1        0.2466
     38 C         -22.7418   51.4751   -8.6171 C.ar    1  UNL1        0.1691
     39 N         -24.0375   51.4974   -9.0258 N.ar    1  UNL1       -0.2228
     40 N         -20.3831   52.1569   -8.9061 N.am    1  UNL1       -0.0841
     41 C         -20.0110   52.6392   -7.6794 C.2     1  UNL1        0.2905
     42 C         -18.6842   52.5590   -7.2529 C.2     1  UNL1        0.0758
     43 C         -17.7311   51.9802   -8.0861 C.2     1  UNL1        0.0161
     44 C         -18.1110   51.4900   -9.3331 C.2     1  UNL1        0.1156
     45 C         -19.4477   51.5829   -9.7346 C.2     1  UNL1        0.4230
     46 O         -19.7788   51.1172  -10.8592 O.2     1  UNL1       -0.2135
@<TRIPOS>BOND
     1     1     2    1
     2     2     3    1
     3     3    30    1
     4    30    31    2
     5    30    32   am
     6    32    34    1
     7    34    35   ar
     8    35    36   ar
     9    36    37   ar
    10    37    40    1
    11    40    41    1
    12    41    42    2
    13    42    43    1
    14    43    44    2
    15    44    45    1
    16    45    46    2
    17    37    38   ar
    18    38    39   ar
    19     3     4    1
    20     4     5   am
    21     5     6    2
    22     5     7   am
    23     7    23    1
    24    23    24   ar
    25    24    25   ar
    26    25    26   ar
    27    26    27    1
    28    26    28   ar
    29    28    29   ar
    30     4     8    1
    31     8     9    1
    32     9    10    1
    33     9    15    1
    34    15    16   ar
    35    16    17   ar
    36    17    18   ar
    37    18    19    1
    38    18    20   ar
    39    20    21   ar
    40    21    22    1
    41     9     2    1
    42    21    15   ar
    43    39    34   ar
    44    29    23   ar
    45    45    40    1
    46     1    11    1
    47     1    12    1
    48    32    33    1
    49     7    13    1
    50    10    14    1
@<TRIPOS>MOLECULE
*****
 46 50 0 0 0
SMALL
GASTEIGER

@<TRIPOS>ATOM
      1 N         -28.0050   51.2529  -11.0462 N.3     1  UNL1       -0.3183
      2 C         -26.7582   50.7012  -10.4961 C.3     1  UNL1        0.1088
      3 C         -26.9399   49.3331   -9.7862 C.3     1  UNL1        0.1703
      4 N         -26.8336   49.6012   -8.3570 N.am    1  UNL1       -0.2532
      5 C         -26.6976   48.5581   -7.3718 C.2     1  UNL1        0.3081
      6 O         -26.4472   47.3816   -7.7485 O.2     1  UNL1       -0.2522
      7 N         -26.8158   48.8651   -5.9696 N.am    1  UNL1       -0.2681
      8 C         -26.4925   50.9874   -8.0697 C.3     1  UNL1        0.1278
      9 C         -26.1552   51.6522   -9.4233 C.3     1  UNL1        0.1421
     10 O         -26.7884   52.9137   -9.4751 O.3     1  UNL1       -0.3795
     11 H         -28.7323   51.3164  -10.2990 H       1  UNL1        0.1189
     12 H         -28.3563   50.6326  -11.8111 H       1  UNL1        0.1189
     13 H         -26.8793   49.8708   -5.6971 H       1  UNL1        0.1564
     14 H         -26.4325   53.4595   -8.7244 H       1  UNL1        0.2108
     15 C         -24.6387   51.8133   -9.6644 C.ar    1  UNL1        0.0323
     16 C         -24.1812   52.2654  -10.9234 C.ar    1  UNL1        0.0026
     17 C         -22.8160   52.3809  -11.1956 C.ar    1  UNL1        0.0295
     18 C         -21.8767   52.0243  -10.2303 C.ar    1  UNL1        0.1424
     19 F         -20.5522   52.1341  -10.4985 F       1  UNL1       -0.2041
     20 C         -22.3011   51.5369   -8.9952 C.ar    1  UNL1        0.0590
     21 C         -23.6653   51.4158   -8.7112 C.ar    1  UNL1        0.1406
     22 F         -24.0131   50.8971   -7.5091 F       1  UNL1       -0.2043
     23 C         -26.8044   47.9041   -4.8959 C.ar    1  UNL1        0.0516
     24 C         -26.7276   46.5371   -5.2106 C.ar    1  UNL1        0.0156
     25 C         -26.6424   45.5767   -4.1991 C.ar    1  UNL1        0.0127
     26 C         -26.6254   45.9710   -2.8590 C.ar    1  UNL1        0.0578
     27 CL        -26.5044   44.7661   -1.5902 Cl      1  UNL1       -0.0822
     28 C         -26.6913   47.3280   -2.5319 C.ar    1  UNL1        0.0127
     29 C         -26.7767   48.2915   -3.5416 C.ar    1  UNL1        0.0156
     30 C         -28.2097   48.5841  -10.1561 C.2     1  UNL1        0.2467
     31 O         -28.1221   47.6204  -10.9633 O.2     1  UNL1       -0.2729
     32 N         -29.5142   49.0198   -9.7436 N.am    1  UNL1       -0.2680
     33 H         -30.3119   48.8242  -10.3888 H       1  UNL1        0.1563
     34 C         -29.8491   49.2192   -8.3713 C.ar    1  UNL1        0.1346
     35 C         -29.8185   50.5007   -7.8134 C.ar    1  UNL1        0.0406
     36 C         -30.1366   50.6670   -6.4643 C.ar    1  UNL1        0.0736
     37 C         -30.5047   49.5583   -5.6854 C.ar    1  UNL1        0.2466
     38 C         -30.5804   48.3013   -6.3057 C.ar    1  UNL1        0.1691
     39 N         -30.2442   48.1609   -7.6147 N.ar    1  UNL1       -0.2228
     40 N         -30.7932   49.6990   -4.2776 N.am    1  UNL1       -0.0841
     41 C         -30.4986   48.6600   -3.4352 C.2     1  UNL1        0.2905
     42 C         -30.7332   48.7646   -2.0631 C.2     1  UNL1        0.0758
     43 C         -31.2716   49.9405   -1.5483 C.2     1  UNL1        0.0161
     44 C         -31.5706   50.9960   -2.4061 C.2     1  UNL1        0.1156
     45 C         -31.3246   50.8641   -3.7768 C.2     1  UNL1        0.4230
     46 O         -31.5834   51.8364   -4.5376 O.2     1  UNL1       -0.2135
@<TRIPOS>BOND
     1     1     2    1
     2     2     3    1
     3     3    30    1
     4    30    31    2
     5    30    32   am
     6    32    34    1
     7    34    35   ar
     8    35    36   ar
     9    36    37   ar
    10    37    40    1
    11    40    41    1
    12    41    42    2
    13    42    43    1
    14    43    44    2
    15    44    45    1
    16    45    46    2
    17    37    38   ar
    18    38    39   ar
    19     3     4    1
    20     4     5   am
    21     5     6    2
    22     5     7   am
    23     7    23    1
    24    23    24   ar
    25    24    25   ar
    26    25    26   ar
    27    26    27    1
    28    26    28   ar
    29    28    29   ar
    30     4     8    1
    31     8     9    1
    32     9    10    1
    33     9    15    1
    34    15    16   ar
    35    16    17   ar
    36    17    18   ar
    37    18    19    1
    38    18    20   ar
    39    20    21   ar
    40    21    22    1
    41     9     2    1
    42    21    15   ar
    43    39    34   ar
    44    29    23   ar
    45    45    40    1
    46     1    11    1
    47     1    12    1
    48    32    33    1
    49     7    13    1
    50    10    14    1
