@<TRIPOS>MOLECULE
*****
 41 45 0 0 0
SMALL
GASTEIGER

@<TRIPOS>ATOM
      1 C          -5.4042   -9.5628   28.0286 C.3     1  UNL1        0.0439
      2 C          -5.4097  -10.2791   29.3859 C.3     1  UNL1        0.1375
      3 C          -4.0299  -10.8815   29.6793 C.3     1  UNL1        0.0439
      4 C          -6.5334  -11.3675   29.4469 C.3     1  UNL1        0.0709
      5 C          -7.4162  -10.8472   30.5206 C.ar    1  UNL1        0.0325
      6 C          -6.9191   -9.6761   31.0343 C.ar    1  UNL1        0.1401
      7 C          -7.5776   -8.9678   32.0717 C.ar    1  UNL1        0.0888
      8 C          -8.7699   -9.5260   32.6072 C.ar    1  UNL1        0.0282
      9 C          -9.2447  -10.7266   32.0595 C.ar    1  UNL1        0.0997
     10 N         -10.3471  -11.4138   32.4072 N.ar    1  UNL1       -0.2137
     11 C         -10.3161  -12.4754   31.5543 C.ar    1  UNL1        0.1984
     12 N          -9.2513  -12.4807   30.7146 N.ar    1  UNL1       -0.3255
     13 C          -8.5908  -11.3662   31.0459 C.ar    1  UNL1        0.0755
     14 O          -5.7377   -9.3347   30.4098 O.3     1  UNL1       -0.4824
     15 H          -9.0050  -13.1868   29.9857 H       1  UNL1        0.1686
     16 C          -7.0543   -7.6845   32.5938 C.2     1  UNL1        0.2525
     17 O          -6.2934   -7.6968   33.5983 O.2     1  UNL1       -0.2697
     18 N          -7.3632   -6.4247   31.9749 N.am    1  UNL1       -0.2785
     19 H          -6.6443   -5.6694   32.0436 H       1  UNL1        0.1552
     20 C          -8.6192   -6.1118   31.3438 C.ar    1  UNL1        0.0806
     21 C          -9.7949   -6.8128   31.6704 C.ar    1  UNL1        0.0210
     22 C         -11.0057   -6.5294   31.0161 C.ar    1  UNL1        0.0750
     23 C         -11.0479   -5.4815   30.0816 C.ar    1  UNL1        0.0359
     24 C          -9.8910   -4.7619   29.7744 C.ar    1  UNL1        0.1686
     25 F          -9.9433   -3.7600   28.8619 F       1  UNL1       -0.2018
     26 C          -8.6810   -5.0745   30.3997 C.ar    1  UNL1        0.1807
     27 F          -7.5626   -4.3791   30.0726 F       1  UNL1       -0.2005
     28 C         -12.2591   -7.2833   31.3830 C.3     1  UNL1        0.4187
     29 F         -11.9409   -8.4639   32.0321 F       1  UNL1       -0.1659
     30 F         -12.9945   -7.5967   30.2529 F       1  UNL1       -0.1659
     31 F         -13.0319   -6.5016   32.2210 F       1  UNL1       -0.1659
     32 N         -11.2924  -13.5243   31.5673 N.pl3   1  UNL1       -0.2816
     33 H         -11.5580  -13.9570   30.6543 H       1  UNL1        0.1551
     34 C         -11.8064  -14.0964   32.7801 C.ar    1  UNL1        0.0889
     35 C         -11.2391  -13.7643   34.0261 C.ar    1  UNL1        0.1543
     36 F         -10.2149  -12.8780   34.1063 F       1  UNL1       -0.2028
     37 C         -11.7567  -14.3128   35.2034 C.ar    1  UNL1        0.0310
     38 C         -12.8463  -15.1840   35.1521 C.ar    1  UNL1        0.0033
     39 C         -13.4279  -15.5044   33.9238 C.ar    1  UNL1        0.0128
     40 C         -12.9187  -14.9604   32.7386 C.ar    1  UNL1        0.0733
     41 CL        -13.6687  -15.4063   31.2115 Cl      1  UNL1       -0.0809
@<TRIPOS>BOND
     1     1     2    1
     2     2     3    1
     3     2     4    1
     4     4     5    1
     5     5     6   ar
     6     6     7   ar
     7     7    16    1
     8    16    17    2
     9    16    18   am
    10    18    20    1
    11    20    21   ar
    12    21    22   ar
    13    22    28    1
    14    28    29    1
    15    28    30    1
    16    28    31    1
    17    22    23   ar
    18    23    24   ar
    19    24    25    1
    20    24    26   ar
    21    26    27    1
    22     7     8   ar
    23     8     9   ar
    24     9    10   ar
    25    10    11   ar
    26    11    32    1
    27    32    34    1
    28    34    35   ar
    29    35    36    1
    30    35    37   ar
    31    37    38   ar
    32    38    39   ar
    33    39    40   ar
    34    40    41    1
    35    11    12   ar
    36    12    13   ar
    37     6    14    1
    38    14     2    1
    39    13     5   ar
    40    26    20   ar
    41    13     9   ar
    42    40    34   ar
    43    18    19    1
    44    32    33    1
    45    12    15    1
@<TRIPOS>MOLECULE
*****
 41 45 0 0 0
SMALL
GASTEIGER

@<TRIPOS>ATOM
      1 C          -6.2499   -8.4899   30.0004 C.3     1  UNL1        0.0439
      2 C          -6.5317   -9.7949   30.7572 C.3     1  UNL1        0.1375
      3 C          -5.7815   -9.8111   32.0949 C.3     1  UNL1        0.0439
      4 C          -6.1721  -11.0442   29.8848 C.3     1  UNL1        0.0709
      5 C          -7.4942  -11.6953   29.7092 C.ar    1  UNL1        0.0325
      6 C          -8.4734  -10.9928   30.3650 C.ar    1  UNL1        0.1401
      7 C          -9.8319  -11.4002   30.3513 C.ar    1  UNL1        0.0888
      8 C         -10.1616  -12.5979   29.6608 C.ar    1  UNL1        0.0282
      9 C          -9.1330  -13.2911   29.0062 C.ar    1  UNL1        0.0997
     10 N          -9.2265  -14.4277   28.2936 N.ar    1  UNL1       -0.2137
     11 C          -7.9410  -14.6331   27.8930 C.ar    1  UNL1        0.1984
     12 N          -7.0672  -13.6931   28.3308 N.ar    1  UNL1       -0.3255
     13 C          -7.8402  -12.8526   29.0265 C.ar    1  UNL1        0.0755
     14 O          -7.9375   -9.8952   31.0054 O.3     1  UNL1       -0.4824
     15 H          -6.0374  -13.6395   28.1659 H       1  UNL1        0.1686
     16 C         -10.8884  -10.6150   31.0298 C.2     1  UNL1        0.2525
     17 O         -10.8772   -9.3589   30.9299 O.2     1  UNL1       -0.2697
     18 N         -11.9449  -11.2405   31.7770 N.am    1  UNL1       -0.2785
     19 H         -12.8654  -10.7469   31.8081 H       1  UNL1        0.1552
     20 C         -11.7958  -12.4493   32.5454 C.ar    1  UNL1        0.0806
     21 C         -12.5056  -13.6180   32.2128 C.ar    1  UNL1        0.0210
     22 C         -12.3866  -14.7785   32.9960 C.ar    1  UNL1        0.0750
     23 C         -11.4886  -14.7841   34.0762 C.ar    1  UNL1        0.0359
     24 C         -10.7586  -13.6366   34.3940 C.ar    1  UNL1        0.1686
     25 F          -9.9035  -13.6522   35.4465 F       1  UNL1       -0.2018
     26 C         -10.9108  -12.4731   33.6350 C.ar    1  UNL1        0.1807
     27 F         -10.2097  -11.3611   33.9719 F       1  UNL1       -0.2005
     28 C         -13.1471  -16.0257   32.6220 C.3     1  UNL1        0.4187
     29 F         -13.6719  -15.9079   31.3464 F       1  UNL1       -0.1659
     30 F         -14.1936  -16.2472   33.5006 F       1  UNL1       -0.1659
     31 F         -12.2904  -17.1099   32.6593 F       1  UNL1       -0.1659
     32 N          -7.5299  -15.7655   27.1169 N.pl3   1  UNL1       -0.2816
     33 H          -7.6524  -16.7154   27.5343 H       1  UNL1        0.1551
     34 C          -7.0975  -15.6599   25.7515 C.ar    1  UNL1        0.0889
     35 C          -5.8069  -15.1869   25.4429 C.ar    1  UNL1        0.1543
     36 F          -4.9394  -14.8480   26.4296 F       1  UNL1       -0.2028
     37 C          -5.3879  -15.1033   24.1116 C.ar    1  UNL1        0.0310
     38 C          -6.2422  -15.4989   23.0808 C.ar    1  UNL1        0.0033
     39 C          -7.5163  -15.9872   23.3773 C.ar    1  UNL1        0.0128
     40 C          -7.9461  -16.0763   24.7066 C.ar    1  UNL1        0.0733
     41 CL         -9.5659  -16.6781   25.0343 Cl      1  UNL1       -0.0809
@<TRIPOS>BOND
     1     1     2    1
     2     2     3    1
     3     2     4    1
     4     4     5    1
     5     5     6   ar
     6     6     7   ar
     7     7    16    1
     8    16    17    2
     9    16    18   am
    10    18    20    1
    11    20    21   ar
    12    21    22   ar
    13    22    28    1
    14    28    29    1
    15    28    30    1
    16    28    31    1
    17    22    23   ar
    18    23    24   ar
    19    24    25    1
    20    24    26   ar
    21    26    27    1
    22     7     8   ar
    23     8     9   ar
    24     9    10   ar
    25    10    11   ar
    26    11    32    1
    27    32    34    1
    28    34    35   ar
    29    35    36    1
    30    35    37   ar
    31    37    38   ar
    32    38    39   ar
    33    39    40   ar
    34    40    41    1
    35    11    12   ar
    36    12    13   ar
    37     6    14    1
    38    14     2    1
    39    13     5   ar
    40    26    20   ar
    41    13     9   ar
    42    40    34   ar
    43    18    19    1
    44    32    33    1
    45    12    15    1
@<TRIPOS>MOLECULE
*****
 41 45 0 0 0
SMALL
GASTEIGER

@<TRIPOS>ATOM
      1 C          -5.6395  -10.2981   28.3303 C.3     1  UNL1        0.0439
      2 C          -5.2448  -10.5510   29.7916 C.3     1  UNL1        0.1375
      3 C          -3.8073  -11.0797   29.8744 C.3     1  UNL1        0.0439
      4 C          -6.2530  -11.5241   30.4899 C.3     1  UNL1        0.0709
      5 C          -6.8427  -10.6616   31.5439 C.ar    1  UNL1        0.0325
      6 C          -6.2881   -9.4070   31.5126 C.ar    1  UNL1        0.1401
      7 C          -6.6815   -8.3854   32.4144 C.ar    1  UNL1        0.0888
      8 C          -7.6566   -8.7040   33.3981 C.ar    1  UNL1        0.0282
      9 C          -8.1973   -9.9980   33.4017 C.ar    1  UNL1        0.0997
     10 N          -9.1292  -10.5013   34.2303 N.ar    1  UNL1       -0.2137
     11 C          -9.2720  -11.7774   33.7760 C.ar    1  UNL1        0.1984
     12 N          -8.4715  -12.0845   32.7254 N.ar    1  UNL1       -0.3255
     13 C          -7.8056  -10.9467   32.5013 C.ar    1  UNL1        0.0755
     14 O          -5.3360   -9.3217   30.5183 O.3     1  UNL1       -0.4824
     15 H          -8.3924  -12.9921   32.2151 H       1  UNL1        0.1686
     16 C          -6.1053   -7.0227   32.3486 C.2     1  UNL1        0.2525
     17 O          -5.2873   -6.6603   33.2359 O.2     1  UNL1       -0.2697
     18 N          -6.4271   -6.1073   31.2883 N.am    1  UNL1       -0.2785
     19 H          -5.6919   -5.4178   31.0126 H       1  UNL1        0.1552
     20 C          -7.7121   -6.0247   30.6434 C.ar    1  UNL1        0.0806
     21 C          -8.4901   -7.1751   30.4162 C.ar    1  UNL1        0.0210
     22 C          -9.7221   -7.0885   29.7461 C.ar    1  UNL1        0.0750
     23 C         -10.2079   -5.8250   29.3706 C.ar    1  UNL1        0.0359
     24 C          -9.4543   -4.6758   29.6198 C.ar    1  UNL1        0.1686
     25 F          -9.9299   -3.4634   29.2417 F       1  UNL1       -0.2018
     26 C          -8.2114   -4.7725   30.2514 C.ar    1  UNL1        0.1807
     27 F          -7.4834   -3.6476   30.4655 F       1  UNL1       -0.2005
     28 C         -10.5486   -8.3289   29.5175 C.3     1  UNL1        0.4187
     29 F         -10.0078   -9.4034   30.2028 F       1  UNL1       -0.1659
     30 F         -10.5910   -8.6521   28.1722 F       1  UNL1       -0.1659
     31 F         -11.8363   -8.1078   29.9686 F       1  UNL1       -0.1659
     32 N         -10.1533  -12.7334   34.3785 N.pl3   1  UNL1       -0.2816
     33 H          -9.9973  -12.9783   35.3821 H       1  UNL1        0.1551
     34 C         -11.3144  -13.2526   33.7117 C.ar    1  UNL1        0.0889
     35 C         -11.7412  -14.5754   33.9411 C.ar    1  UNL1        0.1543
     36 F         -11.0798  -15.3745   34.8157 F       1  UNL1       -0.2028
     37 C         -12.8825  -15.0675   33.3007 C.ar    1  UNL1        0.0310
     38 C         -13.6125  -14.2470   32.4389 C.ar    1  UNL1        0.0033
     39 C         -13.2088  -12.9283   32.2199 C.ar    1  UNL1        0.0128
     40 C         -12.0682  -12.4247   32.8564 C.ar    1  UNL1        0.0733
     41 CL        -11.5837  -10.7644   32.5366 Cl      1  UNL1       -0.0809
@<TRIPOS>BOND
     1     1     2    1
     2     2     3    1
     3     2     4    1
     4     4     5    1
     5     5     6   ar
     6     6     7   ar
     7     7    16    1
     8    16    17    2
     9    16    18   am
    10    18    20    1
    11    20    21   ar
    12    21    22   ar
    13    22    28    1
    14    28    29    1
    15    28    30    1
    16    28    31    1
    17    22    23   ar
    18    23    24   ar
    19    24    25    1
    20    24    26   ar
    21    26    27    1
    22     7     8   ar
    23     8     9   ar
    24     9    10   ar
    25    10    11   ar
    26    11    32    1
    27    32    34    1
    28    34    35   ar
    29    35    36    1
    30    35    37   ar
    31    37    38   ar
    32    38    39   ar
    33    39    40   ar
    34    40    41    1
    35    11    12   ar
    36    12    13   ar
    37     6    14    1
    38    14     2    1
    39    13     5   ar
    40    26    20   ar
    41    13     9   ar
    42    40    34   ar
    43    18    19    1
    44    32    33    1
    45    12    15    1
@<TRIPOS>MOLECULE
*****
 41 45 0 0 0
SMALL
GASTEIGER

@<TRIPOS>ATOM
      1 C          -6.7081   -8.1901   30.0468 C.3     1  UNL1        0.0439
      2 C          -6.9105   -9.4881   30.8402 C.3     1  UNL1        0.1375
      3 C          -6.2083   -9.3992   32.2010 C.3     1  UNL1        0.0439
      4 C          -6.4219  -10.7320   30.0248 C.3     1  UNL1        0.0709
      5 C          -7.6806  -11.4939   29.8303 C.ar    1  UNL1        0.0325
      6 C          -8.7352  -10.8522   30.4290 C.ar    1  UNL1        0.1401
      7 C         -10.0554  -11.3689   30.3865 C.ar    1  UNL1        0.0888
      8 C         -10.2638  -12.6115   29.7288 C.ar    1  UNL1        0.0282
      9 C          -9.1609  -13.2399   29.1325 C.ar    1  UNL1        0.0997
     10 N          -9.1382  -14.4032   28.4583 N.ar    1  UNL1       -0.2137
     11 C          -7.8271  -14.5165   28.1065 C.ar    1  UNL1        0.1984
     12 N          -7.0472  -13.4947   28.5382 N.ar    1  UNL1       -0.3255
     13 C          -7.9088  -12.6974   29.1786 C.ar    1  UNL1        0.0755
     14 O          -8.3115   -9.6941   31.0468 O.3     1  UNL1       -0.4824
     15 H          -6.0199  -13.3630   28.4046 H       1  UNL1        0.1686
     16 C         -11.1943  -10.6502   31.0024 C.2     1  UNL1        0.2525
     17 O         -11.4007   -9.4472   30.6892 O.2     1  UNL1       -0.2697
     18 N         -12.0912  -11.2886   31.9263 N.am    1  UNL1       -0.2785
     19 H         -13.0793  -10.9488   31.9455 H       1  UNL1        0.1552
     20 C         -11.7018  -12.2993   32.8754 C.ar    1  UNL1        0.0806
     21 C         -10.6008  -12.1114   33.7314 C.ar    1  UNL1        0.0210
     22 C         -10.2026  -13.1223   34.6224 C.ar    1  UNL1        0.0750
     23 C         -10.9649  -14.2993   34.7045 C.ar    1  UNL1        0.0359
     24 C         -12.0767  -14.4800   33.8788 C.ar    1  UNL1        0.1686
     25 F         -12.7972  -15.6260   33.9603 F       1  UNL1       -0.2018
     26 C         -12.4445  -13.4872   32.9666 C.ar    1  UNL1        0.1807
     27 F         -13.5146  -13.6894   32.1570 F       1  UNL1       -0.2005
     28 C          -9.0258  -12.9030   35.5395 C.3     1  UNL1        0.4187
     29 F          -9.4588  -12.5476   36.8054 F       1  UNL1       -0.1659
     30 F          -8.2107  -11.8910   35.0622 F       1  UNL1       -0.1659
     31 F          -8.2911  -14.0708   35.6250 F       1  UNL1       -0.1659
     32 N          -7.2999  -15.6366   27.3848 N.pl3   1  UNL1       -0.2816
     33 H          -7.1187  -16.5187   27.9145 H       1  UNL1        0.1551
     34 C          -7.1488  -15.6433   25.9566 C.ar    1  UNL1        0.0889
     35 C          -6.0389  -15.0227   25.3503 C.ar    1  UNL1        0.1543
     36 F          -5.0789  -14.4309   26.1047 F       1  UNL1       -0.2028
     37 C          -5.8908  -15.0485   23.9603 C.ar    1  UNL1        0.0310
     38 C          -6.8362  -15.6995   23.1657 C.ar    1  UNL1        0.0033
     39 C          -7.9296  -16.3342   23.7584 C.ar    1  UNL1        0.0128
     40 C          -8.0876  -16.3156   25.1492 C.ar    1  UNL1        0.0733
     41 CL         -9.4901  -17.1103   25.8528 Cl      1  UNL1       -0.0809
@<TRIPOS>BOND
     1     1     2    1
     2     2     3    1
     3     2     4    1
     4     4     5    1
     5     5     6   ar
     6     6     7   ar
     7     7    16    1
     8    16    17    2
     9    16    18   am
    10    18    20    1
    11    20    21   ar
    12    21    22   ar
    13    22    28    1
    14    28    29    1
    15    28    30    1
    16    28    31    1
    17    22    23   ar
    18    23    24   ar
    19    24    25    1
    20    24    26   ar
    21    26    27    1
    22     7     8   ar
    23     8     9   ar
    24     9    10   ar
    25    10    11   ar
    26    11    32    1
    27    32    34    1
    28    34    35   ar
    29    35    36    1
    30    35    37   ar
    31    37    38   ar
    32    38    39   ar
    33    39    40   ar
    34    40    41    1
    35    11    12   ar
    36    12    13   ar
    37     6    14    1
    38    14     2    1
    39    13     5   ar
    40    26    20   ar
    41    13     9   ar
    42    40    34   ar
    43    18    19    1
    44    32    33    1
    45    12    15    1
