@<TRIPOS>MOLECULE
*****
 46 52 0 0 0
SMALL
GASTEIGER

@<TRIPOS>ATOM
      1 C         -27.0644   51.2406   -9.8512 C.3     1  UNL1        0.1158
      2 N         -27.8926   50.9411  -10.8801 N.3     1  UNL1       -0.2851
      3 C         -28.8440   50.1856  -10.3082 C.3     1  UNL1        0.0907
      4 C         -29.9626   49.6302  -10.9292 C.3     1  UNL1        0.0937
      5 C         -30.8339   48.8848  -10.1089 C.3     1  UNL1        0.3133
      6 N         -30.5728   48.6917   -8.7703 N.am    1  UNL1       -0.1293
      7 C         -29.4746   49.2801   -8.1776 C.2     1  UNL1        0.4047
      8 O         -29.2737   49.1543   -6.9422 O.2     1  UNL1       -0.2174
      9 C         -28.5943   50.0278   -8.9764 C.3     1  UNL1        0.2038
     10 N         -27.4501   50.6899   -8.6628 N.3     1  UNL1       -0.2473
     11 H         -27.3996   50.4195  -11.6048 H       1  UNL1        0.1244
     12 C         -26.7536   50.8407   -7.3674 C.3     1  UNL1        0.0817
     13 C         -27.4785   51.8063   -6.4054 C.3     1  UNL1        0.0252
     14 C         -27.4756   51.1306   -5.0194 C.3     1  UNL1        0.0278
     15 C         -27.0256   49.7434   -5.2967 C.ar    1  UNL1       -0.0248
     16 C         -26.9779   48.6850   -4.3885 C.ar    1  UNL1       -0.0045
     17 C         -26.5472   47.4194   -4.8364 C.ar    1  UNL1       -0.0002
     18 C         -26.1337   47.2601   -6.1780 C.ar    1  UNL1       -0.0003
     19 C         -26.1853   48.3408   -7.0702 C.ar    1  UNL1       -0.0033
     20 C         -26.6552   49.5711   -6.6072 C.ar    1  UNL1       -0.0117
     21 C         -26.4939   46.2736   -3.8995 C.ar    1  UNL1        0.0030
     22 C         -25.5978   45.2272   -4.1810 C.ar    1  UNL1        0.0001
     23 C         -25.4511   44.1585   -3.2966 C.ar    1  UNL1        0.0000
     24 C         -26.1958   44.1190   -2.1199 C.ar    1  UNL1        0.0001
     25 C         -27.1000   45.1414   -1.8280 C.ar    1  UNL1        0.0031
     26 C         -27.2724   46.2238   -2.7107 C.ar    1  UNL1        0.0371
     27 C         -28.3027   47.2435   -2.3926 C.ar    1  UNL1        0.1806
     28 N         -29.4851   47.3687   -3.0255 N.ar    1  UNL1       -0.1084
     29 N         -30.1024   48.3677   -2.4112 N.ar    1  UNL1       -0.0229
     30 N         -29.3397   48.8385   -1.4365 N.ar    1  UNL1       -0.0464
     31 N         -28.2138   48.1492   -1.4034 N.ar    1  UNL1       -0.2388
     32 H         -27.4267   48.3143   -0.7381 H       1  UNL1        0.1923
     33 C         -30.2310   49.8214  -12.4106 C.3     1  UNL1        0.0081
     34 C         -31.0304   51.1048  -12.6632 C.3     1  UNL1        0.0003
     35 C         -30.9461   48.6005  -13.0013 C.3     1  UNL1        0.0003
     36 C         -24.7349   51.2429  -10.7415 C.3     1  UNL1        0.0029
     37 C         -25.8256   52.0654  -10.0629 C.3     1  UNL1        0.0326
     38 C         -31.5287   47.8938   -7.9758 C.3     1  UNL1        0.3404
     39 C         -30.8920   46.6228   -7.4488 C.ar    1  UNL1        0.0640
     40 C         -30.4389   46.5832   -6.1176 C.ar    1  UNL1        0.0031
     41 C         -29.8541   45.4252   -5.6001 C.ar    1  UNL1       -0.0001
     42 C         -29.7137   44.2930   -6.4029 C.ar    1  UNL1        0.0007
     43 C         -30.1590   44.3141   -7.7260 C.ar    1  UNL1        0.0102
     44 C         -30.7483   45.4700   -8.2572 C.ar    1  UNL1        0.0710
     45 C         -31.2082   45.4417   -9.6239 C.1     1  UNL1        0.1003
     46 N         -31.5840   45.4170  -10.7177 N.1     1  UNL1       -0.1908
@<TRIPOS>BOND
     1    36    37    1
     2    37     1    1
     3     1     2    1
     4     2     3    1
     5     3     4    1
     6     4    33    1
     7    33    34    1
     8    33    35    1
     9     4     5    1
    10     5     6    1
    11     6    38    1
    12    38    39    1
    13    39    40   ar
    14    40    41   ar
    15    41    42   ar
    16    42    43   ar
    17    43    44   ar
    18    44    45    1
    19    45    46    3
    20     6     7    1
    21     7     8    2
    22     7     9    1
    23     9    10    1
    24    10    12    1
    25    12    13    1
    26    13    14    1
    27    14    15    1
    28    15    16   ar
    29    16    17   ar
    30    17    21    1
    31    21    22   ar
    32    22    23   ar
    33    23    24   ar
    34    24    25   ar
    35    25    26   ar
    36    26    27    1
    37    27    28   ar
    38    28    29   ar
    39    29    30   ar
    40    30    31   ar
    41    17    18   ar
    42    18    19   ar
    43    19    20   ar
    44    10     1    1
    45    20    12    1
    46     9     3    1
    47    20    15   ar
    48    44    39   ar
    49    26    21   ar
    50    31    27   ar
    51    31    32    1
    52     2    11    1
@<TRIPOS>MOLECULE
*****
 46 52 0 0 0
SMALL
GASTEIGER

@<TRIPOS>ATOM
      1 C         -25.8082   51.5040   -9.5778 C.3     1  UNL1        0.1158
      2 N         -26.4221   51.5817  -10.7825 N.3     1  UNL1       -0.2851
      3 C         -27.6805   51.1938  -10.5196 C.3     1  UNL1        0.0907
      4 C         -28.7421   51.1170  -11.4212 C.3     1  UNL1        0.0937
      5 C         -29.9825   50.6961  -10.8999 C.3     1  UNL1        0.3133
      6 N         -30.1258   50.3496   -9.5744 N.am    1  UNL1       -0.1293
      7 C         -29.0649   50.4661   -8.7001 C.2     1  UNL1        0.4047
      8 O         -29.2157   50.2097   -7.4779 O.2     1  UNL1       -0.2174
      9 C         -27.8205   50.8847   -9.1984 C.3     1  UNL1        0.2038
     10 N         -26.6269   51.0680   -8.5757 N.3     1  UNL1       -0.2473
     11 H         -25.9814   50.9564  -11.4571 H       1  UNL1        0.1244
     12 C         -26.2463   50.8856   -7.1588 C.3     1  UNL1        0.0817
     13 C         -26.8051   51.9933   -6.2402 C.3     1  UNL1        0.0252
     14 C         -27.3581   51.2872   -4.9860 C.3     1  UNL1        0.0278
     15 C         -27.3540   49.8486   -5.3523 C.ar    1  UNL1       -0.0248
     16 C         -27.8837   48.7963   -4.6044 C.ar    1  UNL1       -0.0045
     17 C         -27.8157   47.4872   -5.1236 C.ar    1  UNL1       -0.0002
     18 C         -27.1775   47.2633   -6.3642 C.ar    1  UNL1       -0.0003
     19 C         -26.6475   48.3369   -7.0942 C.ar    1  UNL1       -0.0033
     20 C         -26.7667   49.6264   -6.5730 C.ar    1  UNL1       -0.0117
     21 C         -28.3767   46.3499   -4.3586 C.ar    1  UNL1        0.0030
     22 C         -29.7190   45.9963   -4.5835 C.ar    1  UNL1        0.0001
     23 C         -30.2795   44.8890   -3.9471 C.ar    1  UNL1        0.0000
     24 C         -29.5093   44.1192   -3.0781 C.ar    1  UNL1        0.0001
     25 C         -28.1786   44.4607   -2.8314 C.ar    1  UNL1        0.0031
     26 C         -27.5954   45.5800   -3.4540 C.ar    1  UNL1        0.0371
     27 C         -26.2019   45.9460   -3.0976 C.ar    1  UNL1        0.1806
     28 N         -25.1034   45.2719   -3.4889 N.ar    1  UNL1       -0.1084
     29 N         -24.0829   45.9503   -2.9840 N.ar    1  UNL1       -0.0229
     30 N         -24.5276   47.0020   -2.3135 N.ar    1  UNL1       -0.0464
     31 N         -25.8465   47.0221   -2.3747 N.ar    1  UNL1       -0.2388
     32 H         -26.4589   47.7375   -1.9247 H       1  UNL1        0.1923
     33 C         -28.5724   51.4721  -12.8868 C.3     1  UNL1        0.0081
     34 C         -29.5106   50.6381  -13.7667 C.3     1  UNL1        0.0003
     35 C         -27.1127   51.3078  -13.3263 C.3     1  UNL1        0.0003
     36 C         -23.6509   51.8503  -10.7800 C.3     1  UNL1        0.0029
     37 C         -24.3493   51.8326   -9.4241 C.3     1  UNL1        0.0326
     38 C         -31.4552   49.9120   -9.1022 C.3     1  UNL1        0.3404
     39 C         -31.4948   48.4169   -8.8542 C.ar    1  UNL1        0.0640
     40 C         -31.4619   47.5381   -9.9523 C.ar    1  UNL1        0.0031
     41 C         -31.4901   46.1554   -9.7570 C.ar    1  UNL1       -0.0001
     42 C         -31.5516   45.6319   -8.4654 C.ar    1  UNL1        0.0007
     43 C         -31.5835   46.4893   -7.3640 C.ar    1  UNL1        0.0102
     44 C         -31.5551   47.8791   -7.5465 C.ar    1  UNL1        0.0710
     45 C         -31.5738   48.7266   -6.3796 C.1     1  UNL1        0.1003
     46 N         -31.5828   49.4100   -5.4462 N.1     1  UNL1       -0.1908
@<TRIPOS>BOND
     1    36    37    1
     2    37     1    1
     3     1     2    1
     4     2     3    1
     5     3     4    1
     6     4    33    1
     7    33    34    1
     8    33    35    1
     9     4     5    1
    10     5     6    1
    11     6    38    1
    12    38    39    1
    13    39    40   ar
    14    40    41   ar
    15    41    42   ar
    16    42    43   ar
    17    43    44   ar
    18    44    45    1
    19    45    46    3
    20     6     7    1
    21     7     8    2
    22     7     9    1
    23     9    10    1
    24    10    12    1
    25    12    13    1
    26    13    14    1
    27    14    15    1
    28    15    16   ar
    29    16    17   ar
    30    17    21    1
    31    21    22   ar
    32    22    23   ar
    33    23    24   ar
    34    24    25   ar
    35    25    26   ar
    36    26    27    1
    37    27    28   ar
    38    28    29   ar
    39    29    30   ar
    40    30    31   ar
    41    17    18   ar
    42    18    19   ar
    43    19    20   ar
    44    10     1    1
    45    20    12    1
    46     9     3    1
    47    20    15   ar
    48    44    39   ar
    49    26    21   ar
    50    31    27   ar
    51    31    32    1
    52     2    11    1
@<TRIPOS>MOLECULE
*****
 46 52 0 0 0
SMALL
GASTEIGER

@<TRIPOS>ATOM
      1 C         -27.9081   50.9475   -9.0677 C.3     1  UNL1        0.1158
      2 N         -27.8588   51.0296  -10.4187 N.3     1  UNL1       -0.2851
      3 C         -26.5480   51.1634  -10.6778 C.3     1  UNL1        0.0907
      4 C         -25.9453   51.2658  -11.9316 C.3     1  UNL1        0.0937
      5 C         -24.5403   51.3808  -11.9479 C.3     1  UNL1        0.3133
      6 N         -23.8079   51.4210  -10.7819 N.am    1  UNL1       -0.1293
      7 C         -24.4298   51.2857   -9.5578 C.2     1  UNL1        0.4047
      8 O         -23.7518   51.2591   -8.4985 O.2     1  UNL1       -0.2174
      9 C         -25.8286   51.1688   -9.5189 C.3     1  UNL1        0.2038
     10 N         -26.6836   51.0406   -8.4708 N.3     1  UNL1       -0.2473
     11 H         -28.3810   51.8392  -10.7538 H       1  UNL1        0.1244
     12 C         -26.4174   50.9812   -7.0177 C.3     1  UNL1        0.0817
     13 C         -27.1231   52.1072   -6.2320 C.3     1  UNL1        0.0252
     14 C         -27.7378   51.4508   -4.9794 C.3     1  UNL1        0.0278
     15 C         -27.6108   49.9946   -5.2378 C.ar    1  UNL1       -0.0248
     16 C         -28.1363   48.9610   -4.4612 C.ar    1  UNL1       -0.0045
     17 C         -27.9406   47.6277   -4.8757 C.ar    1  UNL1       -0.0002
     18 C         -27.1836   47.3652   -6.0395 C.ar    1  UNL1       -0.0003
     19 C         -26.6609   48.4211   -6.8000 C.ar    1  UNL1       -0.0033
     20 C         -26.9064   49.7315   -6.3862 C.ar    1  UNL1       -0.0117
     21 C         -28.4933   46.5086   -4.0784 C.ar    1  UNL1        0.0030
     22 C         -29.8550   46.1934   -4.2318 C.ar    1  UNL1        0.0001
     23 C         -30.4130   45.1039   -3.5630 C.ar    1  UNL1        0.0000
     24 C         -29.6208   44.3142   -2.7326 C.ar    1  UNL1        0.0001
     25 C         -28.2699   44.6177   -2.5569 C.ar    1  UNL1        0.0031
     26 C         -27.6881   45.7185   -3.2130 C.ar    1  UNL1        0.0371
     27 C         -26.2680   46.0449   -2.9310 C.ar    1  UNL1        0.1806
     28 N         -25.2307   45.2086   -3.1277 N.ar    1  UNL1       -0.1084
     29 N         -24.1558   45.9036   -2.7840 N.ar    1  UNL1       -0.0229
     30 N         -24.5093   47.1193   -2.3962 N.ar    1  UNL1       -0.0464
     31 N         -25.8221   47.2316   -2.4840 N.ar    1  UNL1       -0.2388
     32 H         -26.3714   48.0825   -2.2317 H       1  UNL1        0.1923
     33 C         -26.7588   51.2502  -13.2125 C.3     1  UNL1        0.0081
     34 C         -26.1018   52.1183  -14.2917 C.3     1  UNL1        0.0003
     35 C         -28.2031   51.6936  -12.9513 C.3     1  UNL1        0.0003
     36 C         -29.9081   49.5033   -8.7028 C.3     1  UNL1        0.0029
     37 C         -29.2182   50.8150   -8.3425 C.3     1  UNL1        0.0326
     38 C         -22.3396   51.5491  -10.8784 C.3     1  UNL1        0.3404
     39 C         -21.8796   52.9564  -10.5521 C.ar    1  UNL1        0.0640
     40 C         -22.7741   54.0282  -10.7259 C.ar    1  UNL1        0.0031
     41 C         -22.3831   55.3356  -10.4278 C.ar    1  UNL1       -0.0001
     42 C         -21.0963   55.5904   -9.9531 C.ar    1  UNL1        0.0007
     43 C         -20.1960   54.5385   -9.7732 C.ar    1  UNL1        0.0102
     44 C         -20.5764   53.2217  -10.0682 C.ar    1  UNL1        0.0710
     45 C         -19.6193   52.1646   -9.8523 C.1     1  UNL1        0.1003
     46 N         -18.8559   51.3139   -9.6736 N.1     1  UNL1       -0.1908
@<TRIPOS>BOND
     1    36    37    1
     2    37     1    1
     3     1     2    1
     4     2     3    1
     5     3     4    1
     6     4    33    1
     7    33    34    1
     8    33    35    1
     9     4     5    1
    10     5     6    1
    11     6    38    1
    12    38    39    1
    13    39    40   ar
    14    40    41   ar
    15    41    42   ar
    16    42    43   ar
    17    43    44   ar
    18    44    45    1
    19    45    46    3
    20     6     7    1
    21     7     8    2
    22     7     9    1
    23     9    10    1
    24    10    12    1
    25    12    13    1
    26    13    14    1
    27    14    15    1
    28    15    16   ar
    29    16    17   ar
    30    17    21    1
    31    21    22   ar
    32    22    23   ar
    33    23    24   ar
    34    24    25   ar
    35    25    26   ar
    36    26    27    1
    37    27    28   ar
    38    28    29   ar
    39    29    30   ar
    40    30    31   ar
    41    17    18   ar
    42    18    19   ar
    43    19    20   ar
    44    10     1    1
    45    20    12    1
    46     9     3    1
    47    20    15   ar
    48    44    39   ar
    49    26    21   ar
    50    31    27   ar
    51    31    32    1
    52     2    11    1
@<TRIPOS>MOLECULE
*****
 46 52 0 0 0
SMALL
GASTEIGER

@<TRIPOS>ATOM
      1 C         -30.2101   48.7245   -9.2061 C.3     1  UNL1        0.1158
      2 N         -29.9354   49.8129   -8.4483 N.3     1  UNL1       -0.2851
      3 C         -29.1169   49.3352   -7.4971 C.3     1  UNL1        0.0907
      4 C         -28.5166   50.0563   -6.4650 C.3     1  UNL1        0.0937
      5 C         -27.6771   49.3313   -5.5949 C.3     1  UNL1        0.3133
      6 N         -27.4876   47.9749   -5.7420 N.am    1  UNL1       -0.1293
      7 C         -28.0700   47.2948   -6.7916 C.2     1  UNL1        0.4047
      8 O         -27.8439   46.0688   -6.9600 O.2     1  UNL1       -0.2174
      9 C         -28.9091   47.9982   -7.6708 C.3     1  UNL1        0.2038
     10 N         -29.6098   47.5827   -8.7582 N.3     1  UNL1       -0.2473
     11 H         -30.7871   50.1954   -8.0377 H       1  UNL1        0.1244
     12 C         -29.7174   46.2437   -9.3756 C.3     1  UNL1        0.0817
     13 C         -30.9794   45.4760   -8.9272 C.3     1  UNL1        0.0252
     14 C         -31.5839   44.8438  -10.1970 C.3     1  UNL1        0.0278
     15 C         -30.8388   45.4868  -11.3083 C.ar    1  UNL1       -0.0248
     16 C         -31.0972   45.3526  -12.6730 C.ar    1  UNL1       -0.0045
     17 C         -30.2997   46.0642  -13.5925 C.ar    1  UNL1       -0.0002
     18 C         -29.2334   46.8605  -13.1179 C.ar    1  UNL1       -0.0003
     19 C         -28.9901   46.9746  -11.7415 C.ar    1  UNL1       -0.0033
     20 C         -29.8227   46.2903  -10.8542 C.ar    1  UNL1       -0.0117
     21 C         -30.5541   45.9503  -15.0471 C.ar    1  UNL1        0.0030
     22 C         -30.9087   44.6908  -15.5622 C.ar    1  UNL1        0.0001
     23 C         -31.2315   44.5387  -16.9106 C.ar    1  UNL1        0.0000
     24 C         -31.2054   45.6401  -17.7633 C.ar    1  UNL1        0.0001
     25 C         -30.8437   46.8964  -17.2745 C.ar    1  UNL1        0.0031
     26 C         -30.5036   47.0713  -15.9201 C.ar    1  UNL1        0.0371
     27 C         -30.0503   48.4104  -15.4682 C.ar    1  UNL1        0.1806
     28 N         -28.9157   49.0161  -15.8682 N.ar    1  UNL1       -0.1084
     29 N         -28.9173   50.1922  -15.2572 N.ar    1  UNL1       -0.0229
     30 N         -30.0071   50.3138  -14.5150 N.ar    1  UNL1       -0.0464
     31 N         -30.7310   49.2159  -14.6348 N.ar    1  UNL1       -0.2388
     32 H         -31.6381   49.0375  -14.1502 H       1  UNL1        0.1923
     33 C         -28.7512   51.5453   -6.2895 C.3     1  UNL1        0.0081
     34 C         -27.4436   52.2723   -5.9555 C.3     1  UNL1        0.0003
     35 C         -29.8187   51.8110   -5.2215 C.3     1  UNL1        0.0003
     36 C         -31.1043   50.2097  -10.9987 C.3     1  UNL1        0.0029
     37 C         -31.1333   48.8117  -10.3893 C.3     1  UNL1        0.0326
     38 C         -26.5982   47.2819   -4.7877 C.3     1  UNL1        0.3404
     39 C         -27.3817   46.6424   -3.6582 C.ar    1  UNL1        0.0640
     40 C         -28.7754   46.8249   -3.6006 C.ar    1  UNL1        0.0031
     41 C         -29.5266   46.2433   -2.5768 C.ar    1  UNL1       -0.0001
     42 C         -28.8980   45.4732   -1.5982 C.ar    1  UNL1        0.0007
     43 C         -27.5158   45.2803   -1.6405 C.ar    1  UNL1        0.0102
     44 C         -26.7506   45.8583   -2.6634 C.ar    1  UNL1        0.0710
     45 C         -25.3283   45.6196   -2.6768 C.1     1  UNL1        0.1003
     46 N         -24.1872   45.4297   -2.6950 N.1     1  UNL1       -0.1908
@<TRIPOS>BOND
     1    36    37    1
     2    37     1    1
     3     1     2    1
     4     2     3    1
     5     3     4    1
     6     4    33    1
     7    33    34    1
     8    33    35    1
     9     4     5    1
    10     5     6    1
    11     6    38    1
    12    38    39    1
    13    39    40   ar
    14    40    41   ar
    15    41    42   ar
    16    42    43   ar
    17    43    44   ar
    18    44    45    1
    19    45    46    3
    20     6     7    1
    21     7     8    2
    22     7     9    1
    23     9    10    1
    24    10    12    1
    25    12    13    1
    26    13    14    1
    27    14    15    1
    28    15    16   ar
    29    16    17   ar
    30    17    21    1
    31    21    22   ar
    32    22    23   ar
    33    23    24   ar
    34    24    25   ar
    35    25    26   ar
    36    26    27    1
    37    27    28   ar
    38    28    29   ar
    39    29    30   ar
    40    30    31   ar
    41    17    18   ar
    42    18    19   ar
    43    19    20   ar
    44    10     1    1
    45    20    12    1
    46     9     3    1
    47    20    15   ar
    48    44    39   ar
    49    26    21   ar
    50    31    27   ar
    51    31    32    1
    52     2    11    1
@<TRIPOS>MOLECULE
*****
 46 52 0 0 0
SMALL
GASTEIGER

@<TRIPOS>ATOM
      1 C         -29.0089   49.8778  -10.6748 C.3     1  UNL1        0.1158
      2 N         -29.4556   48.6000  -10.6297 N.3     1  UNL1       -0.2851
      3 C         -28.8429   48.0907   -9.5488 C.3     1  UNL1        0.0907
      4 C         -28.9778   46.8006   -9.0360 C.3     1  UNL1        0.0937
      5 C         -28.2401   46.5049   -7.8715 C.3     1  UNL1        0.3133
      6 N         -27.4064   47.4357   -7.2920 N.am    1  UNL1       -0.1293
      7 C         -27.3181   48.7137   -7.8043 C.2     1  UNL1        0.4047
      8 O         -26.6048   49.5800   -7.2356 O.2     1  UNL1       -0.2174
      9 C         -28.0455   49.0298   -8.9631 C.3     1  UNL1        0.2038
     10 N         -28.1296   50.1835   -9.6758 N.3     1  UNL1       -0.2473
     11 H         -29.1898   48.0911  -11.4728 H       1  UNL1        0.1244
     12 C         -27.4779   51.4931   -9.4612 C.3     1  UNL1        0.0817
     13 C         -27.3986   51.8866   -7.9706 C.3     1  UNL1        0.0252
     14 C         -25.9768   52.4352   -7.7357 C.3     1  UNL1        0.0278
     15 C         -25.2446   52.0795   -8.9770 C.ar    1  UNL1       -0.0248
     16 C         -23.8790   52.2406   -9.2148 C.ar    1  UNL1       -0.0045
     17 C         -23.3462   51.8180  -10.4498 C.ar    1  UNL1       -0.0002
     18 C         -24.2086   51.2827  -11.4327 C.ar    1  UNL1       -0.0003
     19 C         -25.5786   51.1364  -11.1719 C.ar    1  UNL1       -0.0033
     20 C         -26.0694   51.5260   -9.9245 C.ar    1  UNL1       -0.0117
     21 C         -21.8994   51.9670  -10.7296 C.ar    1  UNL1        0.0030
     22 C         -21.1489   50.8048  -10.9811 C.ar    1  UNL1        0.0001
     23 C         -19.7992   50.8892  -11.3228 C.ar    1  UNL1        0.0000
     24 C         -19.1799   52.1335  -11.4186 C.ar    1  UNL1        0.0001
     25 C         -19.9039   53.2985  -11.1604 C.ar    1  UNL1        0.0031
     26 C         -21.2638   53.2367  -10.8034 C.ar    1  UNL1        0.0371
     27 C         -21.9674   54.4982  -10.4624 C.ar    1  UNL1        0.1806
     28 N         -21.4084   55.5450   -9.8253 N.ar    1  UNL1       -0.1084
     29 N         -22.3653   56.4594   -9.7564 N.ar    1  UNL1       -0.0229
     30 N         -23.4679   56.0029  -10.3302 N.ar    1  UNL1       -0.0464
     31 N         -23.2416   54.7829  -10.7819 N.ar    1  UNL1       -0.2388
     32 H         -23.9421   54.1825  -11.2701 H       1  UNL1        0.1923
     33 C         -29.8754   45.7692   -9.6945 C.3     1  UNL1        0.0081
     34 C         -30.0845   44.5578   -8.7788 C.3     1  UNL1        0.0003
     35 C         -29.3140   45.3418  -11.0557 C.3     1  UNL1        0.0003
     36 C         -30.8151   51.3968  -11.4803 C.3     1  UNL1        0.0029
     37 C         -29.4357   50.8142  -11.7706 C.3     1  UNL1        0.0326
     38 C         -26.6606   47.0510   -6.0765 C.3     1  UNL1        0.3404
     39 C         -27.4044   47.4479   -4.8165 C.ar    1  UNL1        0.0640
     40 C         -28.6390   48.1130   -4.9292 C.ar    1  UNL1        0.0031
     41 C         -29.3521   48.4858   -3.7876 C.ar    1  UNL1       -0.0001
     42 C         -28.8435   48.2006   -2.5203 C.ar    1  UNL1        0.0007
     43 C         -27.6205   47.5399   -2.3897 C.ar    1  UNL1        0.0102
     44 C         -26.8952   47.1598   -3.5278 C.ar    1  UNL1        0.0710
     45 C         -25.6443   46.4654   -3.3460 C.1     1  UNL1        0.1003
     46 N         -24.6374   45.9149   -3.1992 N.1     1  UNL1       -0.1908
@<TRIPOS>BOND
     1    36    37    1
     2    37     1    1
     3     1     2    1
     4     2     3    1
     5     3     4    1
     6     4    33    1
     7    33    34    1
     8    33    35    1
     9     4     5    1
    10     5     6    1
    11     6    38    1
    12    38    39    1
    13    39    40   ar
    14    40    41   ar
    15    41    42   ar
    16    42    43   ar
    17    43    44   ar
    18    44    45    1
    19    45    46    3
    20     6     7    1
    21     7     8    2
    22     7     9    1
    23     9    10    1
    24    10    12    1
    25    12    13    1
    26    13    14    1
    27    14    15    1
    28    15    16   ar
    29    16    17   ar
    30    17    21    1
    31    21    22   ar
    32    22    23   ar
    33    23    24   ar
    34    24    25   ar
    35    25    26   ar
    36    26    27    1
    37    27    28   ar
    38    28    29   ar
    39    29    30   ar
    40    30    31   ar
    41    17    18   ar
    42    18    19   ar
    43    19    20   ar
    44    10     1    1
    45    20    12    1
    46     9     3    1
    47    20    15   ar
    48    44    39   ar
    49    26    21   ar
    50    31    27   ar
    51    31    32    1
    52     2    11    1
@<TRIPOS>MOLECULE
*****
 46 52 0 0 0
SMALL
GASTEIGER

@<TRIPOS>ATOM
      1 C         -30.8922   47.2377   -6.3726 C.3     1  UNL1        0.1158
      2 N         -31.2946   48.3174   -5.6609 N.3     1  UNL1       -0.2851
      3 C         -30.4330   49.2778   -6.0326 C.3     1  UNL1        0.0907
      4 C         -30.4205   50.6063   -5.6075 C.3     1  UNL1        0.0937
      5 C         -29.4209   51.4346   -6.1573 C.3     1  UNL1        0.3133
      6 N         -28.4878   50.9447   -7.0442 N.am    1  UNL1       -0.1293
      7 C         -28.5451   49.6336   -7.4700 C.2     1  UNL1        0.4047
      8 O         -27.7304   49.2064   -8.3280 O.2     1  UNL1       -0.2174
      9 C         -29.5337   48.7915   -6.9357 C.3     1  UNL1        0.2038
     10 N         -29.8044   47.4794   -7.1618 N.3     1  UNL1       -0.2473
     11 H         -31.2302   48.1379   -4.6589 H       1  UNL1        0.1244
     12 C         -29.1413   46.5029   -8.0521 C.3     1  UNL1        0.0817
     13 C         -29.6051   45.0518   -7.8021 C.3     1  UNL1        0.0252
     14 C         -29.8402   44.4203   -9.1890 C.3     1  UNL1        0.0278
     15 C         -29.7822   45.5725  -10.1231 C.ar    1  UNL1       -0.0248
     16 C         -30.0628   45.5527  -11.4900 C.ar    1  UNL1       -0.0045
     17 C         -29.9833   46.7556  -12.2211 C.ar    1  UNL1       -0.0002
     18 C         -29.5813   47.9418  -11.5671 C.ar    1  UNL1       -0.0003
     19 C         -29.2989   47.9347  -10.1935 C.ar    1  UNL1       -0.0033
     20 C         -29.4263   46.7366   -9.4886 C.ar    1  UNL1       -0.0117
     21 C         -30.2837   46.7698  -13.6713 C.ar    1  UNL1        0.0030
     22 C         -30.1140   45.5768  -14.3960 C.ar    1  UNL1        0.0001
     23 C         -30.4514   45.5112  -15.7478 C.ar    1  UNL1        0.0000
     24 C         -30.9626   46.6340  -16.3950 C.ar    1  UNL1        0.0001
     25 C         -31.1268   47.8313  -15.6969 C.ar    1  UNL1        0.0031
     26 C         -30.7829   47.9237  -14.3353 C.ar    1  UNL1        0.0371
     27 C         -30.9022   49.2398  -13.6597 C.ar    1  UNL1        0.1806
     28 N         -30.3897   50.3950  -14.1254 N.ar    1  UNL1       -0.1084
     29 N         -30.7530   51.3152  -13.2434 N.ar    1  UNL1       -0.0229
     30 N         -31.4641   50.7572  -12.2758 N.ar    1  UNL1       -0.0464
     31 N         -31.5740   49.4635  -12.5171 N.ar    1  UNL1       -0.2388
     32 H         -32.0759   48.7788  -11.9100 H       1  UNL1        0.1923
     33 C         -31.4330   51.1345   -4.6081 C.3     1  UNL1        0.0081
     34 C         -31.4521   52.6673   -4.6029 C.3     1  UNL1        0.0003
     35 C         -31.1593   50.5813   -3.2046 C.3     1  UNL1        0.0003
     36 C         -31.5803   45.4467   -4.7796 C.3     1  UNL1        0.0029
     37 C         -31.5839   45.9103   -6.2327 C.3     1  UNL1        0.0326
     38 C         -27.4667   51.8716   -7.5734 C.3     1  UNL1        0.3404
     39 C         -27.2013   51.6277   -9.0460 C.ar    1  UNL1        0.0640
     40 C         -28.2455   51.8105   -9.9708 C.ar    1  UNL1        0.0031
     41 C         -28.0314   51.6006  -11.3350 C.ar    1  UNL1       -0.0001
     42 C         -26.7746   51.2059  -11.7937 C.ar    1  UNL1        0.0007
     43 C         -25.7264   51.0211  -10.8902 C.ar    1  UNL1        0.0102
     44 C         -25.9282   51.2292   -9.5184 C.ar    1  UNL1        0.0710
     45 C         -24.8131   51.0420   -8.6230 C.1     1  UNL1        0.1003
     46 N         -23.9141   50.8904   -7.9108 N.1     1  UNL1       -0.1908
@<TRIPOS>BOND
     1    36    37    1
     2    37     1    1
     3     1     2    1
     4     2     3    1
     5     3     4    1
     6     4    33    1
     7    33    34    1
     8    33    35    1
     9     4     5    1
    10     5     6    1
    11     6    38    1
    12    38    39    1
    13    39    40   ar
    14    40    41   ar
    15    41    42   ar
    16    42    43   ar
    17    43    44   ar
    18    44    45    1
    19    45    46    3
    20     6     7    1
    21     7     8    2
    22     7     9    1
    23     9    10    1
    24    10    12    1
    25    12    13    1
    26    13    14    1
    27    14    15    1
    28    15    16   ar
    29    16    17   ar
    30    17    21    1
    31    21    22   ar
    32    22    23   ar
    33    23    24   ar
    34    24    25   ar
    35    25    26   ar
    36    26    27    1
    37    27    28   ar
    38    28    29   ar
    39    29    30   ar
    40    30    31   ar
    41    17    18   ar
    42    18    19   ar
    43    19    20   ar
    44    10     1    1
    45    20    12    1
    46     9     3    1
    47    20    15   ar
    48    44    39   ar
    49    26    21   ar
    50    31    27   ar
    51    31    32    1
    52     2    11    1
@<TRIPOS>MOLECULE
*****
 46 52 0 0 0
SMALL
GASTEIGER

@<TRIPOS>ATOM
      1 C         -28.0567   51.1559   -9.0023 C.3     1  UNL1        0.1158
      2 N         -28.0551   51.1407  -10.3566 N.3     1  UNL1       -0.2851
      3 C         -26.7544   51.2534  -10.6707 C.3     1  UNL1        0.0907
      4 C         -26.1963   51.2645  -11.9490 C.3     1  UNL1        0.0937
      5 C         -24.7929   51.3758  -12.0230 C.3     1  UNL1        0.3133
      6 N         -24.0199   51.4986  -10.8894 N.am    1  UNL1       -0.1293
      7 C         -24.5981   51.4526   -9.6376 C.2     1  UNL1        0.4047
      8 O         -23.8832   51.5011   -8.6036 O.2     1  UNL1       -0.2174
      9 C         -25.9946   51.3410   -9.5412 C.3     1  UNL1        0.2038
     10 N         -26.8120   51.2898   -8.4571 N.3     1  UNL1       -0.2473
     11 H         -28.5896   51.9249  -10.7305 H       1  UNL1        0.1244
     12 C         -26.4948   51.3346   -7.0138 C.3     1  UNL1        0.0817
     13 C         -27.5697   52.0709   -6.1858 C.3     1  UNL1        0.0252
     14 C         -27.8209   51.2133   -4.9293 C.3     1  UNL1        0.0278
     15 C         -27.1219   49.9364   -5.2201 C.ar    1  UNL1       -0.0248
     16 C         -27.1547   48.7736   -4.4493 C.ar    1  UNL1       -0.0045
     17 C         -26.4483   47.6379   -4.8957 C.ar    1  UNL1       -0.0002
     18 C         -25.6906   47.7136   -6.0858 C.ar    1  UNL1       -0.0003
     19 C         -25.6688   48.8957   -6.8400 C.ar    1  UNL1       -0.0033
     20 C         -26.4114   49.9901   -6.3934 C.ar    1  UNL1       -0.0117
     21 C         -26.4705   46.3857   -4.1051 C.ar    1  UNL1        0.0030
     22 C         -25.3979   46.1332   -3.2316 C.ar    1  UNL1        0.0001
     23 C         -25.4006   45.0074   -2.4081 C.ar    1  UNL1        0.0000
     24 C         -26.4726   44.1184   -2.4446 C.ar    1  UNL1        0.0001
     25 C         -27.5410   44.3441   -3.3138 C.ar    1  UNL1        0.0031
     26 C         -27.5546   45.4675   -4.1614 C.ar    1  UNL1        0.0371
     27 C         -28.6753   45.6195   -5.1225 C.ar    1  UNL1        0.1806
     28 N         -28.7260   45.0536   -6.3437 N.ar    1  UNL1       -0.1084
     29 N         -29.8988   45.4151   -6.8442 N.ar    1  UNL1       -0.0229
     30 N         -30.5498   46.1675   -5.9705 N.ar    1  UNL1       -0.0464
     31 N         -29.8075   46.3046   -4.8870 N.ar    1  UNL1       -0.2388
     32 H         -30.0727   46.8567   -4.0419 H       1  UNL1        0.1923
     33 C         -27.0545   51.1581  -13.1960 C.3     1  UNL1        0.0081
     34 C         -26.3970   51.8782  -14.3789 C.3     1  UNL1        0.0003
     35 C         -28.4669   51.6962  -12.9383 C.3     1  UNL1        0.0003
     36 C         -29.8513   49.6423   -8.1614 C.3     1  UNL1        0.0029
     37 C         -29.3403   51.0780   -8.2238 C.3     1  UNL1        0.0326
     38 C         -22.5560   51.6171  -11.0465 C.3     1  UNL1        0.3404
     39 C         -22.0657   53.0035  -10.6778 C.ar    1  UNL1        0.0640
     40 C         -22.9515   54.0923  -10.7727 C.ar    1  UNL1        0.0031
     41 C         -22.5324   55.3809  -10.4338 C.ar    1  UNL1       -0.0001
     42 C         -21.2260   55.5998   -9.9965 C.ar    1  UNL1        0.0007
     43 C         -20.3339   54.5307   -9.8949 C.ar    1  UNL1        0.0102
     44 C         -20.7423   53.2323  -10.2315 C.ar    1  UNL1        0.0710
     45 C         -19.7922   52.1557  -10.0963 C.1     1  UNL1        0.1003
     46 N         -19.0286   51.2943   -9.9808 N.1     1  UNL1       -0.1908
@<TRIPOS>BOND
     1    36    37    1
     2    37     1    1
     3     1     2    1
     4     2     3    1
     5     3     4    1
     6     4    33    1
     7    33    34    1
     8    33    35    1
     9     4     5    1
    10     5     6    1
    11     6    38    1
    12    38    39    1
    13    39    40   ar
    14    40    41   ar
    15    41    42   ar
    16    42    43   ar
    17    43    44   ar
    18    44    45    1
    19    45    46    3
    20     6     7    1
    21     7     8    2
    22     7     9    1
    23     9    10    1
    24    10    12    1
    25    12    13    1
    26    13    14    1
    27    14    15    1
    28    15    16   ar
    29    16    17   ar
    30    17    21    1
    31    21    22   ar
    32    22    23   ar
    33    23    24   ar
    34    24    25   ar
    35    25    26   ar
    36    26    27    1
    37    27    28   ar
    38    28    29   ar
    39    29    30   ar
    40    30    31   ar
    41    17    18   ar
    42    18    19   ar
    43    19    20   ar
    44    10     1    1
    45    20    12    1
    46     9     3    1
    47    20    15   ar
    48    44    39   ar
    49    26    21   ar
    50    31    27   ar
    51    31    32    1
    52     2    11    1
