@<TRIPOS>MOLECULE
*****
 41 45 0 0 0
SMALL
GASTEIGER

@<TRIPOS>ATOM
      1 C          -7.0730  -15.3417   25.1387 C.ar    1  UNL1        0.1652
      2 C          -8.1371  -15.8886   25.9098 C.ar    1  UNL1        0.1260
      3 C          -8.8812  -16.9832   25.3905 C.ar    1  UNL1        0.1812
      4 C          -8.6210  -17.4825   24.0980 C.ar    1  UNL1        0.1899
      5 C          -7.5934  -16.8942   23.3585 C.ar    1  UNL1        0.1203
      6 C          -6.8518  -15.8658   23.8654 C.ar    1  UNL1        0.1370
      7 N          -5.8972  -15.4965   22.9925 N.ar    1  UNL1       -0.2103
      8 C          -6.1054  -16.3303   21.9404 C.ar    1  UNL1        0.2019
      9 N          -7.1431  -17.1902   22.1246 N.ar    1  UNL1       -0.2949
     10 C          -7.6265  -18.2308   21.2170 C.3     1  UNL1        0.1333
     11 O          -9.3928  -18.5372   23.6017 O.3     1  UNL1       -0.4668
     12 C         -10.6105  -18.9242   24.2410 C.3     1  UNL1        0.2527
     13 C         -10.4565  -18.8457   25.7641 C.3     1  UNL1        0.2526
     14 O          -9.9017  -17.5831   26.1399 O.3     1  UNL1       -0.4681
     15 C          -8.4963  -15.3274   27.2295 C.2     1  UNL1        0.2556
     16 O          -8.8055  -16.1119   28.1671 O.2     1  UNL1       -0.2696
     17 N          -8.4791  -13.9054   27.4455 N.am    1  UNL1       -0.2802
     18 H          -8.1262  -13.2895   26.6791 H       1  UNL1        0.1552
     19 C          -8.8053  -13.2819   28.6982 C.ar    1  UNL1        0.0506
     20 C         -10.0461  -13.5468   29.2916 C.ar    1  UNL1        0.0170
     21 C         -10.3770  -12.9759   30.5212 C.ar    1  UNL1        0.0309
     22 C          -9.4687  -12.1417   31.1776 C.ar    1  UNL1        0.1441
     23 F          -9.8098  -11.6117   32.3799 F       1  UNL1       -0.2042
     24 C          -8.2120  -11.8699   30.6049 C.ar    1  UNL1        0.1000
     25 C          -7.8810  -12.4628   29.3710 C.ar    1  UNL1        0.0208
     26 C          -7.2226  -11.0001   31.3437 C.3     1  UNL1        0.4207
     27 F          -5.9545  -11.1869   30.8229 F       1  UNL1       -0.1658
     28 F          -7.5806   -9.6728   31.1957 F       1  UNL1       -0.1658
     29 F          -7.1850  -11.3021   32.6943 F       1  UNL1       -0.1658
     30 C          -4.9996  -14.5826   26.2514 C.3     1  UNL1        0.2525
     31 O          -6.2417  -14.3194   25.6079 O.3     1  UNL1       -0.4696
     32 N          -5.2634  -16.3330   20.7778 N.pl3   1  UNL1       -0.2814
     33 H          -5.6913  -16.1258   19.8485 H       1  UNL1        0.1551
     34 C          -3.9447  -16.8985   20.7962 C.ar    1  UNL1        0.0889
     35 C          -2.9245  -16.2414   21.5041 C.ar    1  UNL1        0.1543
     36 F          -3.1808  -15.0752   22.1487 F       1  UNL1       -0.2028
     37 C          -1.6313  -16.7713   21.5320 C.ar    1  UNL1        0.0310
     38 C          -1.3491  -17.9659   20.8671 C.ar    1  UNL1        0.0033
     39 C          -2.3614  -18.6407   20.1812 C.ar    1  UNL1        0.0128
     40 C          -3.6604  -18.1192   20.1461 C.ar    1  UNL1        0.0733
     41 CL         -4.9184  -19.0561   19.3481 Cl      1  UNL1       -0.0809
@<TRIPOS>BOND
     1    30    31    1
     2    31     1    1
     3     1     2   ar
     4     2    15    1
     5    15    16    2
     6    15    17   am
     7    17    19    1
     8    19    20   ar
     9    20    21   ar
    10    21    22   ar
    11    22    23    1
    12    22    24   ar
    13    24    26    1
    14    26    27    1
    15    26    28    1
    16    26    29    1
    17    24    25   ar
    18     2     3   ar
    19     3     4   ar
    20     4     5   ar
    21     5     6   ar
    22     6     7   ar
    23     7     8   ar
    24     8    32    1
    25    32    34    1
    26    34    35   ar
    27    35    36    1
    28    35    37   ar
    29    37    38   ar
    30    38    39   ar
    31    39    40   ar
    32    40    41    1
    33     8     9   ar
    34     9    10    1
    35     4    11    1
    36    11    12    1
    37    12    13    1
    38    13    14    1
    39     6     1   ar
    40    40    34   ar
    41    25    19   ar
    42    14     3    1
    43     9     5   ar
    44    17    18    1
    45    32    33    1
@<TRIPOS>MOLECULE
*****
 41 45 0 0 0
SMALL
GASTEIGER

@<TRIPOS>ATOM
      1 C          -6.9997  -15.2123   25.2279 C.ar    1  UNL1        0.1652
      2 C          -8.0583  -15.7599   26.0060 C.ar    1  UNL1        0.1260
      3 C          -8.8187  -16.8412   25.4826 C.ar    1  UNL1        0.1812
      4 C          -8.5798  -17.3261   24.1805 C.ar    1  UNL1        0.1899
      5 C          -7.5569  -16.7371   23.4351 C.ar    1  UNL1        0.1203
      6 C          -6.7998  -15.7218   23.9452 C.ar    1  UNL1        0.1370
      7 N          -5.8535  -15.3494   23.0646 N.ar    1  UNL1       -0.2103
      8 C          -6.0828  -16.1678   22.0047 C.ar    1  UNL1        0.2019
      9 N          -7.1255  -17.0211   22.1916 N.ar    1  UNL1       -0.2949
     10 C          -7.6298  -18.0457   21.2774 C.3     1  UNL1        0.1333
     11 O          -9.3673  -18.3677   23.6811 O.3     1  UNL1       -0.4668
     12 C         -10.5798  -18.7524   24.3314 C.3     1  UNL1        0.2527
     13 C         -10.4052  -18.6948   25.8532 C.3     1  UNL1        0.2526
     14 O          -9.8345  -17.4420   26.2377 O.3     1  UNL1       -0.4681
     15 C          -8.3953  -15.2126   27.3373 C.2     1  UNL1        0.2556
     16 O          -8.7392  -16.0034   28.2574 O.2     1  UNL1       -0.2696
     17 N          -8.3176  -13.7977   27.5843 N.am    1  UNL1       -0.2802
     18 H          -7.9374  -13.1810   26.8317 H       1  UNL1        0.1552
     19 C          -8.6188  -13.1882   28.8501 C.ar    1  UNL1        0.0506
     20 C          -7.7071  -12.2827   29.4075 C.ar    1  UNL1        0.0170
     21 C          -7.9876  -11.6559   30.6223 C.ar    1  UNL1        0.0309
     22 C          -9.1866  -11.9182   31.2898 C.ar    1  UNL1        0.1441
     23 F          -9.4413  -11.2833   32.4623 F       1  UNL1       -0.2042
     24 C         -10.1220  -12.8167   30.7431 C.ar    1  UNL1        0.1000
     25 C          -9.8368  -13.4328   29.5092 C.ar    1  UNL1        0.0208
     26 C         -11.4325  -13.0604   31.4532 C.3     1  UNL1        0.4207
     27 F         -12.4551  -12.4106   30.7852 F       1  UNL1       -0.1658
     28 F         -11.6968  -14.4175   31.4728 F       1  UNL1       -0.1658
     29 F         -11.4022  -12.5949   32.7567 F       1  UNL1       -0.1658
     30 C          -4.9059  -14.4854   26.3239 C.3     1  UNL1        0.2525
     31 O          -6.1534  -14.2032   25.6990 O.3     1  UNL1       -0.4696
     32 N          -5.2562  -16.1628   20.8312 N.pl3   1  UNL1       -0.2814
     33 H          -5.6831  -15.8904   19.9185 H       1  UNL1        0.1551
     34 C          -3.9702  -16.7991   20.8051 C.ar    1  UNL1        0.0889
     35 C          -2.8991  -16.2139   21.5006 C.ar    1  UNL1        0.1543
     36 F          -3.0758  -15.0500   22.1753 F       1  UNL1       -0.2028
     37 C          -1.6364  -16.8134   21.4853 C.ar    1  UNL1        0.0310
     38 C          -1.4358  -18.0067   20.7891 C.ar    1  UNL1        0.0033
     39 C          -2.4995  -18.6105   20.1149 C.ar    1  UNL1        0.0128
     40 C          -3.7686  -18.0189   20.1230 C.ar    1  UNL1        0.0733
     41 CL         -5.0945  -18.8686   19.3375 Cl      1  UNL1       -0.0809
@<TRIPOS>BOND
     1    30    31    1
     2    31     1    1
     3     1     2   ar
     4     2    15    1
     5    15    16    2
     6    15    17   am
     7    17    19    1
     8    19    20   ar
     9    20    21   ar
    10    21    22   ar
    11    22    23    1
    12    22    24   ar
    13    24    26    1
    14    26    27    1
    15    26    28    1
    16    26    29    1
    17    24    25   ar
    18     2     3   ar
    19     3     4   ar
    20     4     5   ar
    21     5     6   ar
    22     6     7   ar
    23     7     8   ar
    24     8    32    1
    25    32    34    1
    26    34    35   ar
    27    35    36    1
    28    35    37   ar
    29    37    38   ar
    30    38    39   ar
    31    39    40   ar
    32    40    41    1
    33     8     9   ar
    34     9    10    1
    35     4    11    1
    36    11    12    1
    37    12    13    1
    38    13    14    1
    39     6     1   ar
    40    40    34   ar
    41    25    19   ar
    42    14     3    1
    43     9     5   ar
    44    17    18    1
    45    32    33    1
@<TRIPOS>MOLECULE
*****
 41 45 0 0 0
SMALL
GASTEIGER

@<TRIPOS>ATOM
      1 C          -8.4751  -13.1744   29.0604 C.ar    1  UNL1        0.1652
      2 C          -7.1536  -12.7437   28.7542 C.ar    1  UNL1        0.1260
      3 C          -6.5236  -11.7828   29.5916 C.ar    1  UNL1        0.1812
      4 C          -7.2178  -11.2056   30.6745 C.ar    1  UNL1        0.1899
      5 C          -8.5258  -11.6277   30.9192 C.ar    1  UNL1        0.1203
      6 C          -9.1242  -12.5758   30.1400 C.ar    1  UNL1        0.1370
      7 N         -10.3605  -12.8494   30.5942 N.ar    1  UNL1       -0.2103
      8 C         -10.4846  -12.0195   31.6626 C.ar    1  UNL1        0.2019
      9 N          -9.3859  -11.2484   31.8832 N.ar    1  UNL1       -0.2949
     10 C          -9.1668  -10.2715   32.9499 C.3     1  UNL1        0.1333
     11 O          -6.5830  -10.2380   31.4588 O.3     1  UNL1       -0.4668
     12 C          -5.3737   -9.6138   31.0241 C.3     1  UNL1        0.2527
     13 C          -4.4668  -10.6397   30.3351 C.3     1  UNL1        0.2526
     14 O          -5.2054  -11.3718   29.3545 O.3     1  UNL1       -0.4681
     15 C          -6.4324  -13.2602   27.5715 C.2     1  UNL1        0.2556
     16 O          -5.4285  -12.6302   27.1408 O.2     1  UNL1       -0.2696
     17 N          -6.8613  -14.4737   26.9293 N.am    1  UNL1       -0.2802
     18 H          -7.6350  -15.0222   27.3671 H       1  UNL1        0.1552
     19 C          -6.2106  -15.0461   25.7833 C.ar    1  UNL1        0.0506
     20 C          -5.0515  -15.8110   25.9659 C.ar    1  UNL1        0.0170
     21 C          -4.4154  -16.4009   24.8728 C.ar    1  UNL1        0.0309
     22 C          -4.9350  -16.2425   23.5857 C.ar    1  UNL1        0.1441
     23 F          -4.3053  -16.8398   22.5420 F       1  UNL1       -0.2042
     24 C          -6.1045  -15.4867   23.3800 C.ar    1  UNL1        0.1000
     25 C          -6.7480  -14.9079   24.4910 C.ar    1  UNL1        0.0208
     26 C          -6.6798  -15.3573   21.9895 C.3     1  UNL1        0.4207
     27 F          -6.9256  -16.6139   21.4654 F       1  UNL1       -0.1658
     28 F          -7.8681  -14.6528   22.0498 F       1  UNL1       -0.1658
     29 F          -5.8132  -14.6945   21.1372 F       1  UNL1       -0.1658
     30 C          -8.7316  -15.5366   28.3764 C.3     1  UNL1        0.2525
     31 O          -9.1362  -14.1724   28.3370 O.3     1  UNL1       -0.4696
     32 N         -11.6465  -12.0128   32.5054 N.pl3   1  UNL1       -0.2814
     33 H         -11.9509  -11.1103   32.9325 H       1  UNL1        0.1551
     34 C         -12.2167  -13.2238   33.0228 C.ar    1  UNL1        0.0889
     35 C         -13.3370  -13.7834   32.3859 C.ar    1  UNL1        0.1543
     36 F         -13.8835  -13.1746   31.3034 F       1  UNL1       -0.2028
     37 C         -13.9120  -14.9598   32.8751 C.ar    1  UNL1        0.0310
     38 C         -13.3667  -15.5941   33.9928 C.ar    1  UNL1        0.0033
     39 C         -12.2381  -15.0604   34.6187 C.ar    1  UNL1        0.0128
     40 C         -11.6538  -13.8823   34.1378 C.ar    1  UNL1        0.0733
     41 CL        -10.1790  -13.3044   34.9048 Cl      1  UNL1       -0.0809
@<TRIPOS>BOND
     1    30    31    1
     2    31     1    1
     3     1     2   ar
     4     2    15    1
     5    15    16    2
     6    15    17   am
     7    17    19    1
     8    19    20   ar
     9    20    21   ar
    10    21    22   ar
    11    22    23    1
    12    22    24   ar
    13    24    26    1
    14    26    27    1
    15    26    28    1
    16    26    29    1
    17    24    25   ar
    18     2     3   ar
    19     3     4   ar
    20     4     5   ar
    21     5     6   ar
    22     6     7   ar
    23     7     8   ar
    24     8    32    1
    25    32    34    1
    26    34    35   ar
    27    35    36    1
    28    35    37   ar
    29    37    38   ar
    30    38    39   ar
    31    39    40   ar
    32    40    41    1
    33     8     9   ar
    34     9    10    1
    35     4    11    1
    36    11    12    1
    37    12    13    1
    38    13    14    1
    39     6     1   ar
    40    40    34   ar
    41    25    19   ar
    42    14     3    1
    43     9     5   ar
    44    17    18    1
    45    32    33    1
@<TRIPOS>MOLECULE
*****
 41 45 0 0 0
SMALL
GASTEIGER

@<TRIPOS>ATOM
      1 C          -8.4131  -13.9739   28.4054 C.ar    1  UNL1        0.1652
      2 C          -7.1486  -13.5799   27.8842 C.ar    1  UNL1        0.1260
      3 C          -6.4996  -12.4359   28.4240 C.ar    1  UNL1        0.1812
      4 C          -7.1256  -11.6537   29.4161 C.ar    1  UNL1        0.1899
      5 C          -8.3825  -12.0527   29.8744 C.ar    1  UNL1        0.1203
      6 C          -8.9956  -13.1703   29.3851 C.ar    1  UNL1        0.1370
      7 N         -10.1707  -13.3753   30.0071 N.ar    1  UNL1       -0.2103
      8 C         -10.2444  -12.3316   30.8737 C.ar    1  UNL1        0.2019
      9 N          -9.1734  -11.4954   30.8108 N.ar    1  UNL1       -0.2949
     10 C          -8.9138  -10.2978   31.6098 C.3     1  UNL1        0.1333
     11 O          -6.4769  -10.5148   29.9025 O.3     1  UNL1       -0.4668
     12 C          -5.3458   -9.9648   29.2250 C.3     1  UNL1        0.2527
     13 C          -4.4495  -11.0888   28.6931 C.3     1  UNL1        0.2526
     14 O          -5.2313  -12.0456   27.9746 O.3     1  UNL1       -0.4681
     15 C          -6.5078  -14.3243   26.7793 C.2     1  UNL1        0.2556
     16 O          -5.3686  -14.8335   26.9612 O.2     1  UNL1       -0.2696
     17 N          -7.1815  -14.4787   25.5178 N.am    1  UNL1       -0.2802
     18 H          -8.1621  -14.1291   25.4309 H       1  UNL1        0.1552
     19 C          -6.6324  -15.1939   24.3992 C.ar    1  UNL1        0.0506
     20 C          -7.1744  -14.9896   23.1239 C.ar    1  UNL1        0.0170
     21 C          -6.6422  -15.6508   22.0163 C.ar    1  UNL1        0.0309
     22 C          -5.5558  -16.5161   22.1675 C.ar    1  UNL1        0.1441
     23 F          -5.0476  -17.1346   21.0713 F       1  UNL1       -0.2042
     24 C          -4.9885  -16.7285   23.4381 C.ar    1  UNL1        0.1000
     25 C          -5.5227  -16.0450   24.5476 C.ar    1  UNL1        0.0208
     26 C          -3.7883  -17.6339   23.5824 C.3     1  UNL1        0.4207
     27 F          -4.0777  -18.8821   23.0609 F       1  UNL1       -0.1658
     28 F          -2.7207  -17.0919   22.8907 F       1  UNL1       -0.1658
     29 F          -3.4238  -17.7924   24.9086 F       1  UNL1       -0.1658
     30 C          -8.4031  -16.3600   27.7574 C.3     1  UNL1        0.2525
     31 O          -9.0810  -15.1296   27.9874 O.3     1  UNL1       -0.4696
     32 N         -11.3262  -12.1743   31.8039 N.pl3   1  UNL1       -0.2814
     33 H         -11.7480  -11.2274   31.9268 H       1  UNL1        0.1551
     34 C         -11.6428  -13.1793   32.7781 C.ar    1  UNL1        0.0889
     35 C         -12.6965  -14.0736   32.5260 C.ar    1  UNL1        0.1543
     36 F         -13.4177  -13.9758   31.3808 F       1  UNL1       -0.2028
     37 C         -13.0258  -15.0576   33.4626 C.ar    1  UNL1        0.0310
     38 C         -12.2990  -15.1664   34.6496 C.ar    1  UNL1        0.0033
     39 C         -11.2335  -14.2988   34.8993 C.ar    1  UNL1        0.0128
     40 C         -10.8948  -13.3090   33.9686 C.ar    1  UNL1        0.0733
     41 CL         -9.4860  -12.3042   34.2890 Cl      1  UNL1       -0.0809
@<TRIPOS>BOND
     1    30    31    1
     2    31     1    1
     3     1     2   ar
     4     2    15    1
     5    15    16    2
     6    15    17   am
     7    17    19    1
     8    19    20   ar
     9    20    21   ar
    10    21    22   ar
    11    22    23    1
    12    22    24   ar
    13    24    26    1
    14    26    27    1
    15    26    28    1
    16    26    29    1
    17    24    25   ar
    18     2     3   ar
    19     3     4   ar
    20     4     5   ar
    21     5     6   ar
    22     6     7   ar
    23     7     8   ar
    24     8    32    1
    25    32    34    1
    26    34    35   ar
    27    35    36    1
    28    35    37   ar
    29    37    38   ar
    30    38    39   ar
    31    39    40   ar
    32    40    41    1
    33     8     9   ar
    34     9    10    1
    35     4    11    1
    36    11    12    1
    37    12    13    1
    38    13    14    1
    39     6     1   ar
    40    40    34   ar
    41    25    19   ar
    42    14     3    1
    43     9     5   ar
    44    17    18    1
    45    32    33    1
@<TRIPOS>MOLECULE
*****
 41 45 0 0 0
SMALL
GASTEIGER

@<TRIPOS>ATOM
      1 C          -8.3930  -13.0999   29.1693 C.ar    1  UNL1        0.1652
      2 C          -7.0812  -12.6785   28.8126 C.ar    1  UNL1        0.1260
      3 C          -6.4082  -11.7310   29.6317 C.ar    1  UNL1        0.1812
      4 C          -7.0517  -11.1575   30.7474 C.ar    1  UNL1        0.1899
      5 C          -8.3524  -11.5698   31.0421 C.ar    1  UNL1        0.1203
      6 C          -8.9914  -12.5054   30.2800 C.ar    1  UNL1        0.1370
      7 N         -10.2105  -12.7718   30.7824 N.ar    1  UNL1       -0.2103
      8 C         -10.2826  -11.9506   31.8622 C.ar    1  UNL1        0.2019
      9 N          -9.1686  -11.1916   32.0441 N.ar    1  UNL1       -0.2949
     10 C          -8.8964  -10.2266   33.1093 C.3     1  UNL1        0.1333
     11 O          -6.3760  -10.2029   31.5133 O.3     1  UNL1       -0.4668
     12 C          -5.1797   -9.5858   31.0346 C.3     1  UNL1        0.2527
     13 C          -4.3117  -10.6136   30.2998 C.3     1  UNL1        0.2526
     14 O          -5.0970  -11.3299   29.3441 O.3     1  UNL1       -0.4681
     15 C          -6.4142  -13.1906   27.5967 C.2     1  UNL1        0.2556
     16 O          -5.4376  -12.5532   27.1171 O.2     1  UNL1       -0.2696
     17 N          -6.8640  -14.4083   26.9771 N.am    1  UNL1       -0.2802
     18 H          -7.6111  -14.9625   27.4526 H       1  UNL1        0.1552
     19 C          -6.2652  -14.9770   25.8013 C.ar    1  UNL1        0.0506
     20 C          -5.0838  -15.7189   25.9260 C.ar    1  UNL1        0.0170
     21 C          -4.4964  -16.3049   24.8039 C.ar    1  UNL1        0.0309
     22 C          -5.0874  -16.1655   23.5457 C.ar    1  UNL1        0.1441
     23 F          -4.5036  -16.7586   22.4734 F       1  UNL1       -0.2042
     24 C          -6.2803  -15.4330   23.3986 C.ar    1  UNL1        0.1000
     25 C          -6.8739  -14.8581   24.5391 C.ar    1  UNL1        0.0208
     26 C          -6.9318  -15.3244   22.0404 C.3     1  UNL1        0.4207
     27 F          -7.2426  -16.5869   21.5676 F       1  UNL1       -0.1658
     28 F          -8.0946  -14.5839   22.1487 F       1  UNL1       -0.1658
     29 F          -6.0984  -14.7106   21.1210 F       1  UNL1       -0.1658
     30 C          -8.6757  -15.4460   28.4416 C.3     1  UNL1        0.2525
     31 O          -9.0928  -14.0852   28.4651 O.3     1  UNL1       -0.4696
     32 N         -11.4088  -11.9411   32.7523 N.pl3   1  UNL1       -0.2814
     33 H         -11.5945  -11.0828   33.3165 H       1  UNL1        0.1551
     34 C         -12.0963  -13.1457   33.1203 C.ar    1  UNL1        0.0889
     35 C         -11.5983  -13.9264   34.1768 C.ar    1  UNL1        0.1543
     36 F         -10.4691  -13.5532   34.8300 F       1  UNL1       -0.2028
     37 C         -12.2488  -15.1061   34.5497 C.ar    1  UNL1        0.0310
     38 C         -13.4071  -15.5085   33.8824 C.ar    1  UNL1        0.0033
     39 C         -13.9253  -14.7271   32.8472 C.ar    1  UNL1        0.0128
     40 C         -13.2819  -13.5437   32.4648 C.ar    1  UNL1        0.0733
     41 CL        -14.0277  -12.5490   31.2193 Cl      1  UNL1       -0.0809
@<TRIPOS>BOND
     1    30    31    1
     2    31     1    1
     3     1     2   ar
     4     2    15    1
     5    15    16    2
     6    15    17   am
     7    17    19    1
     8    19    20   ar
     9    20    21   ar
    10    21    22   ar
    11    22    23    1
    12    22    24   ar
    13    24    26    1
    14    26    27    1
    15    26    28    1
    16    26    29    1
    17    24    25   ar
    18     2     3   ar
    19     3     4   ar
    20     4     5   ar
    21     5     6   ar
    22     6     7   ar
    23     7     8   ar
    24     8    32    1
    25    32    34    1
    26    34    35   ar
    27    35    36    1
    28    35    37   ar
    29    37    38   ar
    30    38    39   ar
    31    39    40   ar
    32    40    41    1
    33     8     9   ar
    34     9    10    1
    35     4    11    1
    36    11    12    1
    37    12    13    1
    38    13    14    1
    39     6     1   ar
    40    40    34   ar
    41    25    19   ar
    42    14     3    1
    43     9     5   ar
    44    17    18    1
    45    32    33    1
@<TRIPOS>MOLECULE
*****
 41 45 0 0 0
SMALL
GASTEIGER

@<TRIPOS>ATOM
      1 C          -8.5085  -14.1647   28.4582 C.ar    1  UNL1        0.1652
      2 C          -7.2576  -13.7819   27.8972 C.ar    1  UNL1        0.1260
      3 C          -6.6233  -12.5953   28.3565 C.ar    1  UNL1        0.1812
      4 C          -7.2518  -11.7638   29.3060 C.ar    1  UNL1        0.1899
      5 C          -8.4957  -12.1553   29.8044 C.ar    1  UNL1        0.1203
      6 C          -9.0940  -13.3118   29.3935 C.ar    1  UNL1        0.1370
      7 N         -10.2577  -13.4981   30.0421 N.ar    1  UNL1       -0.2103
      8 C         -10.3402  -12.4039   30.8431 C.ar    1  UNL1        0.2019
      9 N          -9.2855  -11.5546   30.7144 N.ar    1  UNL1       -0.2949
     10 C          -9.0384  -10.3052   31.4341 C.3     1  UNL1        0.1333
     11 O          -6.6183  -10.5856   29.7122 O.3     1  UNL1       -0.4668
     12 C          -5.5054  -10.0593   28.9873 C.3     1  UNL1        0.2527
     13 C          -4.5951  -11.1984   28.5148 C.3     1  UNL1        0.2526
     14 O          -5.3678  -12.2117   27.8673 O.3     1  UNL1       -0.4681
     15 C          -6.6165  -14.5825   26.8326 C.2     1  UNL1        0.2556
     16 O          -5.6043  -15.2801   27.1138 O.2     1  UNL1       -0.2696
     17 N          -7.1491  -14.5776   25.4964 N.am    1  UNL1       -0.2802
     18 H          -8.0430  -14.0671   25.3186 H       1  UNL1        0.1552
     19 C          -6.5914  -15.3337   24.4094 C.ar    1  UNL1        0.0506
     20 C          -5.2997  -15.0331   23.9589 C.ar    1  UNL1        0.0170
     21 C          -4.7240  -15.7699   22.9230 C.ar    1  UNL1        0.0309
     22 C          -5.4274  -16.8221   22.3316 C.ar    1  UNL1        0.1441
     23 F          -4.8380  -17.5325   21.3363 F       1  UNL1       -0.2042
     24 C          -6.7227  -17.1485   22.7753 C.ar    1  UNL1        0.1000
     25 C          -7.2895  -16.4092   23.8315 C.ar    1  UNL1        0.0208
     26 C          -7.4566  -18.3145   22.1564 C.3     1  UNL1        0.4207
     27 F          -6.7331  -19.4782   22.3478 F       1  UNL1       -0.1658
     28 F          -8.6940  -18.4479   22.7588 F       1  UNL1       -0.1658
     29 F          -7.6416  -18.1384   20.7957 F       1  UNL1       -0.1658
     30 C          -8.4558  -16.5092   27.6745 C.3     1  UNL1        0.2525
     31 O          -9.1600  -15.3557   28.1215 O.3     1  UNL1       -0.4696
     32 N         -11.4137  -12.2078   31.7756 N.pl3   1  UNL1       -0.2814
     33 H         -11.8218  -11.2523   31.8764 H       1  UNL1        0.1551
     34 C         -11.7374  -13.1829   32.7774 C.ar    1  UNL1        0.0889
     35 C         -12.8271  -14.0453   32.5709 C.ar    1  UNL1        0.1543
     36 F         -13.5752  -13.9446   31.4433 F       1  UNL1       -0.2028
     37 C         -13.1638  -14.9997   33.5351 C.ar    1  UNL1        0.0310
     38 C         -12.4094  -15.1108   34.7044 C.ar    1  UNL1        0.0033
     39 C         -11.3089  -14.2754   34.9088 C.ar    1  UNL1        0.0128
     40 C         -10.9624  -13.3155   33.9501 C.ar    1  UNL1        0.0733
     41 CL         -9.5125  -12.3534   34.2134 Cl      1  UNL1       -0.0809
@<TRIPOS>BOND
     1    30    31    1
     2    31     1    1
     3     1     2   ar
     4     2    15    1
     5    15    16    2
     6    15    17   am
     7    17    19    1
     8    19    20   ar
     9    20    21   ar
    10    21    22   ar
    11    22    23    1
    12    22    24   ar
    13    24    26    1
    14    26    27    1
    15    26    28    1
    16    26    29    1
    17    24    25   ar
    18     2     3   ar
    19     3     4   ar
    20     4     5   ar
    21     5     6   ar
    22     6     7   ar
    23     7     8   ar
    24     8    32    1
    25    32    34    1
    26    34    35   ar
    27    35    36    1
    28    35    37   ar
    29    37    38   ar
    30    38    39   ar
    31    39    40   ar
    32    40    41    1
    33     8     9   ar
    34     9    10    1
    35     4    11    1
    36    11    12    1
    37    12    13    1
    38    13    14    1
    39     6     1   ar
    40    40    34   ar
    41    25    19   ar
    42    14     3    1
    43     9     5   ar
    44    17    18    1
    45    32    33    1
@<TRIPOS>MOLECULE
*****
 41 45 0 0 0
SMALL
GASTEIGER

@<TRIPOS>ATOM
      1 C          -8.0059  -11.6867   29.9655 C.ar    1  UNL1        0.1652
      2 C          -9.0271  -12.6703   29.8413 C.ar    1  UNL1        0.1260
      3 C          -9.9634  -12.8381   30.8980 C.ar    1  UNL1        0.1812
      4 C          -9.8473  -12.0919   32.0886 C.ar    1  UNL1        0.1899
      5 C          -8.8092  -11.1635   32.1861 C.ar    1  UNL1        0.1203
      6 C          -7.9278  -10.9726   31.1609 C.ar    1  UNL1        0.1370
      7 N          -7.0491  -10.0014   31.4678 N.ar    1  UNL1       -0.2103
      8 C          -7.4275   -9.6305   32.7188 C.ar    1  UNL1        0.2019
      9 N          -8.4931  -10.3293   33.1946 N.ar    1  UNL1       -0.2949
     10 C          -9.1726  -10.1763   34.4810 C.3     1  UNL1        0.1333
     11 O         -10.7629  -12.3042   33.1234 O.3     1  UNL1       -0.4668
     12 C         -11.6228  -13.4452   33.1245 C.3     1  UNL1        0.2527
     13 C         -12.1160  -13.7373   31.7028 C.3     1  UNL1        0.2526
     14 O         -11.0142  -13.7587   30.7926 O.3     1  UNL1       -0.4681
     15 C          -9.1199  -13.5339   28.6450 C.2     1  UNL1        0.2556
     16 O         -10.2022  -13.5744   27.9990 O.2     1  UNL1       -0.2696
     17 N          -7.9857  -14.3069   28.2148 N.am    1  UNL1       -0.2802
     18 H          -7.0770  -14.1777   28.7135 H       1  UNL1        0.1552
     19 C          -7.9910  -15.1619   27.0600 C.ar    1  UNL1        0.0506
     20 C          -8.8903  -16.2345   27.0071 C.ar    1  UNL1        0.0170
     21 C          -8.9350  -17.0637   25.8857 C.ar    1  UNL1        0.0309
     22 C          -8.0893  -16.8255   24.7994 C.ar    1  UNL1        0.1441
     23 F          -8.1641  -17.6381   23.7147 F       1  UNL1       -0.2042
     24 C          -7.1850  -15.7472   24.8264 C.ar    1  UNL1        0.1000
     25 C          -7.1578  -14.9067   25.9562 C.ar    1  UNL1        0.0208
     26 C          -6.3054  -15.4750   23.6292 C.3     1  UNL1        0.4207
     27 F          -7.0465  -14.8662   22.6322 F       1  UNL1       -0.1658
     28 F          -5.2730  -14.6340   24.0019 F       1  UNL1       -0.1658
     29 F          -5.7648  -16.6416   23.1160 F       1  UNL1       -0.1658
     30 C          -5.8005  -10.8714   29.2006 C.3     1  UNL1        0.2525
     31 O          -7.0956  -11.4026   28.9422 O.3     1  UNL1       -0.4696
     32 N          -6.7924   -8.5594   33.4328 N.pl3   1  UNL1       -0.2814
     33 H          -7.1808   -8.2747   34.3589 H       1  UNL1        0.1551
     34 C          -5.8533   -7.6771   32.8012 C.ar    1  UNL1        0.0889
     35 C          -4.5739   -7.5204   33.3600 C.ar    1  UNL1        0.1543
     36 F          -4.2372   -8.1835   34.4949 F       1  UNL1       -0.2028
     37 C          -3.6444   -6.6628   32.7647 C.ar    1  UNL1        0.0310
     38 C          -3.9779   -5.9668   31.6014 C.ar    1  UNL1        0.0033
     39 C          -5.2381   -6.1342   31.0231 C.ar    1  UNL1        0.0128
     40 C          -6.1774   -6.9903   31.6109 C.ar    1  UNL1        0.0733
     41 CL         -7.7148   -7.2373   30.7908 Cl      1  UNL1       -0.0809
@<TRIPOS>BOND
     1    30    31    1
     2    31     1    1
     3     1     2   ar
     4     2    15    1
     5    15    16    2
     6    15    17   am
     7    17    19    1
     8    19    20   ar
     9    20    21   ar
    10    21    22   ar
    11    22    23    1
    12    22    24   ar
    13    24    26    1
    14    26    27    1
    15    26    28    1
    16    26    29    1
    17    24    25   ar
    18     2     3   ar
    19     3     4   ar
    20     4     5   ar
    21     5     6   ar
    22     6     7   ar
    23     7     8   ar
    24     8    32    1
    25    32    34    1
    26    34    35   ar
    27    35    36    1
    28    35    37   ar
    29    37    38   ar
    30    38    39   ar
    31    39    40   ar
    32    40    41    1
    33     8     9   ar
    34     9    10    1
    35     4    11    1
    36    11    12    1
    37    12    13    1
    38    13    14    1
    39     6     1   ar
    40    40    34   ar
    41    25    19   ar
    42    14     3    1
    43     9     5   ar
    44    17    18    1
    45    32    33    1
@<TRIPOS>MOLECULE
*****
 41 45 0 0 0
SMALL
GASTEIGER

@<TRIPOS>ATOM
      1 C          -7.7257  -15.6204   25.4911 C.ar    1  UNL1        0.1652
      2 C          -6.4591  -15.0155   25.2553 C.ar    1  UNL1        0.1260
      3 C          -5.7523  -15.3245   24.0610 C.ar    1  UNL1        0.1812
      4 C          -6.2599  -16.2715   23.1481 C.ar    1  UNL1        0.1899
      5 C          -7.4880  -16.8705   23.4343 C.ar    1  UNL1        0.1203
      6 C          -8.1885  -16.5520   24.5622 C.ar    1  UNL1        0.1370
      7 N          -9.3555  -17.2201   24.5981 N.ar    1  UNL1       -0.2103
      8 C          -9.3194  -17.9606   23.4596 C.ar    1  UNL1        0.2019
      9 N          -8.1858  -17.7812   22.7296 N.ar    1  UNL1       -0.2949
     10 C          -7.8286  -18.3938   21.4501 C.3     1  UNL1        0.1333
     11 O          -5.5249  -16.5796   21.9995 O.3     1  UNL1       -0.4668
     12 C          -4.1574  -16.1861   21.8717 C.3     1  UNL1        0.2527
     13 C          -3.9525  -14.7859   22.4608 C.3     1  UNL1        0.2526
     14 O          -4.5276  -14.7108   23.7672 O.3     1  UNL1       -0.4681
     15 C          -5.8558  -14.0894   26.2371 C.2     1  UNL1        0.2556
     16 O          -4.6085  -13.9042   26.2209 O.2     1  UNL1       -0.2696
     17 N          -6.6825  -13.3972   27.1892 N.am    1  UNL1       -0.2802
     18 H          -7.7195  -13.4978   27.1142 H       1  UNL1        0.1552
     19 C          -6.1762  -12.4755   28.1682 C.ar    1  UNL1        0.0506
     20 C          -4.9946  -11.7730   27.8997 C.ar    1  UNL1        0.0170
     21 C          -4.4959  -10.8517   28.8217 C.ar    1  UNL1        0.0309
     22 C          -5.1767  -10.6136   30.0181 C.ar    1  UNL1        0.1441
     23 F          -4.6780   -9.7010   30.8905 F       1  UNL1       -0.2042
     24 C          -6.3716  -11.3005   30.3042 C.ar    1  UNL1        0.1000
     25 C          -6.8752  -12.2171   29.3609 C.ar    1  UNL1        0.0208
     26 C          -7.1204  -11.0040   31.5819 C.3     1  UNL1        0.4207
     27 F          -8.2483  -11.8014   31.6596 F       1  UNL1       -0.1658
     28 F          -6.3026  -11.2720   32.6642 F       1  UNL1       -0.1658
     29 F          -7.5207   -9.6802   31.6447 F       1  UNL1       -0.1658
     30 C          -8.5822  -16.1464   27.7502 C.3     1  UNL1        0.2525
     31 O          -8.5214  -15.3112   26.5992 O.3     1  UNL1       -0.4696
     32 N         -10.4086  -18.8005   23.0490 N.pl3   1  UNL1       -0.2814
     33 H         -10.2571  -19.4686   22.2614 H       1  UNL1        0.1551
     34 C         -11.7594  -18.5497   23.4633 C.ar    1  UNL1        0.0889
     35 C         -12.1528  -18.8894   24.7686 C.ar    1  UNL1        0.1543
     36 F         -11.2682  -19.4646   25.6218 F       1  UNL1       -0.2028
     37 C         -13.4646  -18.6586   25.1925 C.ar    1  UNL1        0.0310
     38 C         -14.3891  -18.0753   24.3243 C.ar    1  UNL1        0.0033
     39 C         -14.0024  -17.7106   23.0328 C.ar    1  UNL1        0.0128
     40 C         -12.6912  -17.9373   22.5970 C.ar    1  UNL1        0.0733
     41 CL        -12.2312  -17.3736   20.9946 Cl      1  UNL1       -0.0809
@<TRIPOS>BOND
     1    30    31    1
     2    31     1    1
     3     1     2   ar
     4     2    15    1
     5    15    16    2
     6    15    17   am
     7    17    19    1
     8    19    20   ar
     9    20    21   ar
    10    21    22   ar
    11    22    23    1
    12    22    24   ar
    13    24    26    1
    14    26    27    1
    15    26    28    1
    16    26    29    1
    17    24    25   ar
    18     2     3   ar
    19     3     4   ar
    20     4     5   ar
    21     5     6   ar
    22     6     7   ar
    23     7     8   ar
    24     8    32    1
    25    32    34    1
    26    34    35   ar
    27    35    36    1
    28    35    37   ar
    29    37    38   ar
    30    38    39   ar
    31    39    40   ar
    32    40    41    1
    33     8     9   ar
    34     9    10    1
    35     4    11    1
    36    11    12    1
    37    12    13    1
    38    13    14    1
    39     6     1   ar
    40    40    34   ar
    41    25    19   ar
    42    14     3    1
    43     9     5   ar
    44    17    18    1
    45    32    33    1
@<TRIPOS>MOLECULE
*****
 41 45 0 0 0
SMALL
GASTEIGER

@<TRIPOS>ATOM
      1 C          -7.6873  -11.8064   29.9324 C.ar    1  UNL1        0.1652
      2 C          -8.7371  -12.7446   29.7240 C.ar    1  UNL1        0.1260
      3 C          -9.7689  -12.8610   30.6953 C.ar    1  UNL1        0.1812
      4 C          -9.7238  -12.1098   31.8876 C.ar    1  UNL1        0.1899
      5 C          -8.6574  -11.2278   32.0711 C.ar    1  UNL1        0.1203
      6 C          -7.6820  -11.0856   31.1263 C.ar    1  UNL1        0.1370
      7 N          -6.7905  -10.1518   31.5042 N.ar    1  UNL1       -0.2103
      8 C          -7.2598   -9.7530   32.7152 C.ar    1  UNL1        0.2019
      9 N          -8.3935  -10.3993   33.0992 N.ar    1  UNL1       -0.2949
     10 C          -9.1753  -10.2045   34.3201 C.3     1  UNL1        0.1333
     11 O         -10.7352  -12.2718   32.8391 O.3     1  UNL1       -0.4668
     12 C         -11.6425  -13.3732   32.7705 C.3     1  UNL1        0.2527
     13 C         -12.0221  -13.6561   31.3125 C.3     1  UNL1        0.2526
     14 O         -10.8470  -13.7348   30.5027 O.3     1  UNL1       -0.4681
     15 C          -8.7638  -13.6141   28.5287 C.2     1  UNL1        0.2556
     16 O          -9.8747  -13.9197   28.0161 O.2     1  UNL1       -0.2696
     17 N          -7.5377  -14.0934   27.9489 N.am    1  UNL1       -0.2802
     18 H          -6.6332  -13.7447   28.3381 H       1  UNL1        0.1552
     19 C          -7.4772  -14.9330   26.7846 C.ar    1  UNL1        0.0506
     20 C          -6.3362  -14.8959   25.9731 C.ar    1  UNL1        0.0170
     21 C          -6.2402  -15.7210   24.8517 C.ar    1  UNL1        0.0309
     22 C          -7.2782  -16.6002   24.5332 C.ar    1  UNL1        0.1441
     23 F          -7.1526  -17.4027   23.4457 F       1  UNL1       -0.2042
     24 C          -8.4297  -16.6617   25.3404 C.ar    1  UNL1        0.1000
     25 C          -8.5109  -15.8362   26.4786 C.ar    1  UNL1        0.0208
     26 C          -9.5267  -17.6457   25.0095 C.3     1  UNL1        0.4207
     27 F         -10.0264  -18.1994   26.1748 F       1  UNL1       -0.1658
     28 F         -10.5474  -16.9875   24.3485 F       1  UNL1       -0.1658
     29 F          -9.0661  -18.6734   24.2043 F       1  UNL1       -0.1658
     30 C          -5.8834  -10.3921   29.0054 C.3     1  UNL1        0.2525
     31 O          -6.6791  -11.5724   28.9916 O.3     1  UNL1       -0.4696
     32 N          -6.6419   -8.7048   33.4767 N.pl3   1  UNL1       -0.2814
     33 H          -7.0185   -8.4855   34.4252 H       1  UNL1        0.1551
     34 C          -5.7437   -7.7592   32.8782 C.ar    1  UNL1        0.0889
     35 C          -4.4761   -7.5579   33.4497 C.ar    1  UNL1        0.1543
     36 F          -4.1131   -8.2386   34.5659 F       1  UNL1       -0.2028
     37 C          -3.5865   -6.6385   32.8866 C.ar    1  UNL1        0.0310
     38 C          -3.9478   -5.9241   31.7429 C.ar    1  UNL1        0.0033
     39 C          -5.1956   -6.1344   31.1519 C.ar    1  UNL1        0.0128
     40 C          -6.0950   -7.0526   31.7073 C.ar    1  UNL1        0.0733
     41 CL         -7.6146   -7.3484   30.8704 Cl      1  UNL1       -0.0809
@<TRIPOS>BOND
     1    30    31    1
     2    31     1    1
     3     1     2   ar
     4     2    15    1
     5    15    16    2
     6    15    17   am
     7    17    19    1
     8    19    20   ar
     9    20    21   ar
    10    21    22   ar
    11    22    23    1
    12    22    24   ar
    13    24    26    1
    14    26    27    1
    15    26    28    1
    16    26    29    1
    17    24    25   ar
    18     2     3   ar
    19     3     4   ar
    20     4     5   ar
    21     5     6   ar
    22     6     7   ar
    23     7     8   ar
    24     8    32    1
    25    32    34    1
    26    34    35   ar
    27    35    36    1
    28    35    37   ar
    29    37    38   ar
    30    38    39   ar
    31    39    40   ar
    32    40    41    1
    33     8     9   ar
    34     9    10    1
    35     4    11    1
    36    11    12    1
    37    12    13    1
    38    13    14    1
    39     6     1   ar
    40    40    34   ar
    41    25    19   ar
    42    14     3    1
    43     9     5   ar
    44    17    18    1
    45    32    33    1
