@<TRIPOS>MOLECULE
*****
 40 44 0 0 0
SMALL
GASTEIGER

@<TRIPOS>ATOM
      1 C         -22.1253   -9.7514  -13.2913 C.2     1  UNL1        0.2506
      2 O         -21.8353  -10.0291  -14.4867 O.2     1  UNL1       -0.2699
      3 N         -23.3863   -9.1242  -12.9835 N.am    1  UNL1       -0.2680
      4 C         -24.1248   -9.5160  -11.7783 C.3     1  UNL1        0.1412
      5 C         -23.9703   -8.4492  -10.6966 C.3     1  UNL1        0.2268
      6 O         -23.8623   -7.1426  -11.2587 O.3     1  UNL1       -0.4739
      7 C         -24.7853   -6.6414  -12.1789 C.ar    1  UNL1        0.1362
      8 C         -25.5522   -5.5320  -11.8067 C.ar    1  UNL1        0.0366
      9 C         -26.5114   -5.0101  -12.6741 C.ar    1  UNL1        0.0031
     10 C         -26.7088   -5.5890  -13.9325 C.ar    1  UNL1       -0.0002
     11 C         -25.9177   -6.6755  -14.3282 C.ar    1  UNL1        0.0004
     12 C         -24.9550   -7.2216  -13.4610 C.ar    1  UNL1        0.0317
     13 C         -24.0498   -8.3106  -14.0123 C.3     1  UNL1        0.1236
     14 C         -27.7105   -5.0289  -14.8587 C.ar    1  UNL1       -0.0002
     15 C         -29.0702   -5.3872  -14.6741 C.ar    1  UNL1        0.0014
     16 C         -30.0716   -4.8719  -15.5126 C.ar    1  UNL1        0.0206
     17 C         -29.6864   -3.9950  -16.5184 C.ar    1  UNL1        0.0983
     18 N         -30.4825   -3.3678  -17.4025 N.ar    1  UNL1       -0.2241
     19 C         -29.6065   -2.6209  -18.1221 C.ar    1  UNL1        0.1750
     20 N         -28.3213   -2.7598  -17.7198 N.ar    1  UNL1       -0.3351
     21 C         -28.3842   -3.6362  -16.7059 C.ar    1  UNL1        0.0739
     22 C         -27.3436   -4.1368  -15.9083 C.ar    1  UNL1        0.0241
     23 H         -27.4834   -2.2790  -18.1149 H       1  UNL1        0.1675
     24 C         -25.9258   -3.6513  -16.1035 C.3     1  UNL1        0.1651
     25 O         -25.9084   -2.2554  -16.2201 O.3     1  UNL1       -0.3772
     26 H         -26.0365   -1.8937  -15.3043 H       1  UNL1        0.2109
     27 C         -20.8216  -11.4353  -11.9352 C.ar    1  UNL1        0.0503
     28 C         -19.8468  -11.6867  -10.9478 C.ar    1  UNL1        0.0328
     29 C         -19.2476  -10.6342  -10.2452 C.ar    1  UNL1        0.1069
     30 C         -19.6120   -9.3150  -10.5280 C.ar    1  UNL1        0.0186
     31 C         -20.5669   -9.0466  -11.5075 C.ar    1  UNL1        0.0071
     32 C         -21.1629  -10.0922  -12.2269 C.ar    1  UNL1        0.0667
     33 S         -18.0232  -10.9761   -9.0268 S.O2    1  UNL1        0.0105
     34 C         -17.9170  -12.7333   -8.7768 C.3     1  UNL1        0.1816
     35 O         -16.6879  -10.4534   -9.4777 O.2     1  UNL1       -0.1686
     36 O         -18.3933  -10.3035   -7.7347 O.2     1  UNL1       -0.1686
     37 N         -21.4905  -12.5225  -12.6144 N.pl3   1  UNL1       -0.3325
     38 H         -22.4877  -12.7332  -12.3863 H       1  UNL1        0.1468
     39 C         -21.8402  -13.5920  -14.7957 C.3     1  UNL1        0.0229
     40 C         -20.8746  -13.3670  -13.6377 C.3     1  UNL1        0.0871
@<TRIPOS>BOND
     1    39    40    1
     2    40    37    1
     3    37    27    1
     4    27    28   ar
     5    28    29   ar
     6    29    33    1
     7    33    34    1
     8    33    35    2
     9    33    36    2
    10    29    30   ar
    11    30    31   ar
    12    31    32   ar
    13    32     1    1
    14     1     2    2
    15     1     3   am
    16     3     4    1
    17     4     5    1
    18     5     6    1
    19     6     7    1
    20     7     8   ar
    21     8     9   ar
    22     9    10   ar
    23    10    14    1
    24    14    15   ar
    25    15    16   ar
    26    16    17   ar
    27    17    18   ar
    28    18    19   ar
    29    19    20   ar
    30    20    21   ar
    31    21    22   ar
    32    22    24    1
    33    24    25    1
    34    10    11   ar
    35    11    12   ar
    36    12    13    1
    37    32    27   ar
    38    13     3    1
    39    12     7   ar
    40    22    14   ar
    41    21    17   ar
    42    37    38    1
    43    20    23    1
    44    25    26    1
@<TRIPOS>MOLECULE
*****
 40 44 0 0 0
SMALL
GASTEIGER

@<TRIPOS>ATOM
      1 C         -21.7341   -8.2845   -9.3776 C.2     1  UNL1        0.2506
      2 O         -22.5113   -8.1747   -8.3906 O.2     1  UNL1       -0.2699
      3 N         -22.0449   -7.6161  -10.6165 N.am    1  UNL1       -0.2680
      4 C         -20.9727   -7.0022  -11.4069 C.3     1  UNL1        0.1412
      5 C         -20.6417   -7.8773  -12.6138 C.3     1  UNL1        0.2268
      6 O         -21.7966   -8.5569  -13.1027 O.3     1  UNL1       -0.4739
      7 C         -22.9857   -7.8927  -13.4106 C.ar    1  UNL1        0.1362
      8 C         -23.4205   -7.9003  -14.7404 C.ar    1  UNL1        0.0366
      9 C         -24.5840   -7.2258  -15.1097 C.ar    1  UNL1        0.0031
     10 C         -25.3335   -6.5408  -14.1472 C.ar    1  UNL1       -0.0002
     11 C         -24.9263   -6.5613  -12.8068 C.ar    1  UNL1        0.0004
     12 C         -23.7492   -7.2260  -12.4198 C.ar    1  UNL1        0.0317
     13 C         -23.4481   -7.3134  -10.9328 C.3     1  UNL1        0.1236
     14 C         -26.5735   -5.8409  -14.5315 C.ar    1  UNL1       -0.0002
     15 C         -26.4618   -4.5923  -15.1945 C.ar    1  UNL1        0.0014
     16 C         -27.6060   -3.8873  -15.6012 C.ar    1  UNL1        0.0206
     17 C         -28.8451   -4.4583  -15.3413 C.ar    1  UNL1        0.0983
     18 N         -30.0537   -3.9699  -15.6725 N.ar    1  UNL1       -0.2241
     19 C         -30.9022   -4.9264  -15.2164 C.ar    1  UNL1        0.1750
     20 N         -30.2723   -5.9706  -14.6283 N.ar    1  UNL1       -0.3351
     21 C         -28.9696   -5.6604  -14.7096 C.ar    1  UNL1        0.0739
     22 C         -27.8595   -6.3959  -14.2664 C.ar    1  UNL1        0.0241
     23 H         -30.7155   -6.8214  -14.2172 H       1  UNL1        0.1675
     24 C         -28.0428   -7.7593  -13.6406 C.3     1  UNL1        0.1651
     25 O         -29.2736   -7.8199  -12.9744 O.3     1  UNL1       -0.3772
     26 H         -29.9703   -7.9126  -13.6759 H       1  UNL1        0.2109
     27 C         -19.6529   -8.9491   -8.1123 C.ar    1  UNL1        0.0503
     28 C         -18.5308   -9.7964   -8.0060 C.ar    1  UNL1        0.0328
     29 C         -18.2455  -10.7394   -9.0008 C.ar    1  UNL1        0.1069
     30 C         -19.0854  -10.8511  -10.1121 C.ar    1  UNL1        0.0186
     31 C         -20.2048  -10.0287  -10.2298 C.ar    1  UNL1        0.0071
     32 C         -20.5076   -9.0906   -9.2326 C.ar    1  UNL1        0.0667
     33 S         -16.8451  -11.7941   -8.8358 S.O2    1  UNL1        0.0105
     34 C         -16.4224  -11.9454   -7.1153 C.3     1  UNL1        0.1816
     35 O         -17.1555  -13.1539   -9.3960 O.2     1  UNL1       -0.1686
     36 O         -15.6830  -11.2143   -9.5924 O.2     1  UNL1       -0.1686
     37 N         -19.9119   -7.9292   -7.1207 N.pl3   1  UNL1       -0.3325
     38 H         -20.6925   -7.2523   -7.2735 H       1  UNL1        0.1468
     39 C         -19.8111   -8.5745   -4.7548 C.3     1  UNL1        0.0229
     40 C         -19.1608   -7.7713   -5.8756 C.3     1  UNL1        0.0871
@<TRIPOS>BOND
     1    39    40    1
     2    40    37    1
     3    37    27    1
     4    27    28   ar
     5    28    29   ar
     6    29    33    1
     7    33    34    1
     8    33    35    2
     9    33    36    2
    10    29    30   ar
    11    30    31   ar
    12    31    32   ar
    13    32     1    1
    14     1     2    2
    15     1     3   am
    16     3     4    1
    17     4     5    1
    18     5     6    1
    19     6     7    1
    20     7     8   ar
    21     8     9   ar
    22     9    10   ar
    23    10    14    1
    24    14    15   ar
    25    15    16   ar
    26    16    17   ar
    27    17    18   ar
    28    18    19   ar
    29    19    20   ar
    30    20    21   ar
    31    21    22   ar
    32    22    24    1
    33    24    25    1
    34    10    11   ar
    35    11    12   ar
    36    12    13    1
    37    32    27   ar
    38    13     3    1
    39    12     7   ar
    40    22    14   ar
    41    21    17   ar
    42    37    38    1
    43    20    23    1
    44    25    26    1
@<TRIPOS>MOLECULE
*****
 40 44 0 0 0
SMALL
GASTEIGER

@<TRIPOS>ATOM
      1 C         -21.9910   -8.3292   -9.6828 C.2     1  UNL1        0.2506
      2 O         -22.7989   -8.2044   -8.7226 O.2     1  UNL1       -0.2699
      3 N         -22.2180   -7.6119  -10.9125 N.am    1  UNL1       -0.2680
      4 C         -21.0852   -7.0354  -11.6445 C.3     1  UNL1        0.1412
      5 C         -20.7544   -7.8943  -12.8631 C.3     1  UNL1        0.2268
      6 O         -21.9238   -8.4974  -13.4140 O.3     1  UNL1       -0.4739
      7 C         -23.0634   -7.7622  -13.7465 C.ar    1  UNL1        0.1362
      8 C         -23.4463   -7.7106  -15.0912 C.ar    1  UNL1        0.0366
      9 C         -24.5574   -6.9648  -15.4838 C.ar    1  UNL1        0.0031
     10 C         -25.3065   -6.2666  -14.5303 C.ar    1  UNL1       -0.0002
     11 C         -24.9530   -6.3451  -13.1769 C.ar    1  UNL1        0.0004
     12 C         -23.8285   -7.0823  -12.7659 C.ar    1  UNL1        0.0317
     13 C         -23.5901   -7.2258  -11.2719 C.3     1  UNL1        0.1236
     14 C         -26.4920   -5.4910  -14.9401 C.ar    1  UNL1       -0.0002
     15 C         -26.2974   -4.3483  -15.7571 C.ar    1  UNL1        0.0014
     16 C         -27.3886   -3.5803  -16.1940 C.ar    1  UNL1        0.0206
     17 C         -28.6604   -3.9834  -15.8078 C.ar    1  UNL1        0.0983
     18 N         -29.8325   -3.4135  -16.1402 N.ar    1  UNL1       -0.2241
     19 C         -30.7426   -4.2150  -15.5301 C.ar    1  UNL1        0.1750
     20 N         -30.1849   -5.2425  -14.8472 N.ar    1  UNL1       -0.3351
     21 C         -28.8651   -5.0825  -15.0271 C.ar    1  UNL1        0.0739
     22 C         -27.8085   -5.8727  -14.5485 C.ar    1  UNL1        0.0241
     23 H         -30.6847   -5.9875  -14.3137 H       1  UNL1        0.1675
     24 C         -28.0879   -7.1256  -13.7508 C.3     1  UNL1        0.1651
     25 O         -29.1820   -7.8085  -14.2976 O.3     1  UNL1       -0.3772
     26 H         -28.8525   -8.2578  -15.1196 H       1  UNL1        0.2109
     27 C         -20.6010  -10.3289  -10.3488 C.ar    1  UNL1        0.0503
     28 C         -19.4234  -11.0848  -10.1754 C.ar    1  UNL1        0.0328
     29 C         -18.4960  -10.7523   -9.1805 C.ar    1  UNL1        0.1069
     30 C         -18.7328   -9.6530   -8.3509 C.ar    1  UNL1        0.0186
     31 C         -19.8868   -8.8881   -8.5136 C.ar    1  UNL1        0.0071
     32 C         -20.8152   -9.2037   -9.5158 C.ar    1  UNL1        0.0667
     33 S         -17.0271  -11.7056   -8.9950 S.O2    1  UNL1        0.0105
     34 C         -16.7114  -11.9688   -7.2651 C.3     1  UNL1        0.1816
     35 O         -17.1843  -13.0331   -9.6824 O.2     1  UNL1       -0.1686
     36 O         -15.8686  -10.9757   -9.6147 O.2     1  UNL1       -0.1686
     37 N         -21.5923  -10.7099  -11.3301 N.pl3   1  UNL1       -0.3325
     38 H         -22.4908  -10.1802  -11.3834 H       1  UNL1        0.1468
     39 C         -22.6011  -11.8218  -13.2718 C.3     1  UNL1        0.0229
     40 C         -21.4307  -11.7971  -12.2952 C.3     1  UNL1        0.0871
@<TRIPOS>BOND
     1    39    40    1
     2    40    37    1
     3    37    27    1
     4    27    28   ar
     5    28    29   ar
     6    29    33    1
     7    33    34    1
     8    33    35    2
     9    33    36    2
    10    29    30   ar
    11    30    31   ar
    12    31    32   ar
    13    32     1    1
    14     1     2    2
    15     1     3   am
    16     3     4    1
    17     4     5    1
    18     5     6    1
    19     6     7    1
    20     7     8   ar
    21     8     9   ar
    22     9    10   ar
    23    10    14    1
    24    14    15   ar
    25    15    16   ar
    26    16    17   ar
    27    17    18   ar
    28    18    19   ar
    29    19    20   ar
    30    20    21   ar
    31    21    22   ar
    32    22    24    1
    33    24    25    1
    34    10    11   ar
    35    11    12   ar
    36    12    13    1
    37    32    27   ar
    38    13     3    1
    39    12     7   ar
    40    22    14   ar
    41    21    17   ar
    42    37    38    1
    43    20    23    1
    44    25    26    1
@<TRIPOS>MOLECULE
*****
 40 44 0 0 0
SMALL
GASTEIGER

@<TRIPOS>ATOM
      1 C         -22.0746   -9.5787  -13.2595 C.2     1  UNL1        0.2506
      2 O         -21.8020   -9.8730  -14.4550 O.2     1  UNL1       -0.2699
      3 N         -23.3478   -8.9843  -12.9368 N.am    1  UNL1       -0.2680
      4 C         -24.0473   -9.3725  -11.7075 C.3     1  UNL1        0.1412
      5 C         -23.9031   -8.2783  -10.6521 C.3     1  UNL1        0.2268
      6 O         -23.8484   -6.9815  -11.2437 O.3     1  UNL1       -0.4739
      7 C         -24.8064   -6.5291  -12.1534 C.ar    1  UNL1        0.1362
      8 C         -25.5996   -5.4363  -11.7876 C.ar    1  UNL1        0.0366
      9 C         -26.5933   -4.9632  -12.6441 C.ar    1  UNL1        0.0031
     10 C         -26.7996   -5.5751  -13.8853 C.ar    1  UNL1       -0.0002
     11 C         -25.9835   -6.6448  -14.2757 C.ar    1  UNL1        0.0004
     12 C         -24.9855   -7.1419  -13.4190 C.ar    1  UNL1        0.0317
     13 C         -24.0587   -8.2141  -13.9674 C.3     1  UNL1        0.1236
     14 C         -27.8382   -5.0664  -14.8004 C.ar    1  UNL1       -0.0002
     15 C         -29.1800   -5.4719  -14.5851 C.ar    1  UNL1        0.0014
     16 C         -30.2150   -5.0067  -15.4119 C.ar    1  UNL1        0.0206
     17 C         -29.8812   -4.1314  -16.4374 C.ar    1  UNL1        0.0983
     18 N         -30.7162   -3.5475  -17.3153 N.ar    1  UNL1       -0.2241
     19 C         -29.8819   -2.7798  -18.0620 C.ar    1  UNL1        0.1750
     20 N         -28.5853   -2.8650  -17.6820 N.ar    1  UNL1       -0.3351
     21 C         -28.5969   -3.7277  -16.6546 C.ar    1  UNL1        0.0739
     22 C         -27.5240   -4.1774  -15.8696 C.ar    1  UNL1        0.0241
     23 H         -27.7732   -2.3596  -18.0997 H       1  UNL1        0.1675
     24 C         -26.1290   -3.6428  -16.0985 C.3     1  UNL1        0.1651
     25 O         -26.1698   -2.2531  -16.2693 O.3     1  UNL1       -0.3772
     26 H         -26.3043   -1.8612  -15.3669 H       1  UNL1        0.2109
     27 C         -20.4567   -8.8305  -11.4716 C.ar    1  UNL1        0.0503
     28 C         -19.5617   -9.1791  -10.4391 C.ar    1  UNL1        0.0328
     29 C         -19.2673  -10.5203  -10.1658 C.ar    1  UNL1        0.1069
     30 C         -19.8717  -11.5307  -10.9186 C.ar    1  UNL1        0.0186
     31 C         -20.7665  -11.2056  -11.9370 C.ar    1  UNL1        0.0071
     32 C         -21.0792   -9.8663  -12.2099 C.ar    1  UNL1        0.0667
     33 S         -18.1563  -10.9276   -8.8617 S.O2    1  UNL1        0.0105
     34 C         -18.5226   -9.9221   -7.4417 C.3     1  UNL1        0.1816
     35 O         -18.2996  -12.3788   -8.4974 O.2     1  UNL1       -0.1686
     36 O         -16.7421  -10.6789   -9.3056 O.2     1  UNL1       -0.1686
     37 N         -20.7106   -7.4455  -11.8003 N.pl3   1  UNL1       -0.3325
     38 H         -20.9075   -7.1818  -12.7915 H       1  UNL1        0.1468
     39 C         -21.2979   -5.0863  -11.4640 C.3     1  UNL1        0.0229
     40 C         -20.7325   -6.3518  -10.8293 C.3     1  UNL1        0.0871
@<TRIPOS>BOND
     1    39    40    1
     2    40    37    1
     3    37    27    1
     4    27    28   ar
     5    28    29   ar
     6    29    33    1
     7    33    34    1
     8    33    35    2
     9    33    36    2
    10    29    30   ar
    11    30    31   ar
    12    31    32   ar
    13    32     1    1
    14     1     2    2
    15     1     3   am
    16     3     4    1
    17     4     5    1
    18     5     6    1
    19     6     7    1
    20     7     8   ar
    21     8     9   ar
    22     9    10   ar
    23    10    14    1
    24    14    15   ar
    25    15    16   ar
    26    16    17   ar
    27    17    18   ar
    28    18    19   ar
    29    19    20   ar
    30    20    21   ar
    31    21    22   ar
    32    22    24    1
    33    24    25    1
    34    10    11   ar
    35    11    12   ar
    36    12    13    1
    37    32    27   ar
    38    13     3    1
    39    12     7   ar
    40    22    14   ar
    41    21    17   ar
    42    37    38    1
    43    20    23    1
    44    25    26    1
@<TRIPOS>MOLECULE
*****
 40 44 0 0 0
SMALL
GASTEIGER

@<TRIPOS>ATOM
      1 C         -23.0532   -8.6634  -10.6661 C.2     1  UNL1        0.2506
      2 O         -24.1546   -9.2557  -10.5037 O.2     1  UNL1       -0.2699
      3 N         -22.8019   -7.9316  -11.8825 N.am    1  UNL1       -0.2680
      4 C         -22.0761   -6.6579  -11.8348 C.3     1  UNL1        0.1412
      5 C         -20.6407   -6.8520  -12.3187 C.3     1  UNL1        0.2268
      6 O         -20.5574   -7.8581  -13.3264 O.3     1  UNL1       -0.4739
      7 C         -21.3612   -7.8471  -14.4682 C.ar    1  UNL1        0.1362
      8 C         -20.7383   -7.6999  -15.7123 C.ar    1  UNL1        0.0366
      9 C         -21.4951   -7.6498  -16.8826 C.ar    1  UNL1        0.0031
     10 C         -22.8889   -7.7559  -16.8220 C.ar    1  UNL1       -0.0002
     11 C         -23.5174   -7.9430  -15.5839 C.ar    1  UNL1        0.0004
     12 C         -22.7702   -7.9832  -14.3935 C.ar    1  UNL1        0.0317
     13 C         -23.5106   -8.3208  -13.1101 C.3     1  UNL1        0.1236
     14 C         -23.6908   -7.7205  -18.0592 C.ar    1  UNL1       -0.0002
     15 C         -24.3185   -6.5004  -18.4179 C.ar    1  UNL1        0.0014
     16 C         -25.0798   -6.3999  -19.5933 C.ar    1  UNL1        0.0206
     17 C         -25.1877   -7.5297  -20.3939 C.ar    1  UNL1        0.0983
     18 N         -25.8364   -7.6390  -21.5670 N.ar    1  UNL1       -0.2241
     19 C         -25.5973   -8.9261  -21.9264 C.ar    1  UNL1        0.1750
     20 N         -24.8357   -9.6028  -21.0348 N.ar    1  UNL1       -0.3351
     21 C         -24.5861   -8.7087  -20.0661 C.ar    1  UNL1        0.0739
     22 C         -23.8304   -8.8675  -18.8941 C.ar    1  UNL1        0.0241
     23 H         -24.5165  -10.5940  -21.1051 H       1  UNL1        0.1675
     24 C         -23.1182  -10.1700  -18.6112 C.3     1  UNL1        0.1651
     25 O         -23.4942  -11.1369  -19.5525 O.3     1  UNL1       -0.3772
     26 H         -23.0139  -10.9150  -20.3928 H       1  UNL1        0.2109
     27 C         -20.7728   -9.3086   -9.7957 C.ar    1  UNL1        0.0503
     28 C         -19.8351   -9.2753   -8.7430 C.ar    1  UNL1        0.0328
     29 C         -20.1621   -8.7042   -7.5072 C.ar    1  UNL1        0.1069
     30 C         -21.4309   -8.1518   -7.3122 C.ar    1  UNL1        0.0186
     31 C         -22.3678   -8.1668   -8.3443 C.ar    1  UNL1        0.0071
     32 C         -22.0461   -8.7236   -9.5903 C.ar    1  UNL1        0.0667
     33 S         -18.9672   -8.6640   -6.2145 S.O2    1  UNL1        0.0105
     34 C         -19.7795   -8.9248   -4.6545 C.3     1  UNL1        0.1816
     35 O         -17.9395   -9.7398   -6.4293 O.2     1  UNL1       -0.1686
     36 O         -18.2747   -7.3301   -6.2067 O.2     1  UNL1       -0.1686
     37 N         -20.4613   -9.9575  -11.0497 N.pl3   1  UNL1       -0.3325
     38 H         -20.0959   -9.3875  -11.8449 H       1  UNL1        0.1468
     39 C         -21.5073  -11.6359  -12.5033 C.3     1  UNL1        0.0229
     40 C         -20.6029  -11.3916  -11.3005 C.3     1  UNL1        0.0871
@<TRIPOS>BOND
     1    39    40    1
     2    40    37    1
     3    37    27    1
     4    27    28   ar
     5    28    29   ar
     6    29    33    1
     7    33    34    1
     8    33    35    2
     9    33    36    2
    10    29    30   ar
    11    30    31   ar
    12    31    32   ar
    13    32     1    1
    14     1     2    2
    15     1     3   am
    16     3     4    1
    17     4     5    1
    18     5     6    1
    19     6     7    1
    20     7     8   ar
    21     8     9   ar
    22     9    10   ar
    23    10    14    1
    24    14    15   ar
    25    15    16   ar
    26    16    17   ar
    27    17    18   ar
    28    18    19   ar
    29    19    20   ar
    30    20    21   ar
    31    21    22   ar
    32    22    24    1
    33    24    25    1
    34    10    11   ar
    35    11    12   ar
    36    12    13    1
    37    32    27   ar
    38    13     3    1
    39    12     7   ar
    40    22    14   ar
    41    21    17   ar
    42    37    38    1
    43    20    23    1
    44    25    26    1
@<TRIPOS>MOLECULE
*****
 40 44 0 0 0
SMALL
GASTEIGER

@<TRIPOS>ATOM
      1 C         -21.6986  -10.3116  -12.8574 C.2     1  UNL1        0.2506
      2 O         -21.5376  -10.7227  -14.0386 O.2     1  UNL1       -0.2699
      3 N         -22.8405   -9.4953  -12.5286 N.am    1  UNL1       -0.2680
      4 C         -23.5313   -9.6832  -11.2485 C.3     1  UNL1        0.1412
      5 C         -23.1586   -8.5628  -10.2800 C.3     1  UNL1        0.2268
      6 O         -22.9236   -7.3334  -10.9642 O.3     1  UNL1       -0.4739
      7 C         -23.8397   -6.7877  -11.8658 C.ar    1  UNL1        0.1362
      8 C         -24.4255   -5.5575  -11.5481 C.ar    1  UNL1        0.0366
      9 C         -25.3708   -4.9822  -12.3967 C.ar    1  UNL1        0.0031
     10 C         -25.7356   -5.6295  -13.5823 C.ar    1  UNL1       -0.0002
     11 C         -25.1248   -6.8422  -13.9270 C.ar    1  UNL1        0.0004
     12 C         -24.1792   -7.4419  -13.0766 C.ar    1  UNL1        0.0317
     13 C         -23.4675   -8.6855  -13.5829 C.3     1  UNL1        0.1236
     14 C         -26.7223   -5.0154  -14.4902 C.ar    1  UNL1       -0.0002
     15 C         -26.2881   -3.9725  -15.3475 C.ar    1  UNL1        0.0014
     16 C         -27.1768   -3.3614  -16.2465 C.ar    1  UNL1        0.0206
     17 C         -28.4878   -3.8193  -16.2736 C.ar    1  UNL1        0.0983
     18 N         -29.4824   -3.3978  -17.0747 N.ar    1  UNL1       -0.2241
     19 C         -30.5222   -4.1904  -16.7092 C.ar    1  UNL1        0.1750
     20 N         -30.2103   -5.0723  -15.7305 N.ar    1  UNL1       -0.3351
     21 C         -28.9199   -4.8246  -15.4598 C.ar    1  UNL1        0.0739
     22 C         -28.0777   -5.4553  -14.5310 C.ar    1  UNL1        0.0241
     23 H         -30.8417   -5.7839  -15.3009 H       1  UNL1        0.1675
     24 C         -28.5802   -6.6168  -13.7049 C.3     1  UNL1        0.1651
     25 O         -29.2475   -7.5357  -14.5250 O.3     1  UNL1       -0.3772
     26 H         -28.5459   -8.0332  -15.0212 H       1  UNL1        0.2109
     27 C         -20.3309  -12.0415  -11.6282 C.ar    1  UNL1        0.0503
     28 C         -19.3352  -12.3280  -10.6717 C.ar    1  UNL1        0.0328
     29 C         -18.7536  -11.3060   -9.9117 C.ar    1  UNL1        0.1069
     30 C         -19.1569   -9.9820  -10.1054 C.ar    1  UNL1        0.0186
     31 C         -20.1330   -9.6785  -11.0532 C.ar    1  UNL1        0.0071
     32 C         -20.7119  -10.6924  -11.8296 C.ar    1  UNL1        0.0667
     33 S         -17.5026  -11.6906   -8.7337 S.O2    1  UNL1        0.0105
     34 C         -17.8177  -10.7980   -7.2286 C.3     1  UNL1        0.1816
     35 O         -17.4996  -13.1665   -8.4488 O.2     1  UNL1       -0.1686
     36 O         -16.1571  -11.3019   -9.2794 O.2     1  UNL1       -0.1686
     37 N         -20.9810  -13.1015  -12.3662 N.pl3   1  UNL1       -0.3325
     38 H         -21.9297  -13.4240  -12.0716 H       1  UNL1        0.1468
     39 C         -21.4551  -13.8908  -14.6413 C.3     1  UNL1        0.0229
     40 C         -20.4116  -13.7689  -13.5366 C.3     1  UNL1        0.0871
@<TRIPOS>BOND
     1    39    40    1
     2    40    37    1
     3    37    27    1
     4    27    28   ar
     5    28    29   ar
     6    29    33    1
     7    33    34    1
     8    33    35    2
     9    33    36    2
    10    29    30   ar
    11    30    31   ar
    12    31    32   ar
    13    32     1    1
    14     1     2    2
    15     1     3   am
    16     3     4    1
    17     4     5    1
    18     5     6    1
    19     6     7    1
    20     7     8   ar
    21     8     9   ar
    22     9    10   ar
    23    10    14    1
    24    14    15   ar
    25    15    16   ar
    26    16    17   ar
    27    17    18   ar
    28    18    19   ar
    29    19    20   ar
    30    20    21   ar
    31    21    22   ar
    32    22    24    1
    33    24    25    1
    34    10    11   ar
    35    11    12   ar
    36    12    13    1
    37    32    27   ar
    38    13     3    1
    39    12     7   ar
    40    22    14   ar
    41    21    17   ar
    42    37    38    1
    43    20    23    1
    44    25    26    1
@<TRIPOS>MOLECULE
*****
 40 44 0 0 0
SMALL
GASTEIGER

@<TRIPOS>ATOM
      1 C         -23.1947   -9.6362  -10.9016 C.2     1  UNL1        0.2506
      2 O         -24.0633  -10.5481  -10.8364 O.2     1  UNL1       -0.2699
      3 N         -23.0806   -8.8347  -12.0945 N.am    1  UNL1       -0.2680
      4 C         -22.7999   -7.3990  -11.9885 C.3     1  UNL1        0.1412
      5 C         -21.3398   -7.1211  -12.3389 C.3     1  UNL1        0.2268
      6 O         -20.8554   -8.0267  -13.3289 O.3     1  UNL1       -0.4739
      7 C         -21.5180   -8.2423  -14.5391 C.ar    1  UNL1        0.1362
      8 C         -20.8661   -7.8783  -15.7223 C.ar    1  UNL1        0.0366
      9 C         -21.4941   -8.0416  -16.9567 C.ar    1  UNL1        0.0031
     10 C         -22.7831   -8.5815  -17.0224 C.ar    1  UNL1       -0.0002
     11 C         -23.4271   -8.9850  -15.8454 C.ar    1  UNL1        0.0004
     12 C         -22.8132   -8.8158  -14.5918 C.ar    1  UNL1        0.0317
     13 C         -23.5196   -9.3984  -13.3790 C.3     1  UNL1        0.1236
     14 C         -23.4431   -8.7712  -18.3275 C.ar    1  UNL1       -0.0002
     15 C         -23.3490  -10.0424  -18.9491 C.ar    1  UNL1        0.0014
     16 C         -23.9715  -10.2892  -20.1832 C.ar    1  UNL1        0.0206
     17 C         -24.6880   -9.2519  -20.7662 C.ar    1  UNL1        0.0983
     18 N         -25.3801   -9.2859  -21.9189 N.ar    1  UNL1       -0.2241
     19 C         -25.9022   -8.0351  -21.9955 C.ar    1  UNL1        0.1750
     20 N         -25.5656   -7.2448  -20.9491 N.ar    1  UNL1       -0.3351
     21 C         -24.7926   -8.0255  -20.1792 C.ar    1  UNL1        0.0739
     22 C         -24.1744   -7.7215  -18.9564 C.ar    1  UNL1        0.0241
     23 H         -25.8578   -6.2557  -20.7888 H       1  UNL1        0.1675
     24 C         -24.3822   -6.3732  -18.3061 C.3     1  UNL1        0.1651
     25 O         -24.5672   -5.3907  -19.2873 O.3     1  UNL1       -0.3772
     26 H         -25.4919   -5.5047  -19.6305 H       1  UNL1        0.2109
     27 C         -20.9285   -9.6669   -9.7892 C.ar    1  UNL1        0.0503
     28 C         -20.1395   -9.3599   -8.6616 C.ar    1  UNL1        0.0328
     29 C         -20.7188   -8.8322   -7.5013 C.ar    1  UNL1        0.1069
     30 C         -22.0959   -8.5980   -7.4582 C.ar    1  UNL1        0.0186
     31 C         -22.8906   -8.8863   -8.5666 C.ar    1  UNL1        0.0071
     32 C         -22.3188   -9.4018   -9.7385 C.ar    1  UNL1        0.0667
     33 S         -19.7078   -8.4453   -6.1125 S.O2    1  UNL1        0.0105
     34 C         -18.3041   -9.5363   -6.0848 C.3     1  UNL1        0.1816
     35 O         -19.2332   -7.0218   -6.2015 O.2     1  UNL1       -0.1686
     36 O         -20.5014   -8.6109   -4.8469 O.2     1  UNL1       -0.1686
     37 N         -20.3436  -10.2746  -10.9637 N.pl3   1  UNL1       -0.3325
     38 H         -20.0150   -9.6657  -11.7460 H       1  UNL1        0.1468
     39 C         -20.9586  -12.2109  -12.3408 C.3     1  UNL1        0.0229
     40 C         -20.1521  -11.7131  -11.1467 C.3     1  UNL1        0.0871
@<TRIPOS>BOND
     1    39    40    1
     2    40    37    1
     3    37    27    1
     4    27    28   ar
     5    28    29   ar
     6    29    33    1
     7    33    34    1
     8    33    35    2
     9    33    36    2
    10    29    30   ar
    11    30    31   ar
    12    31    32   ar
    13    32     1    1
    14     1     2    2
    15     1     3   am
    16     3     4    1
    17     4     5    1
    18     5     6    1
    19     6     7    1
    20     7     8   ar
    21     8     9   ar
    22     9    10   ar
    23    10    14    1
    24    14    15   ar
    25    15    16   ar
    26    16    17   ar
    27    17    18   ar
    28    18    19   ar
    29    19    20   ar
    30    20    21   ar
    31    21    22   ar
    32    22    24    1
    33    24    25    1
    34    10    11   ar
    35    11    12   ar
    36    12    13    1
    37    32    27   ar
    38    13     3    1
    39    12     7   ar
    40    22    14   ar
    41    21    17   ar
    42    37    38    1
    43    20    23    1
    44    25    26    1
@<TRIPOS>MOLECULE
*****
 40 44 0 0 0
SMALL
GASTEIGER

@<TRIPOS>ATOM
      1 C         -22.6068   -8.2149   -9.6330 C.2     1  UNL1        0.2506
      2 O         -23.4589   -8.2080   -8.7035 O.2     1  UNL1       -0.2699
      3 N         -22.8514   -7.4645  -10.8394 N.am    1  UNL1       -0.2680
      4 C         -21.7491   -6.7551  -11.4975 C.3     1  UNL1        0.1412
      5 C         -21.2945   -7.5231  -12.7366 C.3     1  UNL1        0.2268
      6 O         -22.3817   -8.2027  -13.3618 O.3     1  UNL1       -0.4739
      7 C         -23.5704   -7.5583  -13.7105 C.ar    1  UNL1        0.1362
      8 C         -23.9047   -7.4789  -15.0667 C.ar    1  UNL1        0.0366
      9 C         -25.0637   -6.8186  -15.4737 C.ar    1  UNL1        0.0031
     10 C         -25.9096   -6.2357  -14.5238 C.ar    1  UNL1       -0.0002
     11 C         -25.6024   -6.3449  -13.1613 C.ar    1  UNL1        0.0004
     12 C         -24.4316   -6.9963  -12.7349 C.ar    1  UNL1        0.0317
     13 C         -24.2383   -7.1871  -11.2397 C.3     1  UNL1        0.1236
     14 C         -27.1447   -5.5516  -14.9498 C.ar    1  UNL1       -0.0002
     15 C         -28.3808   -6.0104  -14.4274 C.ar    1  UNL1        0.0014
     16 C         -29.5884   -5.3880  -14.7817 C.ar    1  UNL1        0.0206
     17 C         -29.5290   -4.3056  -15.6500 C.ar    1  UNL1        0.0983
     18 N         -30.5549   -3.5537  -16.0874 N.ar    1  UNL1       -0.2241
     19 C         -29.9412   -2.6313  -16.8719 C.ar    1  UNL1        0.1750
     20 N         -28.5971   -2.7821  -16.9317 N.ar    1  UNL1       -0.3351
     21 C         -28.3484   -3.8487  -16.1569 C.ar    1  UNL1        0.0739
     22 C         -27.1163   -4.4465  -15.8498 C.ar    1  UNL1        0.0241
     23 H         -27.9207   -2.1878  -17.4596 H       1  UNL1        0.1675
     24 C         -25.8265   -3.8581  -16.3736 C.3     1  UNL1        0.1651
     25 O         -25.8138   -2.4722  -16.1700 O.3     1  UNL1       -0.3772
     26 H         -25.6299   -2.3300  -15.2046 H       1  UNL1        0.2109
     27 C         -21.0392  -10.0805  -10.2936 C.ar    1  UNL1        0.0503
     28 C         -19.8039  -10.7343  -10.1070 C.ar    1  UNL1        0.0328
     29 C         -18.9249  -10.3342   -9.0933 C.ar    1  UNL1        0.1069
     30 C         -19.2689   -9.2682   -8.2577 C.ar    1  UNL1        0.0186
     31 C         -20.4816   -8.6035   -8.4331 C.ar    1  UNL1        0.0071
     32 C         -21.3629   -8.9869   -9.4540 C.ar    1  UNL1        0.0667
     33 S         -17.3827  -11.1597   -8.8915 S.O2    1  UNL1        0.0105
     34 C         -17.5344  -12.8369   -9.4619 C.3     1  UNL1        0.1816
     35 O         -16.3149  -10.4570   -9.6825 O.2     1  UNL1       -0.1686
     36 O         -16.9912  -11.1530   -7.4404 O.2     1  UNL1       -0.1686
     37 N         -21.9779  -10.5347  -11.2952 N.pl3   1  UNL1       -0.3325
     38 H         -22.9430  -10.1360  -11.3115 H       1  UNL1        0.1468
     39 C         -22.8594  -11.6850  -13.2761 C.3     1  UNL1        0.0229
     40 C         -21.6750  -11.5233  -12.3299 C.3     1  UNL1        0.0871
@<TRIPOS>BOND
     1    39    40    1
     2    40    37    1
     3    37    27    1
     4    27    28   ar
     5    28    29   ar
     6    29    33    1
     7    33    34    1
     8    33    35    2
     9    33    36    2
    10    29    30   ar
    11    30    31   ar
    12    31    32   ar
    13    32     1    1
    14     1     2    2
    15     1     3   am
    16     3     4    1
    17     4     5    1
    18     5     6    1
    19     6     7    1
    20     7     8   ar
    21     8     9   ar
    22     9    10   ar
    23    10    14    1
    24    14    15   ar
    25    15    16   ar
    26    16    17   ar
    27    17    18   ar
    28    18    19   ar
    29    19    20   ar
    30    20    21   ar
    31    21    22   ar
    32    22    24    1
    33    24    25    1
    34    10    11   ar
    35    11    12   ar
    36    12    13    1
    37    32    27   ar
    38    13     3    1
    39    12     7   ar
    40    22    14   ar
    41    21    17   ar
    42    37    38    1
    43    20    23    1
    44    25    26    1
@<TRIPOS>MOLECULE
*****
 40 44 0 0 0
SMALL
GASTEIGER

@<TRIPOS>ATOM
      1 C         -21.9690   -8.4118   -9.5474 C.2     1  UNL1        0.2506
      2 O         -22.7763   -8.3993   -8.5788 O.2     1  UNL1       -0.2699
      3 N         -22.2765   -7.6792  -10.7503 N.am    1  UNL1       -0.2680
      4 C         -21.2123   -6.9700  -11.4686 C.3     1  UNL1        0.1412
      5 C         -20.8102   -7.7506  -12.7180 C.3     1  UNL1        0.2268
      6 O         -21.9199   -8.4467  -13.2825 O.3     1  UNL1       -0.4739
      7 C         -23.1291   -7.8162  -13.5828 C.ar    1  UNL1        0.1362
      8 C         -23.5276   -7.7571  -14.9226 C.ar    1  UNL1        0.0366
      9 C         -24.7100   -7.1112  -15.2828 C.ar    1  UNL1        0.0031
     10 C         -25.5150   -6.5225  -14.3015 C.ar    1  UNL1       -0.0002
     11 C         -25.1431   -6.6114  -12.9537 C.ar    1  UNL1        0.0004
     12 C         -23.9480   -7.2481  -12.5748 C.ar    1  UNL1        0.0317
     13 C         -23.6829   -7.4178  -11.0881 C.3     1  UNL1        0.1236
     14 C         -26.7745   -5.8536  -14.6773 C.ar    1  UNL1       -0.0002
     15 C         -27.9874   -6.3550  -14.1401 C.ar    1  UNL1        0.0014
     16 C         -29.2164   -5.7493  -14.4467 C.ar    1  UNL1        0.0206
     17 C         -29.2013   -4.6405  -15.2830 C.ar    1  UNL1        0.0983
     18 N         -30.2534   -3.8990  -15.6731 N.ar    1  UNL1       -0.2241
     19 C         -29.6789   -2.9402  -16.4437 C.ar    1  UNL1        0.1750
     20 N         -28.3337   -3.0592  -16.5396 N.ar    1  UNL1       -0.3351
     21 C         -28.0434   -4.1427  -15.8036 C.ar    1  UNL1        0.0739
     22 C         -26.7916   -4.7218  -15.5438 C.ar    1  UNL1        0.0241
     23 H         -27.6832   -2.4346  -17.0651 H       1  UNL1        0.1675
     24 C         -25.5279   -4.0896  -16.0798 C.3     1  UNL1        0.1651
     25 O         -25.6897   -2.7015  -16.1771 O.3     1  UNL1       -0.3772
     26 H         -25.6230   -2.3438  -15.2532 H       1  UNL1        0.2109
     27 C         -19.8254   -8.9632   -8.3327 C.ar    1  UNL1        0.0503
     28 C         -18.6724   -9.7691   -8.2364 C.ar    1  UNL1        0.0328
     29 C         -18.3885  -10.7365   -9.2079 C.ar    1  UNL1        0.1069
     30 C         -19.2607  -10.9145  -10.2852 C.ar    1  UNL1        0.0186
     31 C         -20.4106  -10.1337  -10.3921 C.ar    1  UNL1        0.0071
     32 C         -20.7117   -9.1718   -9.4175 C.ar    1  UNL1        0.0667
     33 S         -16.9485  -11.7383   -9.0554 S.O2    1  UNL1        0.0105
     34 C         -16.6144  -12.0297   -7.3336 C.3     1  UNL1        0.1816
     35 O         -17.1593  -13.0528   -9.7534 O.2     1  UNL1       -0.1686
     36 O         -15.7768  -11.0396   -9.6863 O.2     1  UNL1       -0.1686
     37 N         -20.0858   -7.9181   -7.3680 N.pl3   1  UNL1       -0.3325
     38 H         -20.9003   -7.2801   -7.5106 H       1  UNL1        0.1468
     39 C         -19.7824   -8.5616   -5.0189 C.3     1  UNL1        0.0229
     40 C         -19.2902   -7.6827   -6.1633 C.3     1  UNL1        0.0871
@<TRIPOS>BOND
     1    39    40    1
     2    40    37    1
     3    37    27    1
     4    27    28   ar
     5    28    29   ar
     6    29    33    1
     7    33    34    1
     8    33    35    2
     9    33    36    2
    10    29    30   ar
    11    30    31   ar
    12    31    32   ar
    13    32     1    1
    14     1     2    2
    15     1     3   am
    16     3     4    1
    17     4     5    1
    18     5     6    1
    19     6     7    1
    20     7     8   ar
    21     8     9   ar
    22     9    10   ar
    23    10    14    1
    24    14    15   ar
    25    15    16   ar
    26    16    17   ar
    27    17    18   ar
    28    18    19   ar
    29    19    20   ar
    30    20    21   ar
    31    21    22   ar
    32    22    24    1
    33    24    25    1
    34    10    11   ar
    35    11    12   ar
    36    12    13    1
    37    32    27   ar
    38    13     3    1
    39    12     7   ar
    40    22    14   ar
    41    21    17   ar
    42    37    38    1
    43    20    23    1
    44    25    26    1
