@<TRIPOS>MOLECULE
*****
 48 53 0 0 0
SMALL
GASTEIGER

@<TRIPOS>ATOM
      1 C         -63.7297  -49.0708  -25.2153 C.2     1  UNL1        0.2839
      2 O         -64.7211  -48.7256  -24.5177 O.2     1  UNL1       -0.2665
      3 N         -63.2093  -50.4069  -25.1227 N.am    1  UNL1       -0.2766
      4 H         -62.2349  -50.5779  -25.4606 H       1  UNL1        0.1553
      5 C         -63.7581  -49.0468  -28.4195 C.3     1  UNL1        0.0345
      6 C         -63.0884  -48.0717  -27.4984 C.ar    1  UNL1        0.0202
      7 C         -63.0742  -48.0903  -26.1012 C.ar    1  UNL1        0.1946
      8 O         -62.3617  -47.0772  -25.6446 O.2     1  UNL1       -0.4490
      9 C         -61.9120  -46.3944  -26.6708 C.ar    1  UNL1        0.1514
     10 C         -61.1042  -45.2506  -26.6536 C.ar    1  UNL1        0.1099
     11 C         -60.7068  -44.7223  -27.9028 C.ar    1  UNL1        0.0095
     12 C         -61.1316  -45.3140  -29.1216 C.ar    1  UNL1        0.0004
     13 C         -61.9577  -46.4594  -29.0866 C.ar    1  UNL1        0.0028
     14 C         -62.3255  -46.9721  -27.8438 C.ar    1  UNL1        0.0339
     15 C         -60.7102  -44.7360  -30.4228 C.ar    1  UNL1        0.0000
     16 C         -61.5896  -43.9230  -31.1630 C.ar    1  UNL1        0.0000
     17 C         -61.1902  -43.3798  -32.3879 C.ar    1  UNL1        0.0000
     18 C         -59.9119  -43.6399  -32.8866 C.ar    1  UNL1        0.0000
     19 C         -59.0299  -44.4440  -32.1614 C.ar    1  UNL1        0.0000
     20 C         -59.4242  -44.9906  -30.9363 C.ar    1  UNL1        0.0000
     21 C         -60.6467  -44.6246  -25.3916 C.2     1  UNL1        0.3410
     22 O         -60.5160  -43.3733  -25.3284 O.2     1  UNL1       -0.2450
     23 O         -60.3761  -45.3821  -24.2532 O.3     1  UNL1       -0.4770
     24 H         -60.5812  -46.3712  -24.1987 H       1  UNL1        0.2954
     25 C         -63.9001  -51.4978  -24.4900 C.ar    1  UNL1        0.0702
     26 C         -63.2652  -52.2250  -23.4759 C.ar    1  UNL1        0.0191
     27 C         -63.9148  -53.3007  -22.8691 C.ar    1  UNL1        0.0356
     28 C         -65.2055  -53.6549  -23.2887 C.ar    1  UNL1        0.1318
     29 N         -65.7901  -52.9588  -24.3032 N.ar    1  UNL1       -0.2279
     30 C         -65.1781  -51.9056  -24.9064 C.ar    1  UNL1        0.1149
     31 N         -65.8963  -54.7679  -22.6917 N.pl3   1  UNL1       -0.2932
     32 C         -65.3304  -55.4198  -21.5037 C.3     1  UNL1        0.0923
     33 C         -66.4513  -55.8799  -20.5651 C.3     1  UNL1        0.0252
     34 C         -67.4905  -56.7292  -21.3228 C.3     1  UNL1        0.0472
     35 C         -68.0518  -55.9394  -22.5198 C.3     1  UNL1        0.0252
     36 C         -66.9199  -55.4997  -23.4514 C.3     1  UNL1        0.0923
     37 C         -68.5991  -57.2343  -20.3770 C.3     1  UNL1        0.2054
     38 O         -68.6976  -56.4433  -19.1888 O.3     1  UNL1       -0.4755
     39 C         -69.7389  -55.5630  -18.8480 C.ar    1  UNL1        0.1388
     40 C         -70.1732  -54.6613  -19.8254 C.ar    1  UNL1        0.0369
     41 C         -71.2066  -53.7633  -19.5554 C.ar    1  UNL1        0.0033
     42 C         -71.8181  -53.7542  -18.3008 C.ar    1  UNL1        0.0066
     43 C         -71.3968  -54.6453  -17.2987 C.ar    1  UNL1        0.0785
     44 C         -70.3515  -55.5450  -17.5777 C.ar    1  UNL1        0.0433
     45 C         -72.0438  -54.6403  -15.9674 C.2     1  UNL1        0.3381
     46 O         -73.2144  -55.0865  -15.8245 O.2     1  UNL1       -0.2451
     47 O         -71.3645  -54.1435  -14.8577 O.3     1  UNL1       -0.4771
     48 H         -71.7981  -54.1364  -13.9422 H       1  UNL1        0.2954
@<TRIPOS>BOND
     1     5     6    1
     2     6     7   ar
     3     7     1    1
     4     1     2    2
     5     1     3   am
     6     3    25    1
     7    25    26   ar
     8    26    27   ar
     9    27    28   ar
    10    28    31    1
    11    31    32    1
    12    32    33    1
    13    33    34    1
    14    34    37    1
    15    37    38    1
    16    38    39    1
    17    39    40   ar
    18    40    41   ar
    19    41    42   ar
    20    42    43   ar
    21    43    45    1
    22    45    46    2
    23    45    47    1
    24    43    44   ar
    25    34    35    1
    26    35    36    1
    27    28    29   ar
    28    29    30   ar
    29     7     8   ar
    30     8     9   ar
    31     9    10   ar
    32    10    21    1
    33    21    22    2
    34    21    23    1
    35    10    11   ar
    36    11    12   ar
    37    12    15    1
    38    15    16   ar
    39    16    17   ar
    40    17    18   ar
    41    18    19   ar
    42    19    20   ar
    43    12    13   ar
    44    13    14   ar
    45    14     6   ar
    46    30    25   ar
    47    14     9   ar
    48    36    31    1
    49    20    15   ar
    50    44    39   ar
    51     3     4    1
    52    47    48    1
    53    23    24    1
@<TRIPOS>MOLECULE
*****
 48 53 0 0 0
SMALL
GASTEIGER

@<TRIPOS>ATOM
      1 C         -63.8110  -49.1774  -25.2024 C.2     1  UNL1        0.2839
      2 O         -64.7796  -48.8567  -24.4623 O.2     1  UNL1       -0.2665
      3 N         -63.2824  -50.5130  -25.1649 N.am    1  UNL1       -0.2766
      4 H         -62.3194  -50.6696  -25.5402 H       1  UNL1        0.1553
      5 C         -63.8520  -49.1265  -28.4060 C.3     1  UNL1        0.0345
      6 C         -63.2097  -48.1389  -27.4787 C.ar    1  UNL1        0.0202
      7 C         -63.1897  -48.1692  -26.0818 C.ar    1  UNL1        0.1946
      8 O         -62.5076  -47.1383  -25.6188 O.2     1  UNL1       -0.4490
      9 C         -62.0832  -46.4329  -26.6405 C.ar    1  UNL1        0.1514
     10 C         -61.3115  -45.2646  -26.6160 C.ar    1  UNL1        0.1099
     11 C         -60.9354  -44.7134  -27.8619 C.ar    1  UNL1        0.0095
     12 C         -61.3460  -45.3075  -29.0843 C.ar    1  UNL1        0.0004
     13 C         -62.1358  -46.4784  -29.0566 C.ar    1  UNL1        0.0028
     14 C         -62.4828  -47.0131  -27.8170 C.ar    1  UNL1        0.0339
     15 C         -60.9477  -44.7053  -30.3819 C.ar    1  UNL1        0.0000
     16 C         -59.6558  -44.9140  -30.9011 C.ar    1  UNL1        0.0000
     17 C         -59.2834  -44.3458  -32.1232 C.ar    1  UNL1        0.0000
     18 C         -60.1936  -43.5660  -32.8400 C.ar    1  UNL1        0.0000
     19 C         -61.4785  -43.3524  -32.3361 C.ar    1  UNL1        0.0000
     20 C         -61.8561  -43.9173  -31.1141 C.ar    1  UNL1        0.0000
     21 C         -60.8691  -44.6356  -25.3501 C.2     1  UNL1        0.3410
     22 O         -60.3726  -43.4781  -25.3699 O.2     1  UNL1       -0.2450
     23 O         -61.0079  -45.2814  -24.1226 O.3     1  UNL1       -0.4770
     24 H         -61.5109  -46.1532  -24.0225 H       1  UNL1        0.2954
     25 C         -63.9472  -51.6246  -24.5403 C.ar    1  UNL1        0.0702
     26 C         -64.8804  -52.3721  -25.2688 C.ar    1  UNL1        0.0191
     27 C         -65.5501  -53.4390  -24.6683 C.ar    1  UNL1        0.0356
     28 C         -65.2889  -53.7520  -23.3263 C.ar    1  UNL1        0.1318
     29 N         -64.4060  -52.9882  -22.6242 N.ar    1  UNL1       -0.2279
     30 C         -63.7396  -51.9467  -23.1890 C.ar    1  UNL1        0.1149
     31 N         -65.9735  -54.8380  -22.6748 N.pl3   1  UNL1       -0.2932
     32 C         -65.3617  -55.4839  -21.5065 C.3     1  UNL1        0.0923
     33 C         -66.4425  -55.9012  -20.5030 C.3     1  UNL1        0.0252
     34 C         -67.5396  -56.7372  -21.1908 C.3     1  UNL1        0.0472
     35 C         -68.1440  -55.9537  -22.3708 C.3     1  UNL1        0.0252
     36 C         -67.0523  -55.5569  -23.3674 C.3     1  UNL1        0.0923
     37 C         -68.6087  -57.1997  -20.1801 C.3     1  UNL1        0.2054
     38 O         -68.9942  -56.1527  -19.2842 O.3     1  UNL1       -0.4755
     39 C         -68.7316  -56.0864  -17.9050 C.ar    1  UNL1        0.1388
     40 C         -69.7619  -56.4459  -17.0296 C.ar    1  UNL1        0.0369
     41 C         -69.5669  -56.4080  -15.6484 C.ar    1  UNL1        0.0033
     42 C         -68.3372  -56.0067  -15.1243 C.ar    1  UNL1        0.0066
     43 C         -67.2872  -55.6343  -15.9814 C.ar    1  UNL1        0.0785
     44 C         -67.4931  -55.6714  -17.3728 C.ar    1  UNL1        0.0433
     45 C         -65.9808  -55.2097  -15.4299 C.2     1  UNL1        0.3381
     46 O         -65.9016  -54.1966  -14.6833 O.2     1  UNL1       -0.2451
     47 O         -64.8250  -55.9267  -15.7293 O.3     1  UNL1       -0.4771
     48 H         -63.9263  -55.6448  -15.3562 H       1  UNL1        0.2954
@<TRIPOS>BOND
     1     5     6    1
     2     6     7   ar
     3     7     1    1
     4     1     2    2
     5     1     3   am
     6     3    25    1
     7    25    26   ar
     8    26    27   ar
     9    27    28   ar
    10    28    31    1
    11    31    32    1
    12    32    33    1
    13    33    34    1
    14    34    37    1
    15    37    38    1
    16    38    39    1
    17    39    40   ar
    18    40    41   ar
    19    41    42   ar
    20    42    43   ar
    21    43    45    1
    22    45    46    2
    23    45    47    1
    24    43    44   ar
    25    34    35    1
    26    35    36    1
    27    28    29   ar
    28    29    30   ar
    29     7     8   ar
    30     8     9   ar
    31     9    10   ar
    32    10    21    1
    33    21    22    2
    34    21    23    1
    35    10    11   ar
    36    11    12   ar
    37    12    15    1
    38    15    16   ar
    39    16    17   ar
    40    17    18   ar
    41    18    19   ar
    42    19    20   ar
    43    12    13   ar
    44    13    14   ar
    45    14     6   ar
    46    30    25   ar
    47    14     9   ar
    48    36    31    1
    49    20    15   ar
    50    44    39   ar
    51     3     4    1
    52    47    48    1
    53    23    24    1
@<TRIPOS>MOLECULE
*****
 48 53 0 0 0
SMALL
GASTEIGER

@<TRIPOS>ATOM
      1 C         -71.9350  -55.6850  -22.9800 C.2     1  UNL1        0.2839
      2 O         -71.1845  -54.9754  -22.2576 O.2     1  UNL1       -0.2665
      3 N         -72.9827  -56.4682  -22.3855 N.am    1  UNL1       -0.2766
      4 H         -73.3787  -57.2599  -22.9416 H       1  UNL1        0.1553
      5 C         -74.1153  -56.3399  -25.2351 C.3     1  UNL1        0.0345
      6 C         -72.6620  -56.0241  -25.4251 C.ar    1  UNL1        0.0202
      7 C         -71.7139  -55.7451  -24.4372 C.ar    1  UNL1        0.1946
      8 O         -70.5340  -55.5374  -24.9914 O.2     1  UNL1       -0.4490
      9 C         -70.6618  -55.6625  -26.2912 C.ar    1  UNL1        0.1514
     10 C         -69.6659  -55.5381  -27.2678 C.ar    1  UNL1        0.1099
     11 C         -70.0450  -55.7699  -28.6095 C.ar    1  UNL1        0.0095
     12 C         -71.3854  -56.0902  -28.9513 C.ar    1  UNL1        0.0004
     13 C         -72.3572  -56.1907  -27.9310 C.ar    1  UNL1        0.0028
     14 C         -71.9582  -55.9724  -26.6135 C.ar    1  UNL1        0.0339
     15 C         -71.7635  -56.3196  -30.3688 C.ar    1  UNL1        0.0000
     16 C         -73.0802  -56.0802  -30.8059 C.ar    1  UNL1        0.0000
     17 C         -73.4336  -56.2970  -32.1413 C.ar    1  UNL1        0.0000
     18 C         -72.4795  -56.7528  -33.0537 C.ar    1  UNL1        0.0000
     19 C         -71.1697  -56.9930  -32.6327 C.ar    1  UNL1        0.0000
     20 C         -70.8110  -56.7789  -31.2984 C.ar    1  UNL1        0.0000
     21 C         -68.2617  -55.2112  -26.9280 C.2     1  UNL1        0.3410
     22 O         -67.3506  -55.4259  -27.7710 O.2     1  UNL1       -0.2450
     23 O         -67.9164  -54.6462  -25.7015 O.3     1  UNL1       -0.4770
     24 H         -68.6094  -54.3333  -25.0344 H       1  UNL1        0.2954
     25 C         -73.4406  -56.3051  -21.0322 C.ar    1  UNL1        0.0702
     26 C         -74.7955  -56.0531  -20.7849 C.ar    1  UNL1        0.0191
     27 C         -75.2500  -55.8697  -19.4783 C.ar    1  UNL1        0.0356
     28 C         -74.3381  -55.9301  -18.4142 C.ar    1  UNL1        0.1318
     29 N         -73.0183  -56.1379  -18.6795 N.ar    1  UNL1       -0.2279
     30 C         -72.5534  -56.3227  -19.9435 C.ar    1  UNL1        0.1149
     31 N         -74.7738  -55.7315  -17.0566 N.pl3   1  UNL1       -0.2932
     32 C         -75.3510  -56.8557  -16.3085 C.3     1  UNL1        0.0923
     33 C         -74.9499  -56.7733  -14.8315 C.3     1  UNL1        0.0252
     34 C         -75.2782  -55.3851  -14.2481 C.3     1  UNL1        0.0472
     35 C         -74.5912  -54.2838  -15.0769 C.3     1  UNL1        0.0252
     36 C         -75.0134  -54.3745  -16.5452 C.3     1  UNL1        0.0923
     37 C         -74.9192  -55.3070  -12.7502 C.3     1  UNL1        0.2054
     38 O         -73.7133  -56.0146  -12.4460 O.3     1  UNL1       -0.4755
     39 C         -72.4052  -55.5018  -12.4816 C.ar    1  UNL1        0.1388
     40 C         -72.1266  -54.3776  -11.6969 C.ar    1  UNL1        0.0369
     41 C         -70.8472  -53.8208  -11.6814 C.ar    1  UNL1        0.0033
     42 C         -69.8289  -54.3810  -12.4541 C.ar    1  UNL1        0.0066
     43 C         -70.0834  -55.5069  -13.2563 C.ar    1  UNL1        0.0785
     44 C         -71.3771  -56.0600  -13.2694 C.ar    1  UNL1        0.0433
     45 C         -69.0059  -56.1053  -14.0761 C.2     1  UNL1        0.3381
     46 O         -69.2241  -57.1430  -14.7585 O.2     1  UNL1       -0.2451
     47 O         -67.7394  -55.5267  -14.1030 O.3     1  UNL1       -0.4771
     48 H         -66.9956  -55.9281  -14.6614 H       1  UNL1        0.2954
@<TRIPOS>BOND
     1     5     6    1
     2     6     7   ar
     3     7     1    1
     4     1     2    2
     5     1     3   am
     6     3    25    1
     7    25    26   ar
     8    26    27   ar
     9    27    28   ar
    10    28    31    1
    11    31    32    1
    12    32    33    1
    13    33    34    1
    14    34    37    1
    15    37    38    1
    16    38    39    1
    17    39    40   ar
    18    40    41   ar
    19    41    42   ar
    20    42    43   ar
    21    43    45    1
    22    45    46    2
    23    45    47    1
    24    43    44   ar
    25    34    35    1
    26    35    36    1
    27    28    29   ar
    28    29    30   ar
    29     7     8   ar
    30     8     9   ar
    31     9    10   ar
    32    10    21    1
    33    21    22    2
    34    21    23    1
    35    10    11   ar
    36    11    12   ar
    37    12    15    1
    38    15    16   ar
    39    16    17   ar
    40    17    18   ar
    41    18    19   ar
    42    19    20   ar
    43    12    13   ar
    44    13    14   ar
    45    14     6   ar
    46    30    25   ar
    47    14     9   ar
    48    36    31    1
    49    20    15   ar
    50    44    39   ar
    51     3     4    1
    52    47    48    1
    53    23    24    1
@<TRIPOS>MOLECULE
*****
 48 53 0 0 0
SMALL
GASTEIGER

@<TRIPOS>ATOM
      1 C         -70.5552  -55.1679  -19.7996 C.2     1  UNL1        0.2839
      2 O         -69.6777  -56.0575  -19.9649 O.2     1  UNL1       -0.2665
      3 N         -71.0694  -54.4397  -20.9265 N.am    1  UNL1       -0.2766
      4 H         -71.5478  -53.5283  -20.7443 H       1  UNL1        0.1553
      5 C         -69.8347  -56.7128  -17.0862 C.3     1  UNL1        0.0345
      6 C         -70.7132  -55.5094  -17.2539 C.ar    1  UNL1        0.0202
      7 C         -71.0289  -54.8430  -18.4410 C.ar    1  UNL1        0.1946
      8 O         -71.8495  -53.8401  -18.1896 O.2     1  UNL1       -0.4490
      9 C         -72.0842  -53.8134  -16.8990 C.ar    1  UNL1        0.1514
     10 C         -72.9061  -52.9256  -16.1939 C.ar    1  UNL1        0.1099
     11 C         -73.0375  -53.1345  -14.8022 C.ar    1  UNL1        0.0095
     12 C         -72.3437  -54.1854  -14.1464 C.ar    1  UNL1        0.0004
     13 C         -71.5151  -55.0467  -14.8996 C.ar    1  UNL1        0.0028
     14 C         -71.4117  -54.8313  -16.2728 C.ar    1  UNL1        0.0339
     15 C         -72.4885  -54.3800  -12.6814 C.ar    1  UNL1        0.0000
     16 C         -73.0076  -55.5834  -12.1673 C.ar    1  UNL1        0.0000
     17 C         -73.1428  -55.7641  -10.7874 C.ar    1  UNL1        0.0000
     18 C         -72.7614  -54.7493   -9.9069 C.ar    1  UNL1        0.0000
     19 C         -72.2441  -53.5513  -10.4045 C.ar    1  UNL1        0.0000
     20 C         -72.1076  -53.3647  -11.7834 C.ar    1  UNL1        0.0000
     21 C         -73.6421  -51.8282  -16.8632 C.2     1  UNL1        0.3410
     22 O         -74.1091  -50.8814  -16.1760 O.2     1  UNL1       -0.2450
     23 O         -73.8156  -51.7981  -18.2460 O.3     1  UNL1       -0.4770
     24 H         -73.3598  -52.4564  -18.8641 H       1  UNL1        0.2954
     25 C         -70.8666  -54.8279  -22.2962 C.ar    1  UNL1        0.0702
     26 C         -69.8914  -54.1788  -23.0631 C.ar    1  UNL1        0.0191
     27 C         -69.6995  -54.5293  -24.4002 C.ar    1  UNL1        0.0356
     28 C         -70.4971  -55.5302  -24.9739 C.ar    1  UNL1        0.1318
     29 N         -71.4661  -56.1223  -24.2214 N.ar    1  UNL1       -0.2279
     30 C         -71.6687  -55.7997  -22.9165 C.ar    1  UNL1        0.1149
     31 N         -70.3326  -55.9045  -26.3542 N.pl3   1  UNL1       -0.2932
     32 C         -70.8040  -57.2184  -26.8103 C.3     1  UNL1        0.0923
     33 C         -71.3487  -57.1209  -28.2397 C.3     1  UNL1        0.0252
     34 C         -70.3229  -56.4526  -29.1758 C.3     1  UNL1        0.0472
     35 C         -69.9296  -55.0669  -28.6311 C.3     1  UNL1        0.0252
     36 C         -69.3767  -55.1860  -27.2089 C.3     1  UNL1        0.0923
     37 C         -70.8441  -56.3904  -30.6260 C.3     1  UNL1        0.2054
     38 O         -71.8810  -55.4175  -30.7863 O.3     1  UNL1       -0.4755
     39 C         -73.0156  -55.2552  -29.9728 C.ar    1  UNL1        0.1388
     40 C         -74.0304  -56.2128  -30.0748 C.ar    1  UNL1        0.0369
     41 C         -75.1814  -56.1150  -29.2921 C.ar    1  UNL1        0.0033
     42 C         -75.3335  -55.0545  -28.3975 C.ar    1  UNL1        0.0066
     43 C         -74.3320  -54.0753  -28.2798 C.ar    1  UNL1        0.0785
     44 C         -73.1760  -54.1789  -29.0755 C.ar    1  UNL1        0.0433
     45 C         -74.4883  -52.9499  -27.3311 C.2     1  UNL1        0.3381
     46 O         -74.4351  -51.7581  -27.7397 O.2     1  UNL1       -0.2451
     47 O         -74.6974  -53.1964  -25.9765 O.3     1  UNL1       -0.4771
     48 H         -74.8064  -52.4332  -25.3194 H       1  UNL1        0.2954
@<TRIPOS>BOND
     1     5     6    1
     2     6     7   ar
     3     7     1    1
     4     1     2    2
     5     1     3   am
     6     3    25    1
     7    25    26   ar
     8    26    27   ar
     9    27    28   ar
    10    28    31    1
    11    31    32    1
    12    32    33    1
    13    33    34    1
    14    34    37    1
    15    37    38    1
    16    38    39    1
    17    39    40   ar
    18    40    41   ar
    19    41    42   ar
    20    42    43   ar
    21    43    45    1
    22    45    46    2
    23    45    47    1
    24    43    44   ar
    25    34    35    1
    26    35    36    1
    27    28    29   ar
    28    29    30   ar
    29     7     8   ar
    30     8     9   ar
    31     9    10   ar
    32    10    21    1
    33    21    22    2
    34    21    23    1
    35    10    11   ar
    36    11    12   ar
    37    12    15    1
    38    15    16   ar
    39    16    17   ar
    40    17    18   ar
    41    18    19   ar
    42    19    20   ar
    43    12    13   ar
    44    13    14   ar
    45    14     6   ar
    46    30    25   ar
    47    14     9   ar
    48    36    31    1
    49    20    15   ar
    50    44    39   ar
    51     3     4    1
    52    47    48    1
    53    23    24    1
