@<TRIPOS>MOLECULE
*****
 30 33 0 0 0
SMALL
GASTEIGER

@<TRIPOS>ATOM
      1 N          46.0921   14.6527  -26.6807 N.ar    1  UNL1       -0.3243
      2 C          46.4039   14.0175  -25.5200 C.ar    1  UNL1        0.0600
      3 C          46.4212   14.5405  -24.2220 C.ar    1  UNL1        0.0177
      4 C          46.7778   13.6841  -23.1648 C.ar    1  UNL1        0.0082
      5 C          47.1009   12.3317  -23.4114 C.ar    1  UNL1        0.0347
      6 BR         47.5791   11.1888  -21.9587 Br      1  UNL1       -0.0490
      7 C          47.0657   11.8195  -24.7202 C.ar    1  UNL1        0.0082
      8 C          46.7115   12.6899  -25.7490 C.ar    1  UNL1        0.0177
      9 C          46.5777   12.4874  -27.1028 C.ar    1  UNL1        0.0177
     10 C          46.7524   11.3488  -27.8847 C.ar    1  UNL1        0.0087
     11 C          46.5254   11.4563  -29.2690 C.ar    1  UNL1        0.0409
     12 BR         46.7645    9.8953  -30.3529 Br      1  UNL1       -0.0485
     13 C          46.1259   12.6970  -29.8331 C.ar    1  UNL1        0.0422
     14 BR         45.8003   12.8816  -31.7116 Br      1  UNL1       -0.0484
     15 C          45.9568   13.8287  -29.0123 C.ar    1  UNL1        0.0244
     16 C          46.1963   13.6980  -27.6414 C.ar    1  UNL1        0.0605
     17 C          45.7644   16.0712  -26.8778 C.3     1  UNL1        0.1429
     18 C          47.0089   16.9627  -26.7250 C.3     1  UNL1        0.2027
     19 F          47.1859   17.2658  -25.3867 F       1  UNL1       -0.2334
     20 C          48.2864   16.3270  -27.2994 C.3     1  UNL1        0.1259
     21 N          49.4160   16.4423  -26.3760 N.pl3   1  UNL1       -0.3157
     22 H          49.8730   17.3758  -26.2749 H       1  UNL1        0.1483
     23 C          50.3713   13.0790  -25.1839 C.ar    1  UNL1        0.2261
     24 C          50.6012   13.3026  -23.8238 C.ar    1  UNL1        0.0578
     25 C          50.4355   14.5872  -23.3036 C.ar    1  UNL1        0.0077
     26 C          50.0447   15.6329  -24.1422 C.ar    1  UNL1        0.0343
     27 C          49.8250   15.3790  -25.5026 C.ar    1  UNL1        0.1317
     28 N          49.9892   14.1146  -25.9828 N.ar    1  UNL1       -0.1969
     29 C          50.6820   10.6420  -24.8865 C.3     1  UNL1        0.2542
     30 O          50.5372   11.7942  -25.7087 O.3     1  UNL1       -0.4561
@<TRIPOS>BOND
     1    29    30    1
     2    30    23    1
     3    23    24   ar
     4    24    25   ar
     5    25    26   ar
     6    26    27   ar
     7    27    21    1
     8    21    20    1
     9    20    18    1
    10    18    19    1
    11    18    17    1
    12    17     1    1
    13     1     2   ar
    14     2     3   ar
    15     3     4   ar
    16     4     5   ar
    17     5     6    1
    18     5     7   ar
    19     7     8   ar
    20     8     9   ar
    21     9    10   ar
    22    10    11   ar
    23    11    12    1
    24    11    13   ar
    25    13    14    1
    26    13    15   ar
    27    15    16   ar
    28    27    28   ar
    29    28    23   ar
    30    16     1   ar
    31     8     2   ar
    32    16     9   ar
    33    21    22    1
@<TRIPOS>MOLECULE
*****
 30 33 0 0 0
SMALL
GASTEIGER

@<TRIPOS>ATOM
      1 N          47.6028   13.2171  -26.1608 N.ar    1  UNL1       -0.3243
      2 C          47.7995   14.5378  -26.4156 C.ar    1  UNL1        0.0600
      3 C          46.8562   15.4973  -26.8004 C.ar    1  UNL1        0.0177
      4 C          47.2966   16.8168  -27.0080 C.ar    1  UNL1        0.0082
      5 C          48.6540   17.1602  -26.8237 C.ar    1  UNL1        0.0347
      6 BR         49.2262   18.9592  -27.1093 Br      1  UNL1       -0.0490
      7 C          49.5859   16.1864  -26.4242 C.ar    1  UNL1        0.0082
      8 C          49.1233   14.8867  -26.2277 C.ar    1  UNL1        0.0177
      9 C          49.7751   13.7420  -25.8321 C.ar    1  UNL1        0.0177
     10 C          51.1070   13.5095  -25.4999 C.ar    1  UNL1        0.0087
     11 C          51.4747   12.2070  -25.1156 C.ar    1  UNL1        0.0409
     12 BR         53.3052   11.8773  -24.6579 Br      1  UNL1       -0.0485
     13 C          50.5010   11.1742  -25.0696 C.ar    1  UNL1        0.0422
     14 BR         50.9608    9.3904  -24.5445 Br      1  UNL1       -0.0484
     15 C          49.1617   11.4449  -25.4107 C.ar    1  UNL1        0.0244
     16 C          48.8234   12.7449  -25.7969 C.ar    1  UNL1        0.0605
     17 C          46.3614   12.4431  -26.2958 C.3     1  UNL1        0.1429
     18 C          45.4794   12.5711  -25.0419 C.3     1  UNL1        0.2027
     19 F          44.2205   12.0701  -25.3220 F       1  UNL1       -0.2334
     20 C          46.0697   11.8660  -23.8088 C.3     1  UNL1        0.1259
     21 N          46.2680   12.7924  -22.6933 N.pl3   1  UNL1       -0.3157
     22 H          45.7019   12.6460  -21.8281 H       1  UNL1        0.1483
     23 C          47.9914   16.0335  -23.1071 C.ar    1  UNL1        0.2261
     24 C          49.2861   15.7362  -22.6739 C.ar    1  UNL1        0.0578
     25 C          49.5831   14.4431  -22.2405 C.ar    1  UNL1        0.0077
     26 C          48.5891   13.4627  -22.2422 C.ar    1  UNL1        0.0343
     27 C          47.2988   13.7914  -22.6789 C.ar    1  UNL1        0.1317
     28 N          47.0378   15.0601  -23.1013 N.ar    1  UNL1       -0.1969
     29 C          46.4330   17.9467  -23.2933 C.3     1  UNL1        0.2542
     30 O          47.6899   17.3275  -23.5409 O.3     1  UNL1       -0.4561
@<TRIPOS>BOND
     1    29    30    1
     2    30    23    1
     3    23    24   ar
     4    24    25   ar
     5    25    26   ar
     6    26    27   ar
     7    27    21    1
     8    21    20    1
     9    20    18    1
    10    18    19    1
    11    18    17    1
    12    17     1    1
    13     1     2   ar
    14     2     3   ar
    15     3     4   ar
    16     4     5   ar
    17     5     6    1
    18     5     7   ar
    19     7     8   ar
    20     8     9   ar
    21     9    10   ar
    22    10    11   ar
    23    11    12    1
    24    11    13   ar
    25    13    14    1
    26    13    15   ar
    27    15    16   ar
    28    27    28   ar
    29    28    23   ar
    30    16     1   ar
    31     8     2   ar
    32    16     9   ar
    33    21    22    1
@<TRIPOS>MOLECULE
*****
 30 33 0 0 0
SMALL
GASTEIGER

@<TRIPOS>ATOM
      1 N          47.5962   13.1376  -26.0255 N.ar    1  UNL1       -0.3243
      2 C          47.7859   14.4573  -26.2903 C.ar    1  UNL1        0.0600
      3 C          46.8327   15.4153  -26.6539 C.ar    1  UNL1        0.0177
      4 C          47.2674   16.7341  -26.8779 C.ar    1  UNL1        0.0082
      5 C          48.6290   17.0782  -26.7305 C.ar    1  UNL1        0.0347
      6 BR         49.1934   18.8762  -27.0377 Br      1  UNL1       -0.0490
      7 C          49.5712   16.1060  -26.3518 C.ar    1  UNL1        0.0082
      8 C          49.1142   14.8071  -26.1384 C.ar    1  UNL1        0.0177
      9 C          49.7763   13.6639  -25.7557 C.ar    1  UNL1        0.0177
     10 C          51.1164   13.4327  -25.4575 C.ar    1  UNL1        0.0087
     11 C          51.4942   12.1317  -25.0781 C.ar    1  UNL1        0.0409
     12 BR         53.3361   11.8039  -24.6671 Br      1  UNL1       -0.0485
     13 C          50.5222   11.0990  -25.0027 C.ar    1  UNL1        0.0422
     14 BR         50.9959    9.3172  -24.4832 Br      1  UNL1       -0.0484
     15 C          49.1745   11.3683  -25.3097 C.ar    1  UNL1        0.0244
     16 C          48.8260   12.6669  -25.6918 C.ar    1  UNL1        0.0605
     17 C          46.3518   12.3631  -26.1251 C.3     1  UNL1        0.1429
     18 C          45.3687   12.7307  -25.0003 C.3     1  UNL1        0.2027
     19 F          44.1607   12.0967  -25.2310 F       1  UNL1       -0.2334
     20 C          45.8925   12.3817  -23.5968 C.3     1  UNL1        0.1259
     21 N          46.5196   13.5332  -22.9465 N.pl3   1  UNL1       -0.3157
     22 H          45.9087   14.3356  -22.6754 H       1  UNL1        0.1483
     23 C          49.8086   12.3745  -21.7276 C.ar    1  UNL1        0.2261
     24 C          50.5535   13.5567  -21.7207 C.ar    1  UNL1        0.0578
     25 C          49.9506   14.7483  -22.1268 C.ar    1  UNL1        0.0077
     26 C          48.6157   14.7490  -22.5357 C.ar    1  UNL1        0.0343
     27 C          47.8950   13.5473  -22.5355 C.ar    1  UNL1        0.1317
     28 N          48.5068   12.3997  -22.1295 N.ar    1  UNL1       -0.1969
     29 C          49.6629   10.0772  -20.8195 C.3     1  UNL1        0.2542
     30 O          50.4091   11.1791  -21.3227 O.3     1  UNL1       -0.4561
@<TRIPOS>BOND
     1    29    30    1
     2    30    23    1
     3    23    24   ar
     4    24    25   ar
     5    25    26   ar
     6    26    27   ar
     7    27    21    1
     8    21    20    1
     9    20    18    1
    10    18    19    1
    11    18    17    1
    12    17     1    1
    13     1     2   ar
    14     2     3   ar
    15     3     4   ar
    16     4     5   ar
    17     5     6    1
    18     5     7   ar
    19     7     8   ar
    20     8     9   ar
    21     9    10   ar
    22    10    11   ar
    23    11    12    1
    24    11    13   ar
    25    13    14    1
    26    13    15   ar
    27    15    16   ar
    28    27    28   ar
    29    28    23   ar
    30    16     1   ar
    31     8     2   ar
    32    16     9   ar
    33    21    22    1
@<TRIPOS>MOLECULE
*****
 30 33 0 0 0
SMALL
GASTEIGER

@<TRIPOS>ATOM
      1 N          47.0457   12.7615  -25.5501 N.ar    1  UNL1       -0.3243
      2 C          46.8964   14.0821  -25.2644 C.ar    1  UNL1        0.0600
      3 C          47.0848   14.7316  -24.0391 C.ar    1  UNL1        0.0177
      4 C          46.8709   16.1206  -23.9832 C.ar    1  UNL1        0.0082
      5 C          46.4842   16.8367  -25.1373 C.ar    1  UNL1        0.0347
      6 BR         46.2026   18.7224  -25.0357 Br      1  UNL1       -0.0490
      7 C          46.3121   16.1702  -26.3631 C.ar    1  UNL1        0.0082
      8 C          46.5283   14.7939  -26.3902 C.ar    1  UNL1        0.0177
      9 C          46.4539   13.8841  -27.4189 C.ar    1  UNL1        0.0177
     10 C          46.1389   14.0416  -28.7658 C.ar    1  UNL1        0.0087
     11 C          46.1591   12.8996  -29.5873 C.ar    1  UNL1        0.0409
     12 BR         45.7258   13.1065  -31.4416 Br      1  UNL1       -0.0485
     13 C          46.4977   11.6330  -29.0415 C.ar    1  UNL1        0.0422
     14 BR         46.5434   10.0566  -30.1287 Br      1  UNL1       -0.0484
     15 C          46.8128   11.5099  -27.6745 C.ar    1  UNL1        0.0244
     16 C          46.7778   12.6578  -26.8778 C.ar    1  UNL1        0.0605
     17 C          47.3721   11.6659  -24.6275 C.3     1  UNL1        0.1429
     18 C          48.8850   11.5885  -24.3588 C.3     1  UNL1        0.2027
     19 F          49.1649   10.4119  -23.6867 F       1  UNL1       -0.2334
     20 C          49.7353   11.6856  -25.6369 C.3     1  UNL1        0.1259
     21 N          50.8321   12.6436  -25.4911 N.pl3   1  UNL1       -0.3157
     22 H          51.8028   12.3102  -25.6835 H       1  UNL1        0.1483
     23 C          50.0420   16.2075  -26.0575 C.ar    1  UNL1        0.2261
     24 C          50.2270   16.7561  -24.7857 C.ar    1  UNL1        0.0578
     25 C          50.6182   15.9274  -23.7329 C.ar    1  UNL1        0.0077
     26 C          50.8192   14.5641  -23.9576 C.ar    1  UNL1        0.0343
     27 C          50.6225   14.0419  -25.2429 C.ar    1  UNL1        0.1317
     28 N          50.2455   14.8744  -26.2533 N.ar    1  UNL1       -0.1969
     29 C          49.5029   18.4422  -26.9735 C.3     1  UNL1        0.2542
     30 O          49.6493   17.0339  -27.1141 O.3     1  UNL1       -0.4561
@<TRIPOS>BOND
     1    29    30    1
     2    30    23    1
     3    23    24   ar
     4    24    25   ar
     5    25    26   ar
     6    26    27   ar
     7    27    21    1
     8    21    20    1
     9    20    18    1
    10    18    19    1
    11    18    17    1
    12    17     1    1
    13     1     2   ar
    14     2     3   ar
    15     3     4   ar
    16     4     5   ar
    17     5     6    1
    18     5     7   ar
    19     7     8   ar
    20     8     9   ar
    21     9    10   ar
    22    10    11   ar
    23    11    12    1
    24    11    13   ar
    25    13    14    1
    26    13    15   ar
    27    15    16   ar
    28    27    28   ar
    29    28    23   ar
    30    16     1   ar
    31     8     2   ar
    32    16     9   ar
    33    21    22    1
@<TRIPOS>MOLECULE
*****
 30 33 0 0 0
SMALL
GASTEIGER

@<TRIPOS>ATOM
      1 N          46.1046   13.3543  -24.6392 N.ar    1  UNL1       -0.3243
      2 C          46.1056   12.9403  -25.9339 C.ar    1  UNL1        0.0600
      3 C          45.8447   11.6602  -26.4359 C.ar    1  UNL1        0.0177
      4 C          45.9027   11.4674  -27.8279 C.ar    1  UNL1        0.0082
      5 C          46.2085   12.5421  -28.6916 C.ar    1  UNL1        0.0347
      6 BR         46.2783   12.2549  -30.5779 Br      1  UNL1       -0.0490
      7 C          46.4550   13.8245  -28.1711 C.ar    1  UNL1        0.0082
      8 C          46.3934   13.9873  -26.7886 C.ar    1  UNL1        0.0177
      9 C          46.5698   15.0984  -25.9973 C.ar    1  UNL1        0.0177
     10 C          46.8668   16.4198  -26.3195 C.ar    1  UNL1        0.0087
     11 C          46.9747   17.3483  -25.2680 C.ar    1  UNL1        0.0409
     12 BR         47.3843   19.1686  -25.7015 Br      1  UNL1       -0.0485
     13 C          46.7785   16.9319  -23.9244 C.ar    1  UNL1        0.0422
     14 BR         46.9099   18.1671  -22.4664 Br      1  UNL1       -0.0484
     15 C          46.4776   15.5870  -23.6344 C.ar    1  UNL1        0.0244
     16 C          46.3838   14.6826  -24.6959 C.ar    1  UNL1        0.0605
     17 C          45.9011   12.5461  -23.4294 C.3     1  UNL1        0.1429
     18 C          46.9656   12.8531  -22.3620 C.3     1  UNL1        0.2027
     19 F          46.4535   12.5500  -21.1129 F       1  UNL1       -0.2334
     20 C          48.2892   12.1032  -22.5899 C.3     1  UNL1        0.1259
     21 N          49.4323   13.0158  -22.6369 N.pl3   1  UNL1       -0.3157
     22 H          50.1092   12.9948  -21.8421 H       1  UNL1        0.1483
     23 C          50.3054   15.9516  -24.7021 C.ar    1  UNL1        0.2261
     24 C          50.3294   15.4095  -25.9898 C.ar    1  UNL1        0.0578
     25 C          50.0519   14.0530  -26.1669 C.ar    1  UNL1        0.0077
     26 C          49.7554   13.2530  -25.0618 C.ar    1  UNL1        0.0343
     27 C          49.7424   13.8240  -23.7822 C.ar    1  UNL1        0.1317
     28 N          50.0121   15.1517  -23.6387 N.ar    1  UNL1       -0.1969
     29 C          51.1639   18.1165  -25.5386 C.3     1  UNL1        0.2542
     30 O          50.5839   17.3092  -24.5207 O.3     1  UNL1       -0.4561
@<TRIPOS>BOND
     1    29    30    1
     2    30    23    1
     3    23    24   ar
     4    24    25   ar
     5    25    26   ar
     6    26    27   ar
     7    27    21    1
     8    21    20    1
     9    20    18    1
    10    18    19    1
    11    18    17    1
    12    17     1    1
    13     1     2   ar
    14     2     3   ar
    15     3     4   ar
    16     4     5   ar
    17     5     6    1
    18     5     7   ar
    19     7     8   ar
    20     8     9   ar
    21     9    10   ar
    22    10    11   ar
    23    11    12    1
    24    11    13   ar
    25    13    14    1
    26    13    15   ar
    27    15    16   ar
    28    27    28   ar
    29    28    23   ar
    30    16     1   ar
    31     8     2   ar
    32    16     9   ar
    33    21    22    1
@<TRIPOS>MOLECULE
*****
 30 33 0 0 0
SMALL
GASTEIGER

@<TRIPOS>ATOM
      1 N          47.0226   14.2366  -24.1126 N.ar    1  UNL1       -0.3243
      2 C          47.8966   15.1467  -24.6184 C.ar    1  UNL1        0.0600
      3 C          47.7963   15.8787  -25.8070 C.ar    1  UNL1        0.0177
      4 C          48.8336   16.7733  -26.1264 C.ar    1  UNL1        0.0082
      5 C          49.9402   16.9304  -25.2632 C.ar    1  UNL1        0.0347
      6 BR         51.3341   18.1534  -25.7183 Br      1  UNL1       -0.0490
      7 C          50.0184   16.1967  -24.0667 C.ar    1  UNL1        0.0082
      8 C          48.9785   15.3160  -23.7756 C.ar    1  UNL1        0.0177
      9 C          48.7668   14.4865  -22.6991 C.ar    1  UNL1        0.0177
     10 C          49.5213   14.2570  -21.5518 C.ar    1  UNL1        0.0087
     11 C          49.0260   13.3392  -20.6076 C.ar    1  UNL1        0.0409
     12 BR         50.0578   13.0161  -19.0264 Br      1  UNL1       -0.0485
     13 C          47.7887   12.6795  -20.8335 C.ar    1  UNL1        0.0422
     14 BR         47.0777   11.4291  -19.5687 Br      1  UNL1       -0.0484
     15 C          47.0503   12.9367  -22.0048 C.ar    1  UNL1        0.0244
     16 C          47.5677   13.8466  -22.9310 C.ar    1  UNL1        0.0605
     17 C          45.7837   13.7343  -24.7216 C.3     1  UNL1        0.1429
     18 C          45.9807   12.3321  -25.3232 C.3     1  UNL1        0.2027
     19 F          44.7461   11.8104  -25.6667 F       1  UNL1       -0.2334
     20 C          46.9203   12.3196  -26.5410 C.3     1  UNL1        0.1259
     21 N          48.0272   11.3781  -26.3664 N.pl3   1  UNL1       -0.3157
     22 H          48.0496   10.5298  -26.9749 H       1  UNL1        0.1483
     23 C          50.3128   11.2288  -23.4682 C.ar    1  UNL1        0.2261
     24 C          51.3066   12.1424  -23.8292 C.ar    1  UNL1        0.0578
     25 C          51.2104   12.8117  -25.0503 C.ar    1  UNL1        0.0077
     26 C          50.1285   12.5632  -25.8971 C.ar    1  UNL1        0.0343
     27 C          49.1492   11.6389  -25.5097 C.ar    1  UNL1        0.1317
     28 N          49.2654   11.0036  -24.3101 N.ar    1  UNL1       -0.1969
     29 C          49.5698    9.4551  -21.9109 C.3     1  UNL1        0.2542
     30 O          50.4063   10.5559  -22.2467 O.3     1  UNL1       -0.4561
@<TRIPOS>BOND
     1    29    30    1
     2    30    23    1
     3    23    24   ar
     4    24    25   ar
     5    25    26   ar
     6    26    27   ar
     7    27    21    1
     8    21    20    1
     9    20    18    1
    10    18    19    1
    11    18    17    1
    12    17     1    1
    13     1     2   ar
    14     2     3   ar
    15     3     4   ar
    16     4     5   ar
    17     5     6    1
    18     5     7   ar
    19     7     8   ar
    20     8     9   ar
    21     9    10   ar
    22    10    11   ar
    23    11    12    1
    24    11    13   ar
    25    13    14    1
    26    13    15   ar
    27    15    16   ar
    28    27    28   ar
    29    28    23   ar
    30    16     1   ar
    31     8     2   ar
    32    16     9   ar
    33    21    22    1
@<TRIPOS>MOLECULE
*****
 30 33 0 0 0
SMALL
GASTEIGER

@<TRIPOS>ATOM
      1 N          45.9179   14.4017  -26.8685 N.ar    1  UNL1       -0.3243
      2 C          46.2369   13.7941  -25.6951 C.ar    1  UNL1        0.0600
      3 C          46.1881   14.3256  -24.4014 C.ar    1  UNL1        0.0177
      4 C          46.5680   13.4993  -23.3284 C.ar    1  UNL1        0.0082
      5 C          46.9791   12.1675  -23.5557 C.ar    1  UNL1        0.0347
      6 BR         47.4874   11.0653  -22.0818 Br      1  UNL1       -0.0490
      7 C          47.0097   11.6457  -24.8607 C.ar    1  UNL1        0.0082
      8 C          46.6306   12.4863  -25.9054 C.ar    1  UNL1        0.0177
      9 C          46.5451   12.2673  -27.2605 C.ar    1  UNL1        0.0177
     10 C          46.8093   11.1364  -28.0284 C.ar    1  UNL1        0.0087
     11 C          46.6128   11.2210  -29.4189 C.ar    1  UNL1        0.0409
     12 BR         46.9749    9.6704  -30.4837 Br      1  UNL1       -0.0485
     13 C          46.1537   12.4313  -30.0032 C.ar    1  UNL1        0.0422
     14 BR         45.8672   12.5836  -31.8910 Br      1  UNL1       -0.0484
     15 C          45.8945   13.5559  -29.1962 C.ar    1  UNL1        0.0244
     16 C          46.1052   13.4489  -27.8186 C.ar    1  UNL1        0.0605
     17 C          45.5099   15.7962  -27.0855 C.3     1  UNL1        0.1429
     18 C          46.6708   16.7700  -26.8193 C.3     1  UNL1        0.2027
     19 F          47.2438   17.1304  -28.0261 F       1  UNL1       -0.2334
     20 C          46.2450   18.0244  -26.0375 C.3     1  UNL1        0.1259
     21 N          47.3859   18.6837  -25.4006 N.pl3   1  UNL1       -0.3157
     22 H          47.1934   19.4840  -24.7581 H       1  UNL1        0.1483
     23 C          50.4218   16.6733  -24.7779 C.ar    1  UNL1        0.2261
     24 C          51.3366   17.2363  -25.6718 C.ar    1  UNL1        0.0578
     25 C          50.9338   18.2949  -26.4875 C.ar    1  UNL1        0.0077
     26 C          49.6270   18.7792  -26.4052 C.ar    1  UNL1        0.0343
     27 C          48.7309   18.1921  -25.5019 C.ar    1  UNL1        0.1317
     28 N          49.1520   17.1635  -24.7140 N.ar    1  UNL1       -0.1969
     29 C          50.4060   14.2706  -24.1864 C.3     1  UNL1        0.2542
     30 O          50.8211   15.6125  -23.9602 O.3     1  UNL1       -0.4561
@<TRIPOS>BOND
     1    29    30    1
     2    30    23    1
     3    23    24   ar
     4    24    25   ar
     5    25    26   ar
     6    26    27   ar
     7    27    21    1
     8    21    20    1
     9    20    18    1
    10    18    19    1
    11    18    17    1
    12    17     1    1
    13     1     2   ar
    14     2     3   ar
    15     3     4   ar
    16     4     5   ar
    17     5     6    1
    18     5     7   ar
    19     7     8   ar
    20     8     9   ar
    21     9    10   ar
    22    10    11   ar
    23    11    12    1
    24    11    13   ar
    25    13    14    1
    26    13    15   ar
    27    15    16   ar
    28    27    28   ar
    29    28    23   ar
    30    16     1   ar
    31     8     2   ar
    32    16     9   ar
    33    21    22    1
@<TRIPOS>MOLECULE
*****
 30 33 0 0 0
SMALL
GASTEIGER

@<TRIPOS>ATOM
      1 N          47.6501   13.5438  -24.2221 N.ar    1  UNL1       -0.3243
      2 C          48.5630   12.5382  -24.2790 C.ar    1  UNL1        0.0600
      3 C          48.3913   11.1903  -23.9438 C.ar    1  UNL1        0.0177
      4 C          49.4903   10.3244  -24.0873 C.ar    1  UNL1        0.0082
      5 C          50.7290   10.8060  -24.5649 C.ar    1  UNL1        0.0347
      6 BR         52.2050    9.6095  -24.7533 Br      1  UNL1       -0.0490
      7 C          50.8801   12.1605  -24.9094 C.ar    1  UNL1        0.0082
      8 C          49.7763   12.9969  -24.7555 C.ar    1  UNL1        0.0177
      9 C          49.6110   14.3376  -25.0140 C.ar    1  UNL1        0.0177
     10 C          50.4914   15.2941  -25.5126 C.ar    1  UNL1        0.0087
     11 C          50.0152   16.6073  -25.6798 C.ar    1  UNL1        0.0409
     12 BR         51.2196   17.9303  -26.3641 Br      1  UNL1       -0.0485
     13 C          48.6718   16.9277  -25.3487 C.ar    1  UNL1        0.0422
     14 BR         47.9844   18.7019  -25.5692 Br      1  UNL1       -0.0484
     15 C          47.8076   15.9348  -24.8481 C.ar    1  UNL1        0.0244
     16 C          48.3069   14.6397  -24.6835 C.ar    1  UNL1        0.0605
     17 C          46.2692   13.4872  -23.7238 C.3     1  UNL1        0.1429
     18 C          45.3339   12.8020  -24.7350 C.3     1  UNL1        0.2027
     19 F          44.0489   13.2846  -24.5608 F       1  UNL1       -0.2334
     20 C          45.7776   12.9874  -26.1961 C.3     1  UNL1        0.1259
     21 N          46.2736   11.7395  -26.7782 N.pl3   1  UNL1       -0.3157
     22 H          46.4528   10.9362  -26.1356 H       1  UNL1        0.1483
     23 C          46.1508   12.3505  -30.4193 C.ar    1  UNL1        0.2261
     24 C          46.5726   11.1236  -30.9384 C.ar    1  UNL1        0.0578
     25 C          46.9001   10.0863  -30.0637 C.ar    1  UNL1        0.0077
     26 C          46.8054   10.2824  -28.6847 C.ar    1  UNL1        0.0343
     27 C          46.3829   11.5249  -28.1935 C.ar    1  UNL1        0.1317
     28 N          46.0646   12.5183  -29.0698 N.ar    1  UNL1       -0.1969
     29 C          45.3219   13.1647  -32.6042 C.3     1  UNL1        0.2542
     30 O          45.8229   13.3918  -31.2920 O.3     1  UNL1       -0.4561
@<TRIPOS>BOND
     1    29    30    1
     2    30    23    1
     3    23    24   ar
     4    24    25   ar
     5    25    26   ar
     6    26    27   ar
     7    27    21    1
     8    21    20    1
     9    20    18    1
    10    18    19    1
    11    18    17    1
    12    17     1    1
    13     1     2   ar
    14     2     3   ar
    15     3     4   ar
    16     4     5   ar
    17     5     6    1
    18     5     7   ar
    19     7     8   ar
    20     8     9   ar
    21     9    10   ar
    22    10    11   ar
    23    11    12    1
    24    11    13   ar
    25    13    14    1
    26    13    15   ar
    27    15    16   ar
    28    27    28   ar
    29    28    23   ar
    30    16     1   ar
    31     8     2   ar
    32    16     9   ar
    33    21    22    1
@<TRIPOS>MOLECULE
*****
 30 33 0 0 0
SMALL
GASTEIGER

@<TRIPOS>ATOM
      1 N          50.5491    8.4674  -28.8676 N.ar    1  UNL1       -0.3243
      2 C          51.7785    8.2100  -29.3873 C.ar    1  UNL1        0.0600
      3 C          52.1174    7.3248  -30.4169 C.ar    1  UNL1        0.0177
      4 C          53.4698    7.2262  -30.7907 C.ar    1  UNL1        0.0082
      5 C          54.4537    8.0079  -30.1463 C.ar    1  UNL1        0.0347
      6 BR         56.2825    7.8577  -30.6741 Br      1  UNL1       -0.0490
      7 C          54.0938    8.9017  -29.1227 C.ar    1  UNL1        0.0082
      8 C          52.7477    8.9780  -28.7706 C.ar    1  UNL1        0.0177
      9 C          52.0967    9.7501  -27.8370 C.ar    1  UNL1        0.0177
     10 C          52.5698   10.7052  -26.9412 C.ar    1  UNL1        0.0087
     11 C          51.6375   11.3459  -26.1047 C.ar    1  UNL1        0.0409
     12 BR         52.2794   12.6606  -24.8682 Br      1  UNL1       -0.0485
     13 C          50.2583   11.0182  -26.1894 C.ar    1  UNL1        0.0422
     14 BR         48.9578   11.8735  -25.0730 Br      1  UNL1       -0.0484
     15 C          49.8139   10.0480  -27.1084 C.ar    1  UNL1        0.0244
     16 C          50.7607    9.4201  -27.9226 C.ar    1  UNL1        0.0605
     17 C          49.2705    7.8272  -29.2047 C.3     1  UNL1        0.1429
     18 C          48.7799    8.2507  -30.5999 C.3     1  UNL1        0.2027
     19 F          48.7617    7.1424  -31.4280 F       1  UNL1       -0.2334
     20 C          47.3960    8.9219  -30.5800 C.3     1  UNL1        0.1259
     21 N          47.1158    9.5564  -29.2912 N.pl3   1  UNL1       -0.3157
     22 H          47.3325    9.0185  -28.4228 H       1  UNL1        0.1483
     23 C          46.0025   12.9609  -30.1944 C.ar    1  UNL1        0.2261
     24 C          45.9087   13.5812  -28.9459 C.ar    1  UNL1        0.0578
     25 C          46.2198   12.8548  -27.7953 C.ar    1  UNL1        0.0077
     26 C          46.6188   11.5210  -27.9007 C.ar    1  UNL1        0.0343
     27 C          46.7002   10.9247  -29.1662 C.ar    1  UNL1        0.1317
     28 N          46.3956   11.6585  -30.2729 N.ar    1  UNL1       -0.1969
     29 C          45.6214   13.0836  -32.6364 C.3     1  UNL1        0.2542
     30 O          45.6908   13.6848  -31.3487 O.3     1  UNL1       -0.4561
@<TRIPOS>BOND
     1    29    30    1
     2    30    23    1
     3    23    24   ar
     4    24    25   ar
     5    25    26   ar
     6    26    27   ar
     7    27    21    1
     8    21    20    1
     9    20    18    1
    10    18    19    1
    11    18    17    1
    12    17     1    1
    13     1     2   ar
    14     2     3   ar
    15     3     4   ar
    16     4     5   ar
    17     5     6    1
    18     5     7   ar
    19     7     8   ar
    20     8     9   ar
    21     9    10   ar
    22    10    11   ar
    23    11    12    1
    24    11    13   ar
    25    13    14    1
    26    13    15   ar
    27    15    16   ar
    28    27    28   ar
    29    28    23   ar
    30    16     1   ar
    31     8     2   ar
    32    16     9   ar
    33    21    22    1
