@<TRIPOS>MOLECULE
*****
 49 54 0 0 0
SMALL
GASTEIGER

@<TRIPOS>ATOM
      1 C         -29.2705   49.2773   -9.2425 C.2     1  UNL1        0.2483
      2 O         -28.6868   48.3338   -9.8432 O.2     1  UNL1       -0.2701
      3 N         -29.6570   50.4564   -9.9671 N.am    1  UNL1       -0.2945
      4 H         -29.8801   51.3152   -9.4149 H       1  UNL1        0.1501
      5 C         -30.0183   48.9824   -5.0101 C.ar    1  UNL1        0.0502
      6 C         -30.8661   49.7316   -5.8443 C.ar    1  UNL1        0.0148
      7 C         -30.6128   49.8269   -7.2147 C.ar    1  UNL1        0.0080
      8 C         -29.5117   49.1689   -7.7858 C.ar    1  UNL1        0.0808
      9 C         -28.6490   48.4330   -6.9513 C.ar    1  UNL1        0.1457
     10 F         -27.5342   47.8389   -7.4475 F       1  UNL1       -0.2040
     11 C         -28.9041   48.3411   -5.5794 C.ar    1  UNL1        0.0443
     12 N         -30.6121   48.7944   -0.7594 N.pl3   1  UNL1       -0.3040
     13 C         -29.5925   47.9543   -1.4069 C.3     1  UNL1        0.1122
     14 C         -29.9556   47.6494   -2.8634 C.3     1  UNL1        0.1122
     15 N         -30.2776   48.8854   -3.5914 N.pl3   1  UNL1       -0.3040
     16 C         -30.9463   49.9950   -2.8939 C.3     1  UNL1        0.1122
     17 C         -31.5836   49.5322   -1.5800 C.3     1  UNL1        0.1122
     18 C         -30.9033   48.8709    3.5064 C.ar    1  UNL1        0.0050
     19 C         -30.5463   47.6893    2.8309 C.ar    1  UNL1       -0.0008
     20 C         -30.4513   47.6650    1.4377 C.ar    1  UNL1        0.0143
     21 C         -30.7082   48.8217    0.6826 C.ar    1  UNL1        0.0502
     22 C         -31.0677   50.0024    1.3556 C.ar    1  UNL1        0.0438
     23 C         -31.1646   50.0302    2.7503 C.ar    1  UNL1        0.1374
     24 F         -31.5184   51.1922    3.3560 F       1  UNL1       -0.2045
     25 C         -30.9810   47.4729    5.5995 C.3     1  UNL1        0.0048
     26 C         -31.0060   48.8937    5.0228 C.3     1  UNL1        0.0246
     27 C         -29.8991   49.7580    5.6386 C.3     1  UNL1        0.0048
     28 C         -29.4599   50.5851  -11.4174 C.3     1  UNL1        0.1535
     29 C         -30.7504   50.9778  -12.1151 C.2     1  UNL1        0.2443
     30 O         -31.4253   51.9488  -11.6774 O.2     1  UNL1       -0.2730
     31 N         -31.1631   50.3571  -13.3435 N.am    1  UNL1       -0.2825
     32 H         -31.7595   50.9173  -13.9936 H       1  UNL1        0.1549
     33 C         -30.7243   49.0657  -13.7846 C.ar    1  UNL1        0.0535
     34 C         -30.8987   47.9311  -12.9791 C.ar    1  UNL1        0.0353
     35 C         -30.4910   46.6823  -13.4543 C.ar    1  UNL1        0.1002
     36 N         -29.9488   46.5692  -14.6960 N.ar    1  UNL1       -0.2422
     37 C         -29.7919   47.6500  -15.5061 C.ar    1  UNL1        0.1002
     38 C         -30.1873   48.9165  -15.0688 C.ar    1  UNL1        0.0353
     39 C         -28.3312   51.5901  -11.7195 C.3     1  UNL1        0.0569
     40 C         -27.0492   51.2582  -11.0065 C.ar    1  UNL1       -0.0017
     41 C         -25.9072   50.7010  -11.5753 C.ar    1  UNL1        0.0681
     42 N         -24.9691   50.4755  -10.6277 N.ar    1  UNL1       -0.3523
     43 C         -25.5099   50.8808   -9.4657 C.ar    1  UNL1        0.0563
     44 C         -24.9243   50.8362   -8.2012 C.ar    1  UNL1        0.0170
     45 C         -25.6774   51.3078   -7.1105 C.ar    1  UNL1        0.0015
     46 C         -26.9838   51.8082   -7.3060 C.ar    1  UNL1        0.0001
     47 C         -27.5493   51.8409   -8.5933 C.ar    1  UNL1        0.0012
     48 C         -26.7797   51.3642   -9.6553 C.ar    1  UNL1        0.0131
     49 H         -24.0218   50.0606  -10.7725 H       1  UNL1        0.1660
@<TRIPOS>BOND
     1    25    26    1
     2    26    27    1
     3    26    18    1
     4    18    19   ar
     5    19    20   ar
     6    20    21   ar
     7    21    12    1
     8    12    13    1
     9    13    14    1
    10    14    15    1
    11    15     5    1
    12     5     6   ar
    13     6     7   ar
    14     7     8   ar
    15     8     1    1
    16     1     2    2
    17     1     3   am
    18     3    28    1
    19    28    39    1
    20    39    40    1
    21    40    41   ar
    22    41    42   ar
    23    42    43   ar
    24    43    44   ar
    25    44    45   ar
    26    45    46   ar
    27    46    47   ar
    28    47    48   ar
    29    28    29    1
    30    29    30    2
    31    29    31   am
    32    31    33    1
    33    33    34   ar
    34    34    35   ar
    35    35    36   ar
    36    36    37   ar
    37    37    38   ar
    38     8     9   ar
    39     9    10    1
    40     9    11   ar
    41    15    16    1
    42    16    17    1
    43    21    22   ar
    44    22    23   ar
    45    23    24    1
    46    23    18   ar
    47    17    12    1
    48    11     5   ar
    49    48    40   ar
    50    38    33   ar
    51    48    43   ar
    52     3     4    1
    53    42    49    1
    54    31    32    1
