@<TRIPOS>MOLECULE
*****
 48 53 0 0 0
SMALL
GASTEIGER

@<TRIPOS>ATOM
      1 C          59.5306   88.7190    7.5316 C.2     1  UNL1        0.2839
      2 O          58.4447   88.4753    6.9410 O.2     1  UNL1       -0.2665
      3 N          60.4254   89.7258    7.0267 N.am    1  UNL1       -0.2766
      4 H          61.3199   89.9026    7.5335 H       1  UNL1        0.1553
      5 C          61.4108   86.0889    7.7094 C.3     1  UNL1        0.0345
      6 C          60.6634   86.7834    8.8072 C.ar    1  UNL1        0.0202
      7 C          59.8662   87.9324    8.7311 C.ar    1  UNL1        0.1946
      8 O          59.4363   88.2643    9.9359 O.2     1  UNL1       -0.4492
      9 C          59.8926   87.3764   10.7852 C.ar    1  UNL1        0.1452
     10 C          59.6819   87.3335   12.1589 C.ar    1  UNL1        0.0375
     11 C          60.2734   86.2847   12.8848 C.ar    1  UNL1        0.0031
     12 C          61.0629   85.3001   12.2306 C.ar    1  UNL1        0.0002
     13 C          61.2528   85.3819   10.8302 C.ar    1  UNL1        0.0028
     14 C          60.6493   86.4348   10.1426 C.ar    1  UNL1        0.0337
     15 C          61.6828   84.1970   13.0077 C.ar    1  UNL1        0.0000
     16 C          62.1688   84.4227   14.3070 C.ar    1  UNL1        0.0002
     17 C          62.7529   83.3847   15.0390 C.ar    1  UNL1        0.0064
     18 C          62.8682   82.0976   14.4859 C.ar    1  UNL1        0.0755
     19 C          62.3704   81.8695   13.1913 C.ar    1  UNL1        0.0064
     20 C          61.7884   82.9079   12.4590 C.ar    1  UNL1        0.0002
     21 C          63.4804   80.9840   15.2512 C.2     1  UNL1        0.3380
     22 O          63.5042   79.8252   14.7574 O.2     1  UNL1       -0.2451
     23 O          64.0511   81.1823   16.5082 O.3     1  UNL1       -0.4771
     24 H          64.1602   82.1000   16.9195 H       1  UNL1        0.2954
     25 C          60.1367   90.5677    5.8983 C.ar    1  UNL1        0.0702
     26 C          58.8291   90.9777    5.5953 C.ar    1  UNL1        0.0191
     27 C          58.5865   91.7718    4.4734 C.ar    1  UNL1        0.0356
     28 C          59.6570   92.1528    3.6488 C.ar    1  UNL1        0.1318
     29 N          60.9107   91.7071    3.9403 N.ar    1  UNL1       -0.2279
     30 C          61.1699   90.9321    5.0265 C.ar    1  UNL1        0.1149
     31 N          59.4422   92.9538    2.4712 N.pl3   1  UNL1       -0.2932
     32 C          60.0422   94.2945    2.4010 C.3     1  UNL1        0.0923
     33 C          59.9317   94.8910    0.9893 C.3     1  UNL1        0.0252
     34 C          60.2238   93.8091   -0.0667 C.3     1  UNL1        0.0472
     35 C          59.2145   92.6319    0.0268 C.3     1  UNL1        0.0252
     36 C          58.5338   92.5176    1.4013 C.3     1  UNL1        0.0923
     37 C          60.2411   94.4231   -1.4795 C.3     1  UNL1        0.2054
     38 O          61.5660   94.4459   -2.0138 O.3     1  UNL1       -0.4755
     39 C          62.7512   94.3501   -1.2660 C.ar    1  UNL1        0.1388
     40 C          63.9743   94.8907   -1.7042 C.ar    1  UNL1        0.0369
     41 C          65.1203   94.7617   -0.9177 C.ar    1  UNL1        0.0033
     42 C          65.0626   94.0979    0.3097 C.ar    1  UNL1        0.0066
     43 C          63.8494   93.5551    0.7678 C.ar    1  UNL1        0.0785
     44 C          62.7021   93.6794   -0.0375 C.ar    1  UNL1        0.0433
     45 C          63.7696   92.8406    2.0654 C.2     1  UNL1        0.3381
     46 O          63.4273   91.6285    2.0915 O.2     1  UNL1       -0.2451
     47 O          64.0497   93.4780    3.2738 O.3     1  UNL1       -0.4771
     48 H          64.2295   94.4714    3.3378 H       1  UNL1        0.2954
@<TRIPOS>BOND
     1     5     6    1
     2     6     7   ar
     3     7     1    1
     4     1     2    2
     5     1     3   am
     6     3    25    1
     7    25    26   ar
     8    26    27   ar
     9    27    28   ar
    10    28    31    1
    11    31    32    1
    12    32    33    1
    13    33    34    1
    14    34    37    1
    15    37    38    1
    16    38    39    1
    17    39    40   ar
    18    40    41   ar
    19    41    42   ar
    20    42    43   ar
    21    43    45    1
    22    45    46    2
    23    45    47    1
    24    43    44   ar
    25    34    35    1
    26    35    36    1
    27    28    29   ar
    28    29    30   ar
    29     7     8   ar
    30     8     9   ar
    31     9    10   ar
    32    10    11   ar
    33    11    12   ar
    34    12    15    1
    35    15    16   ar
    36    16    17   ar
    37    17    18   ar
    38    18    21    1
    39    21    22    2
    40    21    23    1
    41    18    19   ar
    42    19    20   ar
    43    12    13   ar
    44    13    14   ar
    45    14     6   ar
    46    30    25   ar
    47    14     9   ar
    48    36    31    1
    49    20    15   ar
    50    44    39   ar
    51     3     4    1
    52    47    48    1
    53    23    24    1
