@<TRIPOS>MOLECULE
*****
 46 51 0 0 0
SMALL
GASTEIGER

@<TRIPOS>ATOM
      1 C          59.8028   88.8633    7.6758 C.ar    1  UNL1        0.0702
      2 C          60.0864   88.9179    9.0454 C.ar    1  UNL1        0.0191
      3 C          59.7455   87.8516    9.8787 C.ar    1  UNL1        0.0356
      4 C          59.1258   86.7140    9.3332 C.ar    1  UNL1        0.1318
      5 N          58.8855   86.6732    7.9923 N.ar    1  UNL1       -0.2279
      6 C          59.2059   87.7009    7.1626 C.ar    1  UNL1        0.1149
      7 N          58.7576   85.5890   10.1615 N.pl3   1  UNL1       -0.2932
      8 C          59.4515   85.3661   11.4394 C.3     1  UNL1        0.0923
      9 C          58.4914   84.7462   12.4594 C.3     1  UNL1        0.0252
     10 C          57.8483   83.4251   11.9560 C.3     1  UNL1        0.0472
     11 C          57.9289   83.2652   10.4187 C.3     1  UNL1        0.0252
     12 C          57.7670   84.6048    9.6925 C.3     1  UNL1        0.0923
     13 C          58.4699   82.2069   12.6591 C.3     1  UNL1        0.2054
     14 O          59.8781   82.3886   12.7960 O.3     1  UNL1       -0.4755
     15 C          60.8372   81.8404   11.9319 C.ar    1  UNL1        0.1388
     16 C          60.7821   80.5041   11.4946 C.ar    1  UNL1        0.0369
     17 C          61.7628   80.0064   10.6342 C.ar    1  UNL1        0.0033
     18 C          62.8042   80.8308   10.2020 C.ar    1  UNL1        0.0066
     19 C          62.8753   82.1686   10.6284 C.ar    1  UNL1        0.0785
     20 C          61.8837   82.6623   11.4949 C.ar    1  UNL1        0.0433
     21 C          63.9759   83.0475   10.1746 C.2     1  UNL1        0.3381
     22 O          65.1621   82.8264   10.5405 O.2     1  UNL1       -0.2451
     23 O          63.7115   84.1287    9.3377 O.3     1  UNL1       -0.4771
     24 H          64.4575   84.7365    9.0213 H       1  UNL1        0.2954
     25 C          59.2997   90.5722    5.8716 C.2     1  UNL1        0.2839
     26 O          58.0514   90.5054    6.0315 O.2     1  UNL1       -0.2665
     27 N          60.1806   89.9595    6.8252 N.am    1  UNL1       -0.2766
     28 H          61.1148   90.4018    6.9785 H       1  UNL1        0.1553
     29 C          62.0467   92.5924    2.2011 C.ar    1  UNL1        0.1413
     30 C          61.7581   93.7029    1.3600 C.ar    1  UNL1        0.0342
     31 C          60.5386   94.4087    1.5290 C.ar    1  UNL1        0.0061
     32 C          59.6054   94.0141    2.5005 C.ar    1  UNL1        0.0377
     33 C          59.9074   92.9087    3.2863 C.ar    1  UNL1        0.1481
     34 O          59.1737   92.3943    4.2419 O.2     1  UNL1       -0.4491
     35 C          59.8293   91.3678    4.7505 C.ar    1  UNL1        0.1947
     36 C          61.0405   91.1880    4.0710 C.ar    1  UNL1        0.0231
     37 C          62.0699   90.1174    4.2833 C.3     1  UNL1        0.0346
     38 C          61.0781   92.2114    3.1383 C.ar    1  UNL1        0.0676
     39 C          62.6872   94.1153    0.2814 C.ar    1  UNL1        0.0029
     40 C          62.2502   94.1582   -1.0544 C.ar    1  UNL1        0.0001
     41 C          63.1270   94.5472   -2.0719 C.ar    1  UNL1        0.0000
     42 C          64.4464   94.8907   -1.7667 C.ar    1  UNL1        0.0000
     43 C          64.8925   94.8435   -0.4435 C.ar    1  UNL1        0.0000
     44 C          64.0196   94.4552    0.5773 C.ar    1  UNL1        0.0001
     45 C          64.4723   92.4482    2.6194 C.3     1  UNL1        0.2525
     46 O          63.2576   91.8996    2.1221 O.3     1  UNL1       -0.4713
@<TRIPOS>BOND
     1    45    46    1
     2    46    29    1
     3    29    30   ar
     4    30    39    1
     5    39    40   ar
     6    40    41   ar
     7    41    42   ar
     8    42    43   ar
     9    43    44   ar
    10    30    31   ar
    11    31    32   ar
    12    32    33   ar
    13    33    34   ar
    14    34    35   ar
    15    35    25    1
    16    25    26    2
    17    25    27   am
    18    27     1    1
    19     1     2   ar
    20     2     3   ar
    21     3     4   ar
    22     4     7    1
    23     7     8    1
    24     8     9    1
    25     9    10    1
    26    10    13    1
    27    13    14    1
    28    14    15    1
    29    15    16   ar
    30    16    17   ar
    31    17    18   ar
    32    18    19   ar
    33    19    21    1
    34    21    22    2
    35    21    23    1
    36    19    20   ar
    37    10    11    1
    38    11    12    1
    39     4     5   ar
    40     5     6   ar
    41    35    36   ar
    42    36    37    1
    43    36    38   ar
    44    38    29   ar
    45    44    39   ar
    46    38    33   ar
    47     6     1   ar
    48    12     7    1
    49    20    15   ar
    50    27    28    1
    51    23    24    1
@<TRIPOS>MOLECULE
*****
 46 51 0 0 0
SMALL
GASTEIGER

@<TRIPOS>ATOM
      1 C          60.0001   89.1317    8.0133 C.ar    1  UNL1        0.0702
      2 C          59.1576   88.0825    7.6277 C.ar    1  UNL1        0.0191
      3 C          58.8948   87.0306    8.5063 C.ar    1  UNL1        0.0356
      4 C          59.4711   87.0355    9.7884 C.ar    1  UNL1        0.1318
      5 N          60.2653   88.0823   10.1502 N.ar    1  UNL1       -0.2279
      6 C          60.5376   89.1154    9.3102 C.ar    1  UNL1        0.1149
      7 N          59.2236   85.9659   10.7275 N.pl3   1  UNL1       -0.2932
      8 C          60.3397   85.1232   11.1838 C.3     1  UNL1        0.0923
      9 C          60.1045   84.6744   12.6295 C.3     1  UNL1        0.0252
     10 C          58.7539   83.9309   12.8174 C.3     1  UNL1        0.0472
     11 C          57.7521   84.2053   11.6700 C.3     1  UNL1        0.0252
     12 C          57.8506   85.6447   11.1534 C.3     1  UNL1        0.0923
     13 C          58.9766   82.4192   12.9900 C.3     1  UNL1        0.2054
     14 O          58.4503   81.7169   11.8655 O.3     1  UNL1       -0.4755
     15 C          59.1926   81.3712   10.7268 C.ar    1  UNL1        0.1388
     16 C          60.3876   80.6320   10.8014 C.ar    1  UNL1        0.0369
     17 C          61.0898   80.3141    9.6371 C.ar    1  UNL1        0.0033
     18 C          60.6114   80.7272    8.3916 C.ar    1  UNL1        0.0066
     19 C          59.4191   81.4663    8.2977 C.ar    1  UNL1        0.0785
     20 C          58.7177   81.7823    9.4750 C.ar    1  UNL1        0.0433
     21 C          58.9065   81.9072    6.9815 C.2     1  UNL1        0.3381
     22 O          59.5404   82.7596    6.3021 O.2     1  UNL1       -0.2451
     23 O          57.7174   81.3840    6.4799 O.3     1  UNL1       -0.4771
     24 H          57.3577   81.6790    5.5800 H       1  UNL1        0.2954
     25 C          59.4182   90.5141    5.9691 C.2     1  UNL1        0.2839
     26 O          58.2141   90.1424    5.9502 O.2     1  UNL1       -0.2665
     27 N          60.2436   90.2207    7.1063 N.am    1  UNL1       -0.2766
     28 H          61.0037   90.8975    7.3431 H       1  UNL1        0.1553
     29 C          62.0242   92.5157    2.1872 C.ar    1  UNL1        0.1413
     30 C          61.7760   93.7037    1.4450 C.ar    1  UNL1        0.0342
     31 C          60.6523   94.5076    1.7689 C.ar    1  UNL1        0.0061
     32 C          59.7721   94.1364    2.7975 C.ar    1  UNL1        0.0377
     33 C          60.0294   92.9559    3.4838 C.ar    1  UNL1        0.1481
     34 O          59.3337   92.4480    4.4708 O.2     1  UNL1       -0.4491
     35 C          59.9253   91.3318    4.8535 C.ar    1  UNL1        0.1947
     36 C          61.0490   91.0864    4.0546 C.ar    1  UNL1        0.0231
     37 C          61.9809   89.9117    4.1054 C.3     1  UNL1        0.0346
     38 C          61.1074   92.1636    3.1858 C.ar    1  UNL1        0.0676
     39 C          62.6445   94.1004    0.3115 C.ar    1  UNL1        0.0029
     40 C          62.1525   94.0677   -1.0054 C.ar    1  UNL1        0.0001
     41 C          62.9722   94.4419   -2.0748 C.ar    1  UNL1        0.0000
     42 C          64.2890   94.8459   -1.8404 C.ar    1  UNL1        0.0000
     43 C          64.7897   94.8740   -0.5364 C.ar    1  UNL1        0.0000
     44 C          63.9740   94.5008    0.5360 C.ar    1  UNL1        0.0001
     45 C          64.2675   91.7217    2.8328 C.3     1  UNL1        0.2525
     46 O          63.1486   91.7193    1.9544 O.3     1  UNL1       -0.4713
@<TRIPOS>BOND
     1    45    46    1
     2    46    29    1
     3    29    30   ar
     4    30    39    1
     5    39    40   ar
     6    40    41   ar
     7    41    42   ar
     8    42    43   ar
     9    43    44   ar
    10    30    31   ar
    11    31    32   ar
    12    32    33   ar
    13    33    34   ar
    14    34    35   ar
    15    35    25    1
    16    25    26    2
    17    25    27   am
    18    27     1    1
    19     1     2   ar
    20     2     3   ar
    21     3     4   ar
    22     4     7    1
    23     7     8    1
    24     8     9    1
    25     9    10    1
    26    10    13    1
    27    13    14    1
    28    14    15    1
    29    15    16   ar
    30    16    17   ar
    31    17    18   ar
    32    18    19   ar
    33    19    21    1
    34    21    22    2
    35    21    23    1
    36    19    20   ar
    37    10    11    1
    38    11    12    1
    39     4     5   ar
    40     5     6   ar
    41    35    36   ar
    42    36    37    1
    43    36    38   ar
    44    38    29   ar
    45    44    39   ar
    46    38    33   ar
    47     6     1   ar
    48    12     7    1
    49    20    15   ar
    50    27    28    1
    51    23    24    1
@<TRIPOS>MOLECULE
*****
 46 51 0 0 0
SMALL
GASTEIGER

@<TRIPOS>ATOM
      1 C          61.5149   87.4942   10.9154 C.ar    1  UNL1        0.0702
      2 C          60.2277   87.1435   11.3388 C.ar    1  UNL1        0.0191
      3 C          59.5475   86.0895   10.7273 C.ar    1  UNL1        0.0356
      4 C          60.1672   85.3711    9.6902 C.ar    1  UNL1        0.1318
      5 N          61.4318   85.7138    9.3149 N.ar    1  UNL1       -0.2279
      6 C          62.1118   86.7383    9.8939 C.ar    1  UNL1        0.1149
      7 N          59.4974   84.2732    9.0320 N.pl3   1  UNL1       -0.2932
      8 C          58.4702   83.5071    9.7545 C.3     1  UNL1        0.0923
      9 C          57.3920   83.0220    8.7804 C.3     1  UNL1        0.0252
     10 C          57.9713   82.1801    7.6109 C.3     1  UNL1        0.0472
     11 C          59.4903   82.3976    7.4087 C.3     1  UNL1        0.0252
     12 C          59.9044   83.8475    7.6819 C.3     1  UNL1        0.0923
     13 C          57.6600   80.6862    7.8005 C.3     1  UNL1        0.2054
     14 O          57.4315   80.4067    9.1805 O.3     1  UNL1       -0.4755
     15 C          58.4455   80.2191   10.1311 C.ar    1  UNL1        0.1388
     16 C          58.1827   80.1591   11.5122 C.ar    1  UNL1        0.0369
     17 C          59.2286   79.9713   12.4179 C.ar    1  UNL1        0.0033
     18 C          60.5417   79.8418   11.9599 C.ar    1  UNL1        0.0066
     19 C          60.8232   79.8990   10.5836 C.ar    1  UNL1        0.0785
     20 C          59.7642   80.0883    9.6778 C.ar    1  UNL1        0.0433
     21 C          62.2120   79.7627   10.0913 C.2     1  UNL1        0.3381
     22 O          62.9854   80.7585   10.0775 O.2     1  UNL1       -0.2451
     23 O          62.6786   78.5314    9.6382 O.3     1  UNL1       -0.4771
     24 H          63.6275   78.4272    9.2992 H       1  UNL1        0.2954
     25 C          62.7429   89.7122   10.8846 C.2     1  UNL1        0.2839
     26 O          62.2513   90.0707    9.7809 O.2     1  UNL1       -0.2665
     27 N          62.2131   88.5674   11.5699 N.am    1  UNL1       -0.2766
     28 H          62.2499   88.5658   12.6142 H       1  UNL1        0.1553
     29 C          66.0921   91.8840   13.9122 C.ar    1  UNL1        0.1413
     30 C          66.9464   92.9953   13.6689 C.ar    1  UNL1        0.0342
     31 C          66.8952   93.6538   12.4128 C.ar    1  UNL1        0.0061
     32 C          66.0282   93.2114   11.4013 C.ar    1  UNL1        0.0377
     33 C          65.2276   92.1065   11.6634 C.ar    1  UNL1        0.1481
     34 O          64.3574   91.5519   10.8562 O.2     1  UNL1       -0.4491
     35 C          63.7956   90.5426   11.4950 C.ar    1  UNL1        0.1947
     36 C          64.3498   90.4170   12.7749 C.ar    1  UNL1        0.0231
     37 C          64.0451   89.3815   13.8170 C.3     1  UNL1        0.0346
     38 C          65.2628   91.4544   12.8684 C.ar    1  UNL1        0.0676
     39 C          67.9200   93.4568   14.6866 C.ar    1  UNL1        0.0029
     40 C          67.5627   94.4558   15.6095 C.ar    1  UNL1        0.0001
     41 C          68.4815   94.8913   16.5695 C.ar    1  UNL1        0.0000
     42 C          69.7640   94.3387   16.6134 C.ar    1  UNL1        0.0000
     43 C          70.1313   93.3514   15.6956 C.ar    1  UNL1        0.0000
     44 C          69.2162   92.9128   14.7339 C.ar    1  UNL1        0.0001
     45 C          65.1902   91.6635   16.1964 C.3     1  UNL1        0.2525
     46 O          66.0545   91.2369   15.1501 O.3     1  UNL1       -0.4713
@<TRIPOS>BOND
     1    45    46    1
     2    46    29    1
     3    29    30   ar
     4    30    39    1
     5    39    40   ar
     6    40    41   ar
     7    41    42   ar
     8    42    43   ar
     9    43    44   ar
    10    30    31   ar
    11    31    32   ar
    12    32    33   ar
    13    33    34   ar
    14    34    35   ar
    15    35    25    1
    16    25    26    2
    17    25    27   am
    18    27     1    1
    19     1     2   ar
    20     2     3   ar
    21     3     4   ar
    22     4     7    1
    23     7     8    1
    24     8     9    1
    25     9    10    1
    26    10    13    1
    27    13    14    1
    28    14    15    1
    29    15    16   ar
    30    16    17   ar
    31    17    18   ar
    32    18    19   ar
    33    19    21    1
    34    21    22    2
    35    21    23    1
    36    19    20   ar
    37    10    11    1
    38    11    12    1
    39     4     5   ar
    40     5     6   ar
    41    35    36   ar
    42    36    37    1
    43    36    38   ar
    44    38    29   ar
    45    44    39   ar
    46    38    33   ar
    47     6     1   ar
    48    12     7    1
    49    20    15   ar
    50    27    28    1
    51    23    24    1
