@<TRIPOS>MOLECULE
*****
 48 53 0 0 0
SMALL
GASTEIGER

@<TRIPOS>ATOM
      1 O          61.1180   84.1868    9.0401 O.2     1  UNL1       -0.2701
      2 C          60.3168   85.0687    9.4550 C.2     1  UNL1        0.2483
      3 N          59.7665   84.9684   10.7786 N.am    1  UNL1       -0.2945
      4 H          59.3490   85.8285   11.1980 H       1  UNL1        0.1501
      5 C          59.9913   86.2196    8.5820 C.ar    1  UNL1        0.0808
      6 C          60.8039   87.3651    8.6134 C.ar    1  UNL1        0.0080
      7 C          60.5097   88.4675    7.8074 C.ar    1  UNL1        0.0148
      8 C          59.4043   88.4421    6.9430 C.ar    1  UNL1        0.0502
      9 C          58.5969   87.2950    6.9015 C.ar    1  UNL1        0.0443
     10 C          58.8883   86.1894    7.7067 C.ar    1  UNL1        0.1457
     11 F          58.1205   85.0776    7.5878 F       1  UNL1       -0.2040
     12 N          59.0914   89.5850    6.1238 N.pl3   1  UNL1       -0.3040
     13 C          57.8485   89.6299    5.3404 C.3     1  UNL1        0.1122
     14 C          58.1750   89.8952    3.8663 C.3     1  UNL1        0.1122
     15 N          59.2076   90.9349    3.7241 N.pl3   1  UNL1       -0.3040
     16 C          59.6648   91.6734    4.9099 C.3     1  UNL1        0.1122
     17 C          60.0626   90.6860    6.0130 C.3     1  UNL1        0.1122
     18 C          59.8126   91.1641    2.4371 C.ar    1  UNL1        0.0497
     19 C          59.0187   91.2383    1.2825 C.ar    1  UNL1        0.0265
     20 C          59.5993   91.4744    0.0321 C.ar    1  UNL1        0.0659
     21 CL         58.5520   91.5592   -1.3787 Cl      1  UNL1       -0.0817
     22 C          60.9913   91.6441   -0.0774 C.ar    1  UNL1        0.0557
     23 BR         61.7963   91.9685   -1.7937 Br      1  UNL1       -0.0472
     24 C          61.7896   91.5772    1.0789 C.ar    1  UNL1        0.0659
     25 CL         63.5351   91.7824    1.0002 Cl      1  UNL1       -0.0817
     26 C          61.1997   91.3416    2.3253 C.ar    1  UNL1        0.0265
     27 C          60.0598   83.8312   11.6589 C.3     1  UNL1        0.1535
     28 C          60.9238   84.2654   12.8155 C.2     1  UNL1        0.2443
     29 O          61.4618   83.3968   13.5560 O.2     1  UNL1       -0.2730
     30 N          61.2025   85.6606   13.0109 N.am    1  UNL1       -0.2825
     31 H          60.9808   86.3155   12.2270 H       1  UNL1        0.1549
     32 C          61.8787   86.1921   14.1628 C.ar    1  UNL1        0.0535
     33 C          61.4195   85.9395   15.4667 C.ar    1  UNL1        0.0353
     34 C          62.0956   86.4970   16.5549 C.ar    1  UNL1        0.1002
     35 N          63.1811   87.2893   16.3512 N.ar    1  UNL1       -0.2422
     36 C          63.6360   87.5655   15.1005 C.ar    1  UNL1        0.1002
     37 C          62.9884   87.0294   13.9849 C.ar    1  UNL1        0.0353
     38 C          58.7643   83.1438   12.1385 C.3     1  UNL1        0.0569
     39 C          58.4034   81.9169   11.3443 C.ar    1  UNL1       -0.0017
     40 C          57.9931   81.8822   10.0142 C.ar    1  UNL1        0.0681
     41 N          57.7906   80.6063    9.6146 N.ar    1  UNL1       -0.3523
     42 C          58.0687   79.8347   10.6795 C.ar    1  UNL1        0.0563
     43 C          58.0115   78.4435   10.7520 C.ar    1  UNL1        0.0170
     44 C          58.3522   77.8340   11.9734 C.ar    1  UNL1        0.0015
     45 C          58.7358   78.6198   13.0827 C.ar    1  UNL1        0.0001
     46 C          58.7827   80.0218   12.9808 C.ar    1  UNL1        0.0012
     47 C          58.4444   80.5978   11.7557 C.ar    1  UNL1        0.0131
     48 H          57.4852   80.2891    8.6677 H       1  UNL1        0.1660
@<TRIPOS>BOND
     1     1     2    2
     2     2     3   am
     3     3    27    1
     4    27    38    1
     5    38    39    1
     6    39    40   ar
     7    40    41   ar
     8    41    42   ar
     9    42    43   ar
    10    43    44   ar
    11    44    45   ar
    12    45    46   ar
    13    46    47   ar
    14    27    28    1
    15    28    29    2
    16    28    30   am
    17    30    32    1
    18    32    33   ar
    19    33    34   ar
    20    34    35   ar
    21    35    36   ar
    22    36    37   ar
    23     2     5    1
    24     5     6   ar
    25     6     7   ar
    26     7     8   ar
    27     8    12    1
    28    12    13    1
    29    13    14    1
    30    14    15    1
    31    15    18    1
    32    18    19   ar
    33    19    20   ar
    34    20    21    1
    35    20    22   ar
    36    22    23    1
    37    22    24   ar
    38    24    25    1
    39    24    26   ar
    40    15    16    1
    41    16    17    1
    42     8     9   ar
    43     9    10   ar
    44    10    11    1
    45    47    39   ar
    46    37    32   ar
    47    10     5   ar
    48    47    42   ar
    49    17    12    1
    50    26    18   ar
    51     3     4    1
    52    41    48    1
    53    30    31    1
@<TRIPOS>MOLECULE
*****
 48 53 0 0 0
SMALL
GASTEIGER

@<TRIPOS>ATOM
      1 O          60.5656   84.0554    8.6789 O.2     1  UNL1       -0.2701
      2 C          60.0183   85.0560    9.2184 C.2     1  UNL1        0.2483
      3 N          59.6841   85.0209   10.6155 N.am    1  UNL1       -0.2945
      4 H          59.5055   85.9305   11.0957 H       1  UNL1        0.1501
      5 C          59.7697   86.2701    8.4080 C.ar    1  UNL1        0.0808
      6 C          58.6558   86.3168    7.5532 C.ar    1  UNL1        0.0080
      7 C          58.4076   87.4469    6.7704 C.ar    1  UNL1        0.0148
      8 C          59.2606   88.5594    6.8363 C.ar    1  UNL1        0.0502
      9 C          60.3680   88.5199    7.6974 C.ar    1  UNL1        0.0443
     10 C          60.6198   87.3905    8.4827 C.ar    1  UNL1        0.1457
     11 F          61.6635   87.4196    9.3486 F       1  UNL1       -0.2040
     12 N          59.0139   89.7184    6.0171 N.pl3   1  UNL1       -0.3040
     13 C          57.7708   89.8393    5.2419 C.3     1  UNL1        0.1122
     14 C          58.1032   90.0817    3.7652 C.3     1  UNL1        0.1122
     15 N          59.1975   91.0550    3.6141 N.pl3   1  UNL1       -0.3040
     16 C          59.7077   91.7654    4.7956 C.3     1  UNL1        0.1122
     17 C          60.0508   90.7567    5.8978 C.3     1  UNL1        0.1122
     18 C          59.8068   91.2443    2.3228 C.ar    1  UNL1        0.0497
     19 C          61.1966   91.4015    2.2097 C.ar    1  UNL1        0.0265
     20 C          61.7951   91.5719    0.9570 C.ar    1  UNL1        0.0659
     21 CL         63.5422   91.7616    0.8788 Cl      1  UNL1       -0.0817
     22 C          61.0040   91.5830   -0.2060 C.ar    1  UNL1        0.0557
     23 BR         61.8205   91.8174   -1.9315 Br      1  UNL1       -0.0472
     24 C          59.6112   91.4188   -0.0970 C.ar    1  UNL1        0.0659
     25 CL         58.5741   91.4243   -1.5181 Cl      1  UNL1       -0.0817
     26 C          59.0217   91.2481    1.1602 C.ar    1  UNL1        0.0265
     27 C          59.9053   83.8258   11.4384 C.3     1  UNL1        0.1535
     28 C          60.7511   84.1596   12.6409 C.2     1  UNL1        0.2443
     29 O          61.2154   83.2304   13.3574 O.2     1  UNL1       -0.2730
     30 N          61.0982   85.5271   12.9093 N.am    1  UNL1       -0.2825
     31 H          60.9394   86.2274   12.1497 H       1  UNL1        0.1549
     32 C          61.7620   85.9686   14.1055 C.ar    1  UNL1        0.0535
     33 C          61.2347   85.7015   15.3805 C.ar    1  UNL1        0.0353
     34 C          61.9029   86.1711   16.5141 C.ar    1  UNL1        0.1002
     35 N          63.0468   86.8932   16.3822 N.ar    1  UNL1       -0.2422
     36 C          63.5693   87.1822   15.1612 C.ar    1  UNL1        0.1002
     37 C          62.9321   86.7328   14.0021 C.ar    1  UNL1        0.0353
     38 C          58.5695   83.1678   11.8430 C.3     1  UNL1        0.0569
     39 C          58.2976   81.8691   11.1317 C.ar    1  UNL1       -0.0017
     40 C          57.9417   81.7159    9.7943 C.ar    1  UNL1        0.0681
     41 N          57.8148   80.4054    9.4857 N.ar    1  UNL1       -0.3523
     42 C          58.0869   79.7294   10.6151 C.ar    1  UNL1        0.0563
     43 C          58.0920   78.3463   10.7908 C.ar    1  UNL1        0.0170
     44 C          58.4128   77.8465   12.0662 C.ar    1  UNL1        0.0015
     45 C          58.7156   78.7302   13.1256 C.ar    1  UNL1        0.0001
     46 C          58.7009   80.1214   12.9196 C.ar    1  UNL1        0.0012
     47 C          58.3842   80.5878   11.6431 C.ar    1  UNL1        0.0131
     48 H          57.5618   80.0043    8.5553 H       1  UNL1        0.1660
@<TRIPOS>BOND
     1     1     2    2
     2     2     3   am
     3     3    27    1
     4    27    38    1
     5    38    39    1
     6    39    40   ar
     7    40    41   ar
     8    41    42   ar
     9    42    43   ar
    10    43    44   ar
    11    44    45   ar
    12    45    46   ar
    13    46    47   ar
    14    27    28    1
    15    28    29    2
    16    28    30   am
    17    30    32    1
    18    32    33   ar
    19    33    34   ar
    20    34    35   ar
    21    35    36   ar
    22    36    37   ar
    23     2     5    1
    24     5     6   ar
    25     6     7   ar
    26     7     8   ar
    27     8    12    1
    28    12    13    1
    29    13    14    1
    30    14    15    1
    31    15    18    1
    32    18    19   ar
    33    19    20   ar
    34    20    21    1
    35    20    22   ar
    36    22    23    1
    37    22    24   ar
    38    24    25    1
    39    24    26   ar
    40    15    16    1
    41    16    17    1
    42     8     9   ar
    43     9    10   ar
    44    10    11    1
    45    47    39   ar
    46    37    32   ar
    47    10     5   ar
    48    47    42   ar
    49    17    12    1
    50    26    18   ar
    51     3     4    1
    52    41    48    1
    53    30    31    1
@<TRIPOS>MOLECULE
*****
 48 53 0 0 0
SMALL
GASTEIGER

@<TRIPOS>ATOM
      1 O          62.4532   85.9503   12.0029 O.2     1  UNL1       -0.2701
      2 C          62.0334   87.1281   11.8347 C.2     1  UNL1        0.2483
      3 N          62.1790   88.0957   12.8870 N.am    1  UNL1       -0.2945
      4 H          62.0942   89.1051   12.6345 H       1  UNL1        0.1501
      5 C          61.4355   87.5049   10.5336 C.ar    1  UNL1        0.0808
      6 C          62.0465   88.4994    9.7519 C.ar    1  UNL1        0.0080
      7 C          61.4941   88.8796    8.5264 C.ar    1  UNL1        0.0148
      8 C          60.3264   88.2633    8.0506 C.ar    1  UNL1        0.0502
      9 C          59.7197   87.2619    8.8242 C.ar    1  UNL1        0.0443
     10 C          60.2698   86.8785   10.0514 C.ar    1  UNL1        0.1457
     11 F          59.6883   85.8620   10.7359 F       1  UNL1       -0.2040
     12 N          59.7476   88.6667    6.7946 N.pl3   1  UNL1       -0.3040
     13 C          59.8040   87.7810    5.6228 C.3     1  UNL1        0.1122
     14 C          60.4449   88.5223    4.4440 C.3     1  UNL1        0.1122
     15 N          59.9393   89.9009    4.3381 N.pl3   1  UNL1       -0.3040
     16 C          58.8346   90.3392    5.2031 C.3     1  UNL1        0.1122
     17 C          59.1599   90.0103    6.6646 C.3     1  UNL1        0.1122
     18 C          60.5826   90.8268    3.4417 C.ar    1  UNL1        0.0497
     19 C          61.9747   90.7962    3.2684 C.ar    1  UNL1        0.0265
     20 C          62.6033   91.6839    2.3889 C.ar    1  UNL1        0.0659
     21 CL         64.3512   91.5957    2.2121 Cl      1  UNL1       -0.0817
     22 C          61.8395   92.6167    1.6643 C.ar    1  UNL1        0.0557
     23 BR         62.6975   93.8405    0.4538 Br      1  UNL1       -0.0472
     24 C          60.4430   92.6457    1.8304 C.ar    1  UNL1        0.0659
     25 CL         59.4393   93.7910    0.9496 Cl      1  UNL1       -0.0817
     26 C          59.8232   91.7533    2.7117 C.ar    1  UNL1        0.0265
     27 C          62.7536   87.7458   14.1915 C.3     1  UNL1        0.1535
     28 C          63.7167   88.8114   14.6494 C.2     1  UNL1        0.2443
     29 O          63.5020   89.4274   15.7295 O.2     1  UNL1       -0.2730
     30 N          64.9183   89.0537   13.9009 N.am    1  UNL1       -0.2825
     31 H          65.1986   88.3432   13.1873 H       1  UNL1        0.1549
     32 C          65.8199   90.1434   14.1578 C.ar    1  UNL1        0.0535
     33 C          65.6881   91.3779   13.4992 C.ar    1  UNL1        0.0353
     34 C          66.6026   92.4005   13.7638 C.ar    1  UNL1        0.1002
     35 N          67.6203   92.1962   14.6414 N.ar    1  UNL1       -0.2422
     36 C          67.7828   91.0066   15.2784 C.ar    1  UNL1        0.1002
     37 C          66.8914   89.9574   15.0417 C.ar    1  UNL1        0.0353
     38 C          61.6509   87.4829   15.2383 C.3     1  UNL1        0.0569
     39 C          60.8172   86.2647   14.9426 C.ar    1  UNL1       -0.0017
     40 C          61.1712   84.9400   15.1846 C.ar    1  UNL1        0.0681
     41 N          60.1645   84.1091   14.8313 N.ar    1  UNL1       -0.3523
     42 C          59.1781   84.8961   14.3682 C.ar    1  UNL1        0.0563
     43 C          57.9305   84.4946   13.8927 C.ar    1  UNL1        0.0170
     44 C          57.0398   85.4931   13.4580 C.ar    1  UNL1        0.0015
     45 C          57.4126   86.8546   13.5059 C.ar    1  UNL1        0.0001
     46 C          58.6790   87.2303   13.9891 C.ar    1  UNL1        0.0012
     47 C          59.5391   86.2186   14.4179 C.ar    1  UNL1        0.0131
     48 H          60.1572   83.0678   14.9093 H       1  UNL1        0.1660
@<TRIPOS>BOND
     1     1     2    2
     2     2     3   am
     3     3    27    1
     4    27    38    1
     5    38    39    1
     6    39    40   ar
     7    40    41   ar
     8    41    42   ar
     9    42    43   ar
    10    43    44   ar
    11    44    45   ar
    12    45    46   ar
    13    46    47   ar
    14    27    28    1
    15    28    29    2
    16    28    30   am
    17    30    32    1
    18    32    33   ar
    19    33    34   ar
    20    34    35   ar
    21    35    36   ar
    22    36    37   ar
    23     2     5    1
    24     5     6   ar
    25     6     7   ar
    26     7     8   ar
    27     8    12    1
    28    12    13    1
    29    13    14    1
    30    14    15    1
    31    15    18    1
    32    18    19   ar
    33    19    20   ar
    34    20    21    1
    35    20    22   ar
    36    22    23    1
    37    22    24   ar
    38    24    25    1
    39    24    26   ar
    40    15    16    1
    41    16    17    1
    42     8     9   ar
    43     9    10   ar
    44    10    11    1
    45    47    39   ar
    46    37    32   ar
    47    10     5   ar
    48    47    42   ar
    49    17    12    1
    50    26    18   ar
    51     3     4    1
    52    41    48    1
    53    30    31    1
@<TRIPOS>MOLECULE
*****
 48 53 0 0 0
SMALL
GASTEIGER

@<TRIPOS>ATOM
      1 O          59.0138   84.0783    9.6753 O.2     1  UNL1       -0.2701
      2 C          59.1030   84.1812    8.4209 C.2     1  UNL1        0.2483
      3 N          59.0796   82.9995    7.6036 N.am    1  UNL1       -0.2945
      4 H          58.8677   83.1151    6.5879 H       1  UNL1        0.1501
      5 C          59.1861   85.5269    7.8088 C.ar    1  UNL1        0.0808
      6 C          58.0105   86.1711    7.3886 C.ar    1  UNL1        0.0080
      7 C          58.0654   87.4358    6.7978 C.ar    1  UNL1        0.0148
      8 C          59.2960   88.0886    6.6274 C.ar    1  UNL1        0.0502
      9 C          60.4710   87.4523    7.0560 C.ar    1  UNL1        0.0443
     10 C          60.4201   86.1863    7.6480 C.ar    1  UNL1        0.1457
     11 F          61.5719   85.6357    8.1065 F       1  UNL1       -0.2040
     12 N          59.3542   89.3857    6.0035 N.pl3   1  UNL1       -0.3040
     13 C          58.1378   90.0213    5.4770 C.3     1  UNL1        0.1122
     14 C          58.3424   90.3890    4.0029 C.3     1  UNL1        0.1122
     15 N          59.6729   90.9770    3.7761 N.pl3   1  UNL1       -0.3040
     16 C          60.5390   91.2818    4.9241 C.3     1  UNL1        0.1122
     17 C          60.6573   90.0474    5.8253 C.3     1  UNL1        0.1122
     18 C          60.1413   91.1766    2.4287 C.ar    1  UNL1        0.0497
     19 C          59.2324   91.2228    1.3607 C.ar    1  UNL1        0.0265
     20 C          59.6803   91.4302    0.0519 C.ar    1  UNL1        0.0659
     21 CL         58.4929   91.4808   -1.2450 Cl      1  UNL1       -0.0817
     22 C          61.0530   91.5989   -0.2043 C.ar    1  UNL1        0.0557
     23 BR         61.6757   91.8838   -2.0016 Br      1  UNL1       -0.0472
     24 C          61.9664   91.5600    0.8647 C.ar    1  UNL1        0.0659
     25 CL         63.6937   91.7653    0.6018 Cl      1  UNL1       -0.0817
     26 C          61.5088   91.3530    2.1705 C.ar    1  UNL1        0.0265
     27 C          59.0135   81.6532    8.1844 C.3     1  UNL1        0.1535
     28 C          60.2982   81.3211    8.8999 C.2     1  UNL1        0.2443
     29 O          60.7431   80.1406    8.8727 O.2     1  UNL1       -0.2730
     30 N          61.0534   82.3681    9.5291 N.am    1  UNL1       -0.2825
     31 H          60.8081   83.3558    9.2906 H       1  UNL1        0.1549
     32 C          62.2003   82.1414   10.3657 C.ar    1  UNL1        0.0535
     33 C          62.0766   81.5731   11.6450 C.ar    1  UNL1        0.0353
     34 C          63.2172   81.3935   12.4317 C.ar    1  UNL1        0.1002
     35 N          64.4348   81.7794   11.9671 N.ar    1  UNL1       -0.2422
     36 C          64.5813   82.3485   10.7415 C.ar    1  UNL1        0.1002
     37 C          63.4666   82.5473    9.9234 C.ar    1  UNL1        0.0353
     38 C          57.7875   81.5002    9.1087 C.3     1  UNL1        0.0569
     39 C          58.1460   81.2920   10.5559 C.ar    1  UNL1       -0.0017
     40 C          58.3475   82.2855   11.5105 C.ar    1  UNL1        0.0681
     41 N          58.6163   81.7355   12.7163 N.ar    1  UNL1       -0.3523
     42 C          58.5868   80.4043   12.5326 C.ar    1  UNL1        0.0563
     43 C          58.7974   79.4148   13.4920 C.ar    1  UNL1        0.0170
     44 C          58.7139   78.0719   13.0810 C.ar    1  UNL1        0.0015
     45 C          58.4272   77.7519   11.7355 C.ar    1  UNL1        0.0001
     46 C          58.2209   78.7714   10.7888 C.ar    1  UNL1        0.0012
     47 C          58.3050   80.0938   11.2265 C.ar    1  UNL1        0.0131
     48 H          58.8030   82.2457   13.6081 H       1  UNL1        0.1660
@<TRIPOS>BOND
     1     1     2    2
     2     2     3   am
     3     3    27    1
     4    27    38    1
     5    38    39    1
     6    39    40   ar
     7    40    41   ar
     8    41    42   ar
     9    42    43   ar
    10    43    44   ar
    11    44    45   ar
    12    45    46   ar
    13    46    47   ar
    14    27    28    1
    15    28    29    2
    16    28    30   am
    17    30    32    1
    18    32    33   ar
    19    33    34   ar
    20    34    35   ar
    21    35    36   ar
    22    36    37   ar
    23     2     5    1
    24     5     6   ar
    25     6     7   ar
    26     7     8   ar
    27     8    12    1
    28    12    13    1
    29    13    14    1
    30    14    15    1
    31    15    18    1
    32    18    19   ar
    33    19    20   ar
    34    20    21    1
    35    20    22   ar
    36    22    23    1
    37    22    24   ar
    38    24    25    1
    39    24    26   ar
    40    15    16    1
    41    16    17    1
    42     8     9   ar
    43     9    10   ar
    44    10    11    1
    45    47    39   ar
    46    37    32   ar
    47    10     5   ar
    48    47    42   ar
    49    17    12    1
    50    26    18   ar
    51     3     4    1
    52    41    48    1
    53    30    31    1
@<TRIPOS>MOLECULE
*****
 48 53 0 0 0
SMALL
GASTEIGER

@<TRIPOS>ATOM
      1 O          62.6032   86.0144   11.7858 O.2     1  UNL1       -0.2701
      2 C          62.0676   87.1539   11.7054 C.2     1  UNL1        0.2483
      3 N          62.0796   88.0310   12.8435 N.am    1  UNL1       -0.2945
      4 H          61.8971   89.0454   12.6774 H       1  UNL1        0.1501
      5 C          61.4725   87.5852   10.4200 C.ar    1  UNL1        0.0808
      6 C          60.2813   86.9896    9.9731 C.ar    1  UNL1        0.0080
      7 C          59.7077   87.3720    8.7581 C.ar    1  UNL1        0.0148
      8 C          60.3062   88.3680    7.9711 C.ar    1  UNL1        0.0502
      9 C          61.4904   88.9725    8.4200 C.ar    1  UNL1        0.0443
     10 C          62.0675   88.5925    9.6359 C.ar    1  UNL1        0.1457
     11 F          63.1758   89.2476   10.0628 F       1  UNL1       -0.2040
     12 N          59.7236   88.7509    6.7104 N.pl3   1  UNL1       -0.3040
     13 C          59.7653   87.8412    5.5566 C.3     1  UNL1        0.1122
     14 C          60.4058   88.5527    4.3593 C.3     1  UNL1        0.1122
     15 N          59.9116   89.9333    4.2283 N.pl3   1  UNL1       -0.3040
     16 C          58.8160   90.3989    5.0905 C.3     1  UNL1        0.1122
     17 C          59.1470   90.0968    6.5565 C.3     1  UNL1        0.1122
     18 C          60.5579   90.8351    3.3096 C.ar    1  UNL1        0.0497
     19 C          59.7978   91.7248    2.5352 C.ar    1  UNL1        0.0265
     20 C          60.4209   92.6123    1.6516 C.ar    1  UNL1        0.0659
     21 CL         59.4152   93.7055    0.7094 Cl      1  UNL1       -0.0817
     22 C          61.8227   92.6221    1.5350 C.ar    1  UNL1        0.0557
     23 BR         62.6858   93.8394    0.3215 Br      1  UNL1       -0.0472
     24 C          62.5882   91.7363    2.3147 C.ar    1  UNL1        0.0659
     25 CL         64.3440   91.7061    2.2092 Cl      1  UNL1       -0.0817
     26 C          61.9560   90.8530    3.1964 C.ar    1  UNL1        0.0265
     27 C          62.6486   87.6236   14.1337 C.3     1  UNL1        0.1535
     28 C          63.6352   88.6517   14.6261 C.2     1  UNL1        0.2443
     29 O          63.5485   89.0876   15.8071 O.2     1  UNL1       -0.2730
     30 N          64.7208   89.0591   13.7788 N.am    1  UNL1       -0.2825
     31 H          64.9233   88.4777   12.9340 H       1  UNL1        0.1549
     32 C          65.6194   90.1384   14.0857 C.ar    1  UNL1        0.0535
     33 C          66.3914   90.1413   15.2600 C.ar    1  UNL1        0.0353
     34 C          67.2335   91.2235   15.5277 C.ar    1  UNL1        0.1002
     35 N          67.2935   92.2718   14.6645 N.ar    1  UNL1       -0.2422
     36 C          66.5444   92.3041   13.5309 C.ar    1  UNL1        0.1002
     37 C          65.6885   91.2430   13.2260 C.ar    1  UNL1        0.0353
     38 C          61.5422   87.3481   15.1733 C.3     1  UNL1        0.0569
     39 C          60.6736   86.1672   14.8305 C.ar    1  UNL1       -0.0017
     40 C          61.0070   84.8233   14.9774 C.ar    1  UNL1        0.0681
     41 N          59.9719   84.0359   14.6072 N.ar    1  UNL1       -0.3523
     42 C          58.9879   84.8693   14.2276 C.ar    1  UNL1        0.0563
     43 C          57.7173   84.5225   13.7703 C.ar    1  UNL1        0.0170
     44 C          56.8344   85.5633   13.4290 C.ar    1  UNL1        0.0015
     45 C          57.2375   86.9117   13.5490 C.ar    1  UNL1        0.0001
     46 C          58.5266   87.2318   14.0117 C.ar    1  UNL1        0.0012
     47 C          59.3785   86.1788   14.3474 C.ar    1  UNL1        0.0131
     48 H          59.9450   82.9920   14.6204 H       1  UNL1        0.1660
@<TRIPOS>BOND
     1     1     2    2
     2     2     3   am
     3     3    27    1
     4    27    38    1
     5    38    39    1
     6    39    40   ar
     7    40    41   ar
     8    41    42   ar
     9    42    43   ar
    10    43    44   ar
    11    44    45   ar
    12    45    46   ar
    13    46    47   ar
    14    27    28    1
    15    28    29    2
    16    28    30   am
    17    30    32    1
    18    32    33   ar
    19    33    34   ar
    20    34    35   ar
    21    35    36   ar
    22    36    37   ar
    23     2     5    1
    24     5     6   ar
    25     6     7   ar
    26     7     8   ar
    27     8    12    1
    28    12    13    1
    29    13    14    1
    30    14    15    1
    31    15    18    1
    32    18    19   ar
    33    19    20   ar
    34    20    21    1
    35    20    22   ar
    36    22    23    1
    37    22    24   ar
    38    24    25    1
    39    24    26   ar
    40    15    16    1
    41    16    17    1
    42     8     9   ar
    43     9    10   ar
    44    10    11    1
    45    47    39   ar
    46    37    32   ar
    47    10     5   ar
    48    47    42   ar
    49    17    12    1
    50    26    18   ar
    51     3     4    1
    52    41    48    1
    53    30    31    1
@<TRIPOS>MOLECULE
*****
 48 53 0 0 0
SMALL
GASTEIGER

@<TRIPOS>ATOM
      1 O          58.4230   83.0936   12.1175 O.2     1  UNL1       -0.2701
      2 C          59.5288   83.1908   12.7173 C.2     1  UNL1        0.2483
      3 N          60.1800   82.0090   13.2115 N.am    1  UNL1       -0.2945
      4 H          61.1968   82.0733   13.4388 H       1  UNL1        0.1501
      5 C          60.1591   84.5227   12.8626 C.ar    1  UNL1        0.0808
      6 C          59.8796   85.3018   13.9977 C.ar    1  UNL1        0.0080
      7 C          60.4534   86.5663   14.1508 C.ar    1  UNL1        0.0148
      8 C          61.3296   87.0723   13.1783 C.ar    1  UNL1        0.0502
      9 C          61.6193   86.2919   12.0486 C.ar    1  UNL1        0.0443
     10 C          61.0469   85.0256   11.8919 C.ar    1  UNL1        0.1457
     11 F          61.4044   84.2785   10.8176 F       1  UNL1       -0.2040
     12 N          61.9086   88.3829   13.3282 N.pl3   1  UNL1       -0.3040
     13 C          62.0222   89.2899   12.1771 C.3     1  UNL1        0.1122
     14 C          63.4786   89.7399   12.0144 C.3     1  UNL1        0.1122
     15 N          64.0860   90.0721   13.3137 N.pl3   1  UNL1       -0.3040
     16 C          63.2501   90.0969   14.5226 C.3     1  UNL1        0.1122
     17 C          62.4595   88.7880   14.6320 C.3     1  UNL1        0.1122
     18 C          65.5065   90.2948   13.3978 C.ar    1  UNL1        0.0497
     19 C          66.2864   90.3521   12.2327 C.ar    1  UNL1        0.0265
     20 C          67.6641   90.5818   12.3077 C.ar    1  UNL1        0.0659
     21 CL         68.5884   90.6454   10.8124 Cl      1  UNL1       -0.0817
     22 C          68.2811   90.7621   13.5588 C.ar    1  UNL1        0.0557
     23 BR         70.1751   91.0777   13.6691 Br      1  UNL1       -0.0472
     24 C          67.5014   90.7120   14.7285 C.ar    1  UNL1        0.0659
     25 CL         68.2206   90.9309   16.3190 Cl      1  UNL1       -0.0817
     26 C          66.1239   90.4827   14.6434 C.ar    1  UNL1        0.0265
     27 C          59.5708   80.6787   13.0949 C.3     1  UNL1        0.1535
     28 C          58.9794   80.4853   11.7217 C.2     1  UNL1        0.2443
     29 O          57.9364   79.7892   11.5814 O.2     1  UNL1       -0.2730
     30 N          59.5537   81.1691   10.5968 N.am    1  UNL1       -0.2825
     31 H          60.2251   81.9464   10.7909 H       1  UNL1        0.1549
     32 C          59.1698   80.9349    9.2315 C.ar    1  UNL1        0.0535
     33 C          60.0852   80.4472    8.2834 C.ar    1  UNL1        0.0353
     34 C          59.6727   80.2573    6.9621 C.ar    1  UNL1        0.1002
     35 N          58.3985   80.5564    6.5950 N.ar    1  UNL1       -0.2422
     36 C          57.4975   81.0469    7.4866 C.ar    1  UNL1        0.1002
     37 C          57.8692   81.2528    8.8173 C.ar    1  UNL1        0.0353
     38 C          60.5810   79.5662   13.4449 C.3     1  UNL1        0.0569
     39 C          61.9867   80.0682   13.6409 C.ar    1  UNL1       -0.0017
     40 C          62.7743   79.9032   14.7772 C.ar    1  UNL1        0.0681
     41 N          63.9971   80.4489   14.5887 N.ar    1  UNL1       -0.3523
     42 C          63.9895   80.9573   13.3444 C.ar    1  UNL1        0.0563
     43 C          65.0330   81.6153   12.6948 C.ar    1  UNL1        0.0170
     44 C          64.8100   82.0652   11.3806 C.ar    1  UNL1        0.0015
     45 C          63.5626   81.8517   10.7533 C.ar    1  UNL1        0.0001
     46 C          62.5272   81.1862   11.4338 C.ar    1  UNL1        0.0012
     47 C          62.7791   80.7469   12.7342 C.ar    1  UNL1        0.0131
     48 H          64.7864   80.4649   15.2723 H       1  UNL1        0.1660
@<TRIPOS>BOND
     1     1     2    2
     2     2     3   am
     3     3    27    1
     4    27    38    1
     5    38    39    1
     6    39    40   ar
     7    40    41   ar
     8    41    42   ar
     9    42    43   ar
    10    43    44   ar
    11    44    45   ar
    12    45    46   ar
    13    46    47   ar
    14    27    28    1
    15    28    29    2
    16    28    30   am
    17    30    32    1
    18    32    33   ar
    19    33    34   ar
    20    34    35   ar
    21    35    36   ar
    22    36    37   ar
    23     2     5    1
    24     5     6   ar
    25     6     7   ar
    26     7     8   ar
    27     8    12    1
    28    12    13    1
    29    13    14    1
    30    14    15    1
    31    15    18    1
    32    18    19   ar
    33    19    20   ar
    34    20    21    1
    35    20    22   ar
    36    22    23    1
    37    22    24   ar
    38    24    25    1
    39    24    26   ar
    40    15    16    1
    41    16    17    1
    42     8     9   ar
    43     9    10   ar
    44    10    11    1
    45    47    39   ar
    46    37    32   ar
    47    10     5   ar
    48    47    42   ar
    49    17    12    1
    50    26    18   ar
    51     3     4    1
    52    41    48    1
    53    30    31    1
@<TRIPOS>MOLECULE
*****
 48 53 0 0 0
SMALL
GASTEIGER

@<TRIPOS>ATOM
      1 O          60.1426   82.3543   11.4546 O.2     1  UNL1       -0.2701
      2 C          60.9810   83.0674   10.8377 C.2     1  UNL1        0.2483
      3 N          61.5295   82.6086    9.5914 N.am    1  UNL1       -0.2945
      4 H          61.9836   83.3147    8.9708 H       1  UNL1        0.1501
      5 C          61.3526   84.3899   11.3904 C.ar    1  UNL1        0.0808
      6 C          61.0820   85.5520   10.6488 C.ar    1  UNL1        0.0080
      7 C          61.4341   86.8096   11.1447 C.ar    1  UNL1        0.0148
      8 C          62.0517   86.9325   12.3989 C.ar    1  UNL1        0.0502
      9 C          62.3134   85.7743   13.1468 C.ar    1  UNL1        0.0443
     10 C          61.9624   84.5135   12.6539 C.ar    1  UNL1        0.1457
     11 F          62.1744   83.4266   13.4371 F       1  UNL1       -0.2040
     12 N          62.4294   88.2279   12.9031 N.pl3   1  UNL1       -0.3040
     13 C          62.4814   89.3951   12.0111 C.3     1  UNL1        0.1122
     14 C          63.8665   90.0472   12.0920 C.3     1  UNL1        0.1122
     15 N          64.3427   90.1247   13.4829 N.pl3   1  UNL1       -0.3040
     16 C          63.4416   89.7508   14.5824 C.3     1  UNL1        0.1122
     17 C          62.8393   88.3677   14.3103 C.3     1  UNL1        0.1122
     18 C          65.7100   90.4935   13.7463 C.ar    1  UNL1        0.0497
     19 C          66.0752   91.0213   14.9940 C.ar    1  UNL1        0.0265
     20 C          67.4039   91.3682   15.2600 C.ar    1  UNL1        0.0659
     21 CL         67.8010   92.0230   16.8437 Cl      1  UNL1       -0.0817
     22 C          68.3904   91.1858   14.2741 C.ar    1  UNL1        0.0557
     23 BR         70.2191   91.6613   14.6330 Br      1  UNL1       -0.0472
     24 C          68.0291   90.6505   13.0244 C.ar    1  UNL1        0.0659
     25 CL         69.2217   90.4009   11.7554 Cl      1  UNL1       -0.0817
     26 C          66.6978   90.3057   12.7680 C.ar    1  UNL1        0.0265
     27 C          61.1907   81.2961    9.0286 C.3     1  UNL1        0.1535
     28 C          60.8861   80.3107   10.1281 C.2     1  UNL1        0.2443
     29 O          61.7719   79.4920   10.4985 O.2     1  UNL1       -0.2730
     30 N          59.6226   80.3716   10.8082 N.am    1  UNL1       -0.2825
     31 H          59.0381   81.2276   10.6732 H       1  UNL1        0.1549
     32 C          59.1709   79.3893   11.7556 C.ar    1  UNL1        0.0535
     33 C          59.2965   79.5910   13.1407 C.ar    1  UNL1        0.0353
     34 C          58.8648   78.5976   14.0231 C.ar    1  UNL1        0.1002
     35 N          58.3405   77.4390   13.5433 N.ar    1  UNL1       -0.2422
     36 C          58.2242   77.2093   12.2087 C.ar    1  UNL1        0.1002
     37 C          58.6449   78.1758   11.2920 C.ar    1  UNL1        0.0353
     38 C          60.0304   81.4017    8.0169 C.3     1  UNL1        0.0569
     39 C          59.1914   82.6397    8.1891 C.ar    1  UNL1       -0.0017
     40 C          57.9076   82.7025    8.7246 C.ar    1  UNL1        0.0681
     41 N          57.4731   83.9824    8.7632 N.ar    1  UNL1       -0.3523
     42 C          58.4699   84.7288    8.2571 C.ar    1  UNL1        0.0563
     43 C          58.4910   86.1140    8.0993 C.ar    1  UNL1        0.0170
     44 C          59.6477   86.6955    7.5488 C.ar    1  UNL1        0.0015
     45 C          60.7437   85.8888    7.1708 C.ar    1  UNL1        0.0001
     46 C          60.6935   84.4934    7.3401 C.ar    1  UNL1        0.0012
     47 C          59.5355   83.9454    7.8931 C.ar    1  UNL1        0.0131
     48 H          56.5511   84.3188    9.1200 H       1  UNL1        0.1660
@<TRIPOS>BOND
     1     1     2    2
     2     2     3   am
     3     3    27    1
     4    27    38    1
     5    38    39    1
     6    39    40   ar
     7    40    41   ar
     8    41    42   ar
     9    42    43   ar
    10    43    44   ar
    11    44    45   ar
    12    45    46   ar
    13    46    47   ar
    14    27    28    1
    15    28    29    2
    16    28    30   am
    17    30    32    1
    18    32    33   ar
    19    33    34   ar
    20    34    35   ar
    21    35    36   ar
    22    36    37   ar
    23     2     5    1
    24     5     6   ar
    25     6     7   ar
    26     7     8   ar
    27     8    12    1
    28    12    13    1
    29    13    14    1
    30    14    15    1
    31    15    18    1
    32    18    19   ar
    33    19    20   ar
    34    20    21    1
    35    20    22   ar
    36    22    23    1
    37    22    24   ar
    38    24    25    1
    39    24    26   ar
    40    15    16    1
    41    16    17    1
    42     8     9   ar
    43     9    10   ar
    44    10    11    1
    45    47    39   ar
    46    37    32   ar
    47    10     5   ar
    48    47    42   ar
    49    17    12    1
    50    26    18   ar
    51     3     4    1
    52    41    48    1
    53    30    31    1
@<TRIPOS>MOLECULE
*****
 48 53 0 0 0
SMALL
GASTEIGER

@<TRIPOS>ATOM
      1 O          59.1844   83.7798    9.3413 O.2     1  UNL1       -0.2701
      2 C          60.1114   84.3090    8.6685 C.2     1  UNL1        0.2483
      3 N          61.3577   83.6142    8.4991 N.am    1  UNL1       -0.2945
      4 H          61.9857   83.9241    7.7249 H       1  UNL1        0.1501
      5 C          59.8806   85.6230    8.0262 C.ar    1  UNL1        0.0808
      6 C          58.6333   85.8997    7.4422 C.ar    1  UNL1        0.0080
      7 C          58.3964   87.1280    6.8204 C.ar    1  UNL1        0.0148
      8 C          59.3976   88.1106    6.7816 C.ar    1  UNL1        0.0502
      9 C          60.6411   87.8413    7.3737 C.ar    1  UNL1        0.0443
     10 C          60.8820   86.6129    7.9972 C.ar    1  UNL1        0.1457
     11 F          62.0749   86.4189    8.6131 F       1  UNL1       -0.2040
     12 N          59.1589   89.3710    6.1262 N.pl3   1  UNL1       -0.3040
     13 C          57.8319   89.6960    5.5838 C.3     1  UNL1        0.1122
     14 C          57.9551   90.0660    4.1012 C.3     1  UNL1        0.1122
     15 N          59.1154   90.9397    3.8608 N.pl3   1  UNL1       -0.3040
     16 C          59.8807   91.4633    5.0014 C.3     1  UNL1        0.1122
     17 C          60.2752   90.3111    5.9325 C.3     1  UNL1        0.1122
     18 C          59.5333   91.2101    2.5092 C.ar    1  UNL1        0.0497
     19 C          58.5863   91.2976    1.4773 C.ar    1  UNL1        0.0265
     20 C          58.9851   91.5736    0.1653 C.ar    1  UNL1        0.0659
     21 CL         57.7517   91.6733   -1.0849 Cl      1  UNL1       -0.0817
     22 C          60.3460   91.7706   -0.1305 C.ar    1  UNL1        0.0557
     23 BR         60.9012   92.1498   -1.9325 Br      1  UNL1       -0.0472
     24 C          61.2974   91.6904    0.9025 C.ar    1  UNL1        0.0659
     25 CL         63.0121   91.9284    0.5893 Cl      1  UNL1       -0.0817
     26 C          60.8889   91.4148    2.2118 C.ar    1  UNL1        0.0265
     27 C          61.6189   82.3183    9.1369 C.3     1  UNL1        0.1535
     28 C          61.9666   82.5043   10.5920 C.2     1  UNL1        0.2443
     29 O          61.4155   83.4258   11.2548 O.2     1  UNL1       -0.2730
     30 N          62.8524   81.5754   11.2362 N.am    1  UNL1       -0.2825
     31 H          63.0593   80.6778   10.7422 H       1  UNL1        0.1549
     32 C          63.3702   81.7480   12.5661 C.ar    1  UNL1        0.0535
     33 C          64.2892   82.7665   12.8711 C.ar    1  UNL1        0.0353
     34 C          64.7831   82.8810   14.1730 C.ar    1  UNL1        0.1002
     35 N          64.3876   82.0037   15.1329 N.ar    1  UNL1       -0.2422
     36 C          63.5145   80.9979   14.8618 C.ar    1  UNL1        0.1002
     37 C          62.9975   80.8471   13.5729 C.ar    1  UNL1        0.0353
     38 C          60.4305   81.3518    8.9514 C.3     1  UNL1        0.0569
     39 C          60.4847   80.1494    9.8558 C.ar    1  UNL1       -0.0017
     40 C          61.2469   79.0005    9.6615 C.ar    1  UNL1        0.0681
     41 N          61.0802   78.1421   10.6929 N.ar    1  UNL1       -0.3523
     42 C          60.2197   78.7374   11.5367 C.ar    1  UNL1        0.0563
     43 C          59.7470   78.2401   12.7504 C.ar    1  UNL1        0.0170
     44 C          58.8489   79.0377   13.4829 C.ar    1  UNL1        0.0015
     45 C          58.4464   80.2988   12.9904 C.ar    1  UNL1        0.0001
     46 C          58.9384   80.7742   11.7615 C.ar    1  UNL1        0.0012
     47 C          59.8315   79.9636   11.0598 C.ar    1  UNL1        0.0131
     48 H          61.5343   77.2088   10.8088 H       1  UNL1        0.1660
@<TRIPOS>BOND
     1     1     2    2
     2     2     3   am
     3     3    27    1
     4    27    38    1
     5    38    39    1
     6    39    40   ar
     7    40    41   ar
     8    41    42   ar
     9    42    43   ar
    10    43    44   ar
    11    44    45   ar
    12    45    46   ar
    13    46    47   ar
    14    27    28    1
    15    28    29    2
    16    28    30   am
    17    30    32    1
    18    32    33   ar
    19    33    34   ar
    20    34    35   ar
    21    35    36   ar
    22    36    37   ar
    23     2     5    1
    24     5     6   ar
    25     6     7   ar
    26     7     8   ar
    27     8    12    1
    28    12    13    1
    29    13    14    1
    30    14    15    1
    31    15    18    1
    32    18    19   ar
    33    19    20   ar
    34    20    21    1
    35    20    22   ar
    36    22    23    1
    37    22    24   ar
    38    24    25    1
    39    24    26   ar
    40    15    16    1
    41    16    17    1
    42     8     9   ar
    43     9    10   ar
    44    10    11    1
    45    47    39   ar
    46    37    32   ar
    47    10     5   ar
    48    47    42   ar
    49    17    12    1
    50    26    18   ar
    51     3     4    1
    52    41    48    1
    53    30    31    1
@<TRIPOS>MOLECULE
*****
 48 53 0 0 0
SMALL
GASTEIGER

@<TRIPOS>ATOM
      1 O          59.6496   83.6406    8.2550 O.2     1  UNL1       -0.2701
      2 C          59.1324   84.6545    8.7995 C.2     1  UNL1        0.2483
      3 N          58.5806   84.5519   10.1222 N.am    1  UNL1       -0.2945
      4 H          58.4252   85.4366   10.6541 H       1  UNL1        0.1501
      5 C          59.1435   85.9481    8.0791 C.ar    1  UNL1        0.0808
      6 C          58.0050   86.3520    7.3620 C.ar    1  UNL1        0.0080
      7 C          57.9964   87.5627    6.6651 C.ar    1  UNL1        0.0148
      8 C          59.1216   88.4014    6.6822 C.ar    1  UNL1        0.0502
      9 C          60.2565   88.0057    7.4066 C.ar    1  UNL1        0.0443
     10 C          60.2689   86.7945    8.1055 C.ar    1  UNL1        0.1457
     11 F          61.3619   86.4814    8.8452 F       1  UNL1       -0.2040
     12 N          59.1186   89.6422    5.9504 N.pl3   1  UNL1       -0.3040
     13 C          57.9061   90.1038    5.2594 C.3     1  UNL1        0.1122
     14 C          58.2210   90.3689    3.7827 C.3     1  UNL1        0.1122
     15 N          59.5057   91.0704    3.6255 N.pl3   1  UNL1       -0.3040
     16 C          60.2201   91.5557    4.8150 C.3     1  UNL1        0.1122
     17 C          60.3644   90.4179    5.8321 C.3     1  UNL1        0.1122
     18 C          60.0852   91.2064    2.3138 C.ar    1  UNL1        0.0497
     19 C          59.2663   91.2260    1.1745 C.ar    1  UNL1        0.0265
     20 C          59.8225   91.3717   -0.1006 C.ar    1  UNL1        0.0659
     21 CL         58.7446   91.3915   -1.4907 Cl      1  UNL1       -0.0817
     22 C          61.2147   91.5043   -0.2509 C.ar    1  UNL1        0.0557
     23 BR         61.9859   91.7044   -2.0014 Br      1  UNL1       -0.0472
     24 C          62.0381   91.4920    0.8895 C.ar    1  UNL1        0.0659
     25 CL         63.7850   91.6544    0.7599 Cl      1  UNL1       -0.0817
     26 C          61.4726   91.3467    2.1608 C.ar    1  UNL1        0.0265
     27 C          58.5425   83.2793   10.8526 C.3     1  UNL1        0.1535
     28 C          59.9093   82.6438   10.8815 C.2     1  UNL1        0.2443
     29 O          60.0173   81.3879   10.8260 O.2     1  UNL1       -0.2730
     30 N          61.0806   83.4749   10.8791 N.am    1  UNL1       -0.2825
     31 H          60.9599   84.4852   10.6395 H       1  UNL1        0.1549
     32 C          62.4179   82.9806   11.0628 C.ar    1  UNL1        0.0535
     33 C          63.1463   82.4177   10.0009 C.ar    1  UNL1        0.0353
     34 C          64.4345   81.9288   10.2324 C.ar    1  UNL1        0.1002
     35 N          64.9722   81.9850   11.4795 N.ar    1  UNL1       -0.2422
     36 C          64.2836   82.5070   12.5286 C.ar    1  UNL1        0.1002
     37 C          62.9923   83.0057   12.3409 C.ar    1  UNL1        0.0353
     38 C          57.9671   83.4640   12.2723 C.3     1  UNL1        0.0569
     39 C          58.3448   84.7743   12.9101 C.ar    1  UNL1       -0.0017
     40 C          57.6911   85.9931   12.7485 C.ar    1  UNL1        0.0681
     41 N          58.2805   86.9495   13.5012 N.ar    1  UNL1       -0.3523
     42 C          59.3003   86.3468   14.1365 C.ar    1  UNL1        0.0563
     43 C          60.1972   86.9264   15.0329 C.ar    1  UNL1        0.0170
     44 C          61.1937   86.1044   15.5902 C.ar    1  UNL1        0.0015
     45 C          61.2717   84.7379   15.2414 C.ar    1  UNL1        0.0001
     46 C          60.3541   84.1807   14.3327 C.ar    1  UNL1        0.0012
     47 C          59.3738   85.0190   13.8001 C.ar    1  UNL1        0.0131
     48 H          57.9944   87.9511   13.5751 H       1  UNL1        0.1660
@<TRIPOS>BOND
     1     1     2    2
     2     2     3   am
     3     3    27    1
     4    27    38    1
     5    38    39    1
     6    39    40   ar
     7    40    41   ar
     8    41    42   ar
     9    42    43   ar
    10    43    44   ar
    11    44    45   ar
    12    45    46   ar
    13    46    47   ar
    14    27    28    1
    15    28    29    2
    16    28    30   am
    17    30    32    1
    18    32    33   ar
    19    33    34   ar
    20    34    35   ar
    21    35    36   ar
    22    36    37   ar
    23     2     5    1
    24     5     6   ar
    25     6     7   ar
    26     7     8   ar
    27     8    12    1
    28    12    13    1
    29    13    14    1
    30    14    15    1
    31    15    18    1
    32    18    19   ar
    33    19    20   ar
    34    20    21    1
    35    20    22   ar
    36    22    23    1
    37    22    24   ar
    38    24    25    1
    39    24    26   ar
    40    15    16    1
    41    16    17    1
    42     8     9   ar
    43     9    10   ar
    44    10    11    1
    45    47    39   ar
    46    37    32   ar
    47    10     5   ar
    48    47    42   ar
    49    17    12    1
    50    26    18   ar
    51     3     4    1
    52    41    48    1
    53    30    31    1
