@<TRIPOS>MOLECULE
*****
 52 57 0 0 0
SMALL
GASTEIGER

@<TRIPOS>ATOM
      1 C         -61.2126  -42.5995  -23.9387 C.ar    1  UNL1        0.0502
      2 C         -62.5566  -42.2449  -24.1282 C.ar    1  UNL1        0.0148
      3 C         -63.0366  -41.9479  -25.4040 C.ar    1  UNL1        0.0080
      4 C         -62.1851  -41.9995  -26.5222 C.ar    1  UNL1        0.0808
      5 C         -60.8268  -42.3228  -26.3250 C.ar    1  UNL1        0.1457
      6 F         -59.9655  -42.3967  -27.3713 F       1  UNL1       -0.2040
      7 C         -60.3516  -42.6232  -25.0444 C.ar    1  UNL1        0.0443
      8 N         -58.0210  -45.5000  -22.2786 N.3     1  UNL1       -0.3053
      9 C         -59.2634  -44.9295  -22.8030 C.3     1  UNL1        0.1480
     10 C         -59.3454  -43.4287  -22.4988 C.3     1  UNL1        0.1273
     11 N         -60.7315  -43.0099  -22.6439 N.pl3   1  UNL1       -0.3029
     12 C         -61.6329  -43.5410  -21.6266 C.3     1  UNL1        0.1123
     13 C         -61.6003  -45.0811  -21.6108 C.3     1  UNL1        0.1134
     14 N         -60.4236  -45.6824  -22.2763 N.pl3   1  UNL1       -0.2935
     15 H         -58.0012  -45.3792  -21.2396 H       1  UNL1        0.1203
     16 H         -57.2108  -44.9713  -22.6771 H       1  UNL1        0.1203
     17 C         -60.4868  -47.0911  -22.5514 C.ar    1  UNL1        0.0488
     18 C         -60.3444  -47.5599  -23.8638 C.ar    1  UNL1        0.0145
     19 C         -60.3998  -48.9307  -24.1324 C.ar    1  UNL1        0.0051
     20 C         -60.6087  -49.8529  -23.0916 C.ar    1  UNL1        0.0715
     21 C         -60.7116  -49.3794  -21.7720 C.ar    1  UNL1        0.0051
     22 C         -60.6604  -48.0088  -21.5056 C.ar    1  UNL1        0.0145
     23 C         -60.6195  -51.3341  -23.3728 C.3     1  UNL1        0.4186
     24 F         -60.2415  -52.0481  -22.2488 F       1  UNL1       -0.1659
     25 F         -61.8949  -51.7178  -23.7426 F       1  UNL1       -0.1659
     26 F         -59.7407  -51.6427  -24.3968 F       1  UNL1       -0.1659
     27 C         -62.7325  -41.7878  -27.8860 C.2     1  UNL1        0.2483
     28 O         -62.2800  -40.8706  -28.6217 O.2     1  UNL1       -0.2701
     29 N         -63.7308  -42.6666  -28.4136 N.am    1  UNL1       -0.2945
     30 H         -64.6745  -42.6629  -27.9644 H       1  UNL1        0.1501
     31 C         -63.3210  -43.8461  -29.1744 C.3     1  UNL1        0.1535
     32 C         -63.8289  -45.0864  -28.4823 C.2     1  UNL1        0.2443
     33 O         -64.9611  -45.5517  -28.7867 O.2     1  UNL1       -0.2730
     34 N         -63.0714  -45.6679  -27.4103 N.am    1  UNL1       -0.2825
     35 H         -62.3395  -45.0779  -26.9535 H       1  UNL1        0.1549
     36 C         -63.3365  -46.9660  -26.8536 C.ar    1  UNL1        0.0535
     37 C         -63.4581  -47.1595  -25.4672 C.ar    1  UNL1        0.0353
     38 C         -63.7515  -48.4326  -24.9729 C.ar    1  UNL1        0.1002
     39 N         -63.9268  -49.4739  -25.8290 N.ar    1  UNL1       -0.2422
     40 C         -63.8297  -49.3125  -27.1750 C.ar    1  UNL1        0.1002
     41 C         -63.5417  -48.0550  -27.7111 C.ar    1  UNL1        0.0353
     42 C         -63.8296  -43.7490  -30.6241 C.3     1  UNL1        0.0569
     43 C         -62.6887  -43.7502  -31.6032 C.ar    1  UNL1       -0.0017
     44 C         -62.7058  -43.2060  -32.8843 C.ar    1  UNL1        0.0681
     45 N         -61.4757  -43.2705  -33.4423 N.ar    1  UNL1       -0.3523
     46 C         -60.6792  -43.8397  -32.5213 C.ar    1  UNL1        0.0563
     47 C         -59.3113  -44.0876  -32.6268 C.ar    1  UNL1        0.0170
     48 C         -58.6614  -44.6709  -31.5241 C.ar    1  UNL1        0.0015
     49 C         -59.3850  -44.9900  -30.3541 C.ar    1  UNL1        0.0001
     50 C         -60.7646  -44.7279  -30.2752 C.ar    1  UNL1        0.0012
     51 C         -61.3822  -44.1462  -31.3838 C.ar    1  UNL1        0.0131
     52 H         -61.2000  -42.9252  -34.3884 H       1  UNL1        0.1660
@<TRIPOS>BOND
     1     8     9    1
     2     9    10    1
     3    10    11    1
     4    11     1    1
     5     1     2   ar
     6     2     3   ar
     7     3     4   ar
     8     4    27    1
     9    27    28    2
    10    27    29   am
    11    29    31    1
    12    31    42    1
    13    42    43    1
    14    43    44   ar
    15    44    45   ar
    16    45    46   ar
    17    46    47   ar
    18    47    48   ar
    19    48    49   ar
    20    49    50   ar
    21    50    51   ar
    22    31    32    1
    23    32    33    2
    24    32    34   am
    25    34    36    1
    26    36    37   ar
    27    37    38   ar
    28    38    39   ar
    29    39    40   ar
    30    40    41   ar
    31     4     5   ar
    32     5     6    1
    33     5     7   ar
    34    11    12    1
    35    12    13    1
    36    13    14    1
    37    14    17    1
    38    17    18   ar
    39    18    19   ar
    40    19    20   ar
    41    20    23    1
    42    23    24    1
    43    23    25    1
    44    23    26    1
    45    20    21   ar
    46    21    22   ar
    47    14     9    1
    48    22    17   ar
    49     7     1   ar
    50    51    43   ar
    51    41    36   ar
    52    51    46   ar
    53     8    15    1
    54     8    16    1
    55    29    30    1
    56    45    52    1
    57    34    35    1
@<TRIPOS>MOLECULE
*****
 52 57 0 0 0
SMALL
GASTEIGER

@<TRIPOS>ATOM
      1 C         -61.1944  -42.6863  -23.8675 C.ar    1  UNL1        0.0502
      2 C         -62.5676  -42.4663  -24.0504 C.ar    1  UNL1        0.0148
      3 C         -63.0770  -42.1914  -25.3197 C.ar    1  UNL1        0.0080
      4 C         -62.2261  -42.1311  -26.4379 C.ar    1  UNL1        0.0808
      5 C         -60.8418  -42.3188  -26.2467 C.ar    1  UNL1        0.1457
      6 F         -59.9787  -42.2813  -27.2935 F       1  UNL1       -0.2040
      7 C         -60.3368  -42.5977  -24.9725 C.ar    1  UNL1        0.0443
      8 N         -57.8921  -45.4930  -22.2634 N.3     1  UNL1       -0.3053
      9 C         -59.1607  -44.9579  -22.7619 C.3     1  UNL1        0.1480
     10 C         -59.2730  -43.4572  -22.4669 C.3     1  UNL1        0.1273
     11 N         -60.6723  -43.0743  -22.5817 N.pl3   1  UNL1       -0.3029
     12 C         -61.5355  -43.6196  -21.5391 C.3     1  UNL1        0.1123
     13 C         -61.4638  -45.1582  -21.5128 C.3     1  UNL1        0.1134
     14 N         -60.2887  -45.7352  -22.2019 N.pl3   1  UNL1       -0.2935
     15 H         -57.8506  -45.3636  -21.2261 H       1  UNL1        0.1203
     16 H         -57.1053  -44.9475  -22.6852 H       1  UNL1        0.1203
     17 C         -60.3230  -47.1472  -22.4651 C.ar    1  UNL1        0.0488
     18 C         -60.7335  -48.0404  -21.4669 C.ar    1  UNL1        0.0145
     19 C         -60.7731  -49.4141  -21.7232 C.ar    1  UNL1        0.0051
     20 C         -60.3926  -49.9155  -22.9806 C.ar    1  UNL1        0.0715
     21 C         -60.0194  -49.0116  -23.9903 C.ar    1  UNL1        0.0051
     22 C         -59.9761  -47.6393  -23.7313 C.ar    1  UNL1        0.0145
     23 C         -60.4818  -51.3917  -23.2742 C.3     1  UNL1        0.4186
     24 F         -59.7483  -51.7109  -24.4038 F       1  UNL1       -0.1659
     25 F         -59.9828  -52.1007  -22.1976 F       1  UNL1       -0.1659
     26 F         -61.7962  -51.7673  -23.4917 F       1  UNL1       -0.1659
     27 C         -62.7940  -41.9459  -27.7972 C.2     1  UNL1        0.2483
     28 O         -62.2199  -41.1996  -28.6341 O.2     1  UNL1       -0.2701
     29 N         -63.9610  -42.6679  -28.2026 N.am    1  UNL1       -0.2945
     30 H         -64.8643  -42.4481  -27.7252 H       1  UNL1        0.1501
     31 C         -63.8116  -43.9672  -28.8565 C.3     1  UNL1        0.1535
     32 C         -63.4030  -43.7575  -30.2933 C.2     1  UNL1        0.2443
     33 O         -64.1963  -43.1868  -31.0909 O.2     1  UNL1       -0.2730
     34 N         -62.1624  -44.3003  -30.7703 N.am    1  UNL1       -0.2825
     35 H         -61.7070  -45.0502  -30.2023 H       1  UNL1        0.1549
     36 C         -61.5712  -43.9581  -32.0348 C.ar    1  UNL1        0.0535
     37 C         -60.2030  -44.1584  -32.2838 C.ar    1  UNL1        0.0353
     38 C         -59.6786  -43.8442  -33.5398 C.ar    1  UNL1        0.1002
     39 N         -60.4894  -43.3567  -34.5159 N.ar    1  UNL1       -0.2422
     40 C         -61.8190  -43.1670  -34.3075 C.ar    1  UNL1        0.1002
     41 C         -62.3846  -43.4722  -33.0671 C.ar    1  UNL1        0.0353
     42 C         -62.7960  -44.8355  -28.0922 C.3     1  UNL1        0.0569
     43 C         -63.3094  -46.2360  -27.9034 C.ar    1  UNL1       -0.0017
     44 C         -63.6586  -47.1257  -28.9153 C.ar    1  UNL1        0.0681
     45 N         -63.9597  -48.3377  -28.3967 N.ar    1  UNL1       -0.3523
     46 C         -63.7930  -48.2251  -27.0677 C.ar    1  UNL1        0.0563
     47 C         -63.9544  -49.2252  -26.1098 C.ar    1  UNL1        0.0170
     48 C         -63.6988  -48.8967  -24.7662 C.ar    1  UNL1        0.0015
     49 C         -63.2926  -47.5908  -24.4140 C.ar    1  UNL1        0.0001
     50 C         -63.1370  -46.6017  -25.4017 C.ar    1  UNL1        0.0012
     51 C         -63.3950  -46.9572  -26.7268 C.ar    1  UNL1        0.0131
     52 H         -64.2415  -49.1918  -28.9273 H       1  UNL1        0.1660
@<TRIPOS>BOND
     1     8     9    1
     2     9    10    1
     3    10    11    1
     4    11     1    1
     5     1     2   ar
     6     2     3   ar
     7     3     4   ar
     8     4    27    1
     9    27    28    2
    10    27    29   am
    11    29    31    1
    12    31    42    1
    13    42    43    1
    14    43    44   ar
    15    44    45   ar
    16    45    46   ar
    17    46    47   ar
    18    47    48   ar
    19    48    49   ar
    20    49    50   ar
    21    50    51   ar
    22    31    32    1
    23    32    33    2
    24    32    34   am
    25    34    36    1
    26    36    37   ar
    27    37    38   ar
    28    38    39   ar
    29    39    40   ar
    30    40    41   ar
    31     4     5   ar
    32     5     6    1
    33     5     7   ar
    34    11    12    1
    35    12    13    1
    36    13    14    1
    37    14    17    1
    38    17    18   ar
    39    18    19   ar
    40    19    20   ar
    41    20    23    1
    42    23    24    1
    43    23    25    1
    44    23    26    1
    45    20    21   ar
    46    21    22   ar
    47    14     9    1
    48    22    17   ar
    49     7     1   ar
    50    51    43   ar
    51    41    36   ar
    52    51    46   ar
    53     8    15    1
    54     8    16    1
    55    29    30    1
    56    45    52    1
    57    34    35    1
@<TRIPOS>MOLECULE
*****
 52 57 0 0 0
SMALL
GASTEIGER

@<TRIPOS>ATOM
      1 C         -61.4112  -42.9357  -24.1215 C.ar    1  UNL1        0.0502
      2 C         -60.6515  -43.2805  -25.2493 C.ar    1  UNL1        0.0148
      3 C         -61.0712  -42.9065  -26.5261 C.ar    1  UNL1        0.0080
      4 C         -62.2600  -42.1772  -26.7069 C.ar    1  UNL1        0.0808
      5 C         -63.0396  -41.8611  -25.5752 C.ar    1  UNL1        0.1457
      6 F         -64.1897  -41.1500  -25.6934 F       1  UNL1       -0.2040
      7 C         -62.6125  -42.2354  -24.2971 C.ar    1  UNL1        0.0443
      8 N         -58.2262  -45.6695  -22.1882 N.3     1  UNL1       -0.3053
      9 C         -59.4667  -45.1502  -22.7678 C.3     1  UNL1        0.1480
     10 C         -59.5494  -43.6277  -22.6041 C.3     1  UNL1        0.1273
     11 N         -60.9349  -43.2243  -22.7925 N.pl3   1  UNL1       -0.3029
     12 C         -61.8402  -43.6591  -21.7338 C.3     1  UNL1        0.1123
     13 C         -61.8079  -45.1911  -21.5753 C.3     1  UNL1        0.1134
     14 N         -60.6289  -45.8512  -22.1778 N.pl3   1  UNL1       -0.2935
     15 H         -58.2103  -45.4531  -21.1648 H       1  UNL1        0.1203
     16 H         -57.4146  -45.1799  -22.6310 H       1  UNL1        0.1203
     17 C         -60.6914  -47.2794  -22.3215 C.ar    1  UNL1        0.0488
     18 C         -60.7814  -47.8563  -23.5950 C.ar    1  UNL1        0.0145
     19 C         -60.8364  -49.2459  -23.7368 C.ar    1  UNL1        0.0051
     20 C         -60.8121  -50.0793  -22.6045 C.ar    1  UNL1        0.0715
     21 C         -60.6821  -49.4964  -21.3320 C.ar    1  UNL1        0.0051
     22 C         -60.6317  -48.1072  -21.1915 C.ar    1  UNL1        0.0145
     23 C         -60.8216  -51.5791  -22.7583 C.3     1  UNL1        0.4186
     24 F         -60.9030  -51.9333  -24.0940 F       1  UNL1       -0.1659
     25 F         -59.6572  -52.0986  -22.2245 F       1  UNL1       -0.1659
     26 F         -61.9061  -52.1304  -22.0979 F       1  UNL1       -0.1659
     27 C         -62.6385  -41.6922  -28.0582 C.2     1  UNL1        0.2483
     28 O         -62.0485  -40.7046  -28.5719 O.2     1  UNL1       -0.2701
     29 N         -63.6278  -42.3822  -28.8279 N.am    1  UNL1       -0.2945
     30 H         -64.6131  -42.3759  -28.4793 H       1  UNL1        0.1501
     31 C         -63.2145  -43.4457  -29.7424 C.3     1  UNL1        0.1535
     32 C         -63.7999  -44.7564  -29.2791 C.2     1  UNL1        0.2443
     33 O         -64.9302  -45.1202  -29.7046 O.2     1  UNL1       -0.2730
     34 N         -63.1194  -45.5296  -28.2790 N.am    1  UNL1       -0.2825
     35 H         -62.3922  -45.0497  -27.7017 H       1  UNL1        0.1549
     36 C         -63.4576  -46.8865  -27.9473 C.ar    1  UNL1        0.0535
     37 C         -63.7074  -47.8455  -28.9434 C.ar    1  UNL1        0.0353
     38 C         -63.9977  -49.1612  -28.5749 C.ar    1  UNL1        0.1002
     39 N         -64.0290  -49.5117  -27.2619 N.ar    1  UNL1       -0.2422
     40 C         -63.7768  -48.6083  -26.2782 C.ar    1  UNL1        0.1002
     41 C         -63.4783  -47.2829  -26.6035 C.ar    1  UNL1        0.0353
     42 C         -63.6381  -43.1054  -31.1826 C.3     1  UNL1        0.0569
     43 C         -62.5245  -43.3745  -32.1563 C.ar    1  UNL1       -0.0017
     44 C         -62.5256  -43.0596  -33.5122 C.ar    1  UNL1        0.0681
     45 N         -61.3187  -43.3262  -34.0608 N.ar    1  UNL1       -0.3523
     46 C         -60.5518  -43.7958  -33.0618 C.ar    1  UNL1        0.0563
     47 C         -59.2126  -44.1767  -33.1342 C.ar    1  UNL1        0.0170
     48 C         -58.5887  -44.6159  -31.9525 C.ar    1  UNL1        0.0015
     49 C         -59.3091  -44.6645  -30.7389 C.ar    1  UNL1        0.0001
     50 C         -60.6595  -44.2734  -30.6951 C.ar    1  UNL1        0.0012
     51 C         -61.2514  -43.8394  -31.8825 C.ar    1  UNL1        0.0131
     52 H         -61.0370  -43.1742  -35.0548 H       1  UNL1        0.1660
@<TRIPOS>BOND
     1     8     9    1
     2     9    10    1
     3    10    11    1
     4    11     1    1
     5     1     2   ar
     6     2     3   ar
     7     3     4   ar
     8     4    27    1
     9    27    28    2
    10    27    29   am
    11    29    31    1
    12    31    42    1
    13    42    43    1
    14    43    44   ar
    15    44    45   ar
    16    45    46   ar
    17    46    47   ar
    18    47    48   ar
    19    48    49   ar
    20    49    50   ar
    21    50    51   ar
    22    31    32    1
    23    32    33    2
    24    32    34   am
    25    34    36    1
    26    36    37   ar
    27    37    38   ar
    28    38    39   ar
    29    39    40   ar
    30    40    41   ar
    31     4     5   ar
    32     5     6    1
    33     5     7   ar
    34    11    12    1
    35    12    13    1
    36    13    14    1
    37    14    17    1
    38    17    18   ar
    39    18    19   ar
    40    19    20   ar
    41    20    23    1
    42    23    24    1
    43    23    25    1
    44    23    26    1
    45    20    21   ar
    46    21    22   ar
    47    14     9    1
    48    22    17   ar
    49     7     1   ar
    50    51    43   ar
    51    41    36   ar
    52    51    46   ar
    53     8    15    1
    54     8    16    1
    55    29    30    1
    56    45    52    1
    57    34    35    1
@<TRIPOS>MOLECULE
*****
 52 57 0 0 0
SMALL
GASTEIGER

@<TRIPOS>ATOM
      1 C         -61.7306  -42.4715  -24.8990 C.ar    1  UNL1        0.0502
      2 C         -60.7927  -42.6838  -25.9203 C.ar    1  UNL1        0.0148
      3 C         -61.1023  -42.3646  -27.2426 C.ar    1  UNL1        0.0080
      4 C         -62.3569  -41.8237  -27.5764 C.ar    1  UNL1        0.0808
      5 C         -63.3105  -41.6429  -26.5535 C.ar    1  UNL1        0.1457
      6 F         -64.5321  -41.1148  -26.8202 F       1  UNL1       -0.2040
      7 C         -62.9937  -41.9613  -25.2290 C.ar    1  UNL1        0.0443
      8 N         -58.5808  -44.9099  -22.5563 N.3     1  UNL1       -0.3053
      9 C         -59.7850  -44.5008  -23.2822 C.3     1  UNL1        0.1480
     10 C         -60.0023  -42.9871  -23.1685 C.3     1  UNL1        0.1273
     11 N         -61.3850  -42.6982  -23.5186 N.pl3   1  UNL1       -0.3029
     12 C         -62.3668  -43.1849  -22.5549 C.3     1  UNL1        0.1123
     13 C         -62.2347  -44.7066  -22.3539 C.3     1  UNL1        0.1134
     14 N         -60.9485  -45.2815  -22.8056 N.pl3   1  UNL1       -0.2935
     15 H         -58.6960  -44.6751  -21.5434 H       1  UNL1        0.1203
     16 H         -57.7648  -44.3652  -22.9197 H       1  UNL1        0.1203
     17 C         -60.8845  -46.7124  -22.9180 C.ar    1  UNL1        0.0488
     18 C         -61.0066  -47.3270  -24.1710 C.ar    1  UNL1        0.0145
     19 C         -60.9386  -48.7189  -24.2828 C.ar    1  UNL1        0.0051
     20 C         -60.7572  -49.5175  -23.1397 C.ar    1  UNL1        0.0715
     21 C         -60.5961  -48.8931  -21.8906 C.ar    1  UNL1        0.0051
     22 C         -60.6685  -47.5022  -21.7799 C.ar    1  UNL1        0.0145
     23 C         -60.6345  -51.0150  -23.2646 C.3     1  UNL1        0.4186
     24 F         -60.4993  -51.6004  -22.0176 F       1  UNL1       -0.1659
     25 F         -61.7685  -51.5150  -23.8766 F       1  UNL1       -0.1659
     26 F         -59.5265  -51.3522  -24.0229 F       1  UNL1       -0.1659
     27 C         -62.6339  -41.3877  -28.9683 C.2     1  UNL1        0.2483
     28 O         -61.6872  -41.1152  -29.7537 O.2     1  UNL1       -0.2701
     29 N         -63.9760  -41.3401  -29.4622 N.am    1  UNL1       -0.2945
     30 H         -64.6279  -40.6382  -29.0443 H       1  UNL1        0.1501
     31 C         -64.5412  -42.5158  -30.1228 C.3     1  UNL1        0.1535
     32 C         -63.4479  -43.2443  -30.8640 C.2     1  UNL1        0.2443
     33 O         -63.5994  -43.5216  -32.0851 O.2     1  UNL1       -0.2730
     34 N         -62.2906  -43.7103  -30.1538 N.am    1  UNL1       -0.2825
     35 H         -62.3521  -43.7811  -29.1128 H       1  UNL1        0.1549
     36 C         -61.0977  -44.1929  -30.7939 C.ar    1  UNL1        0.0535
     37 C         -60.7786  -43.8381  -32.1154 C.ar    1  UNL1        0.0353
     38 C         -59.5906  -44.3020  -32.6851 C.ar    1  UNL1        0.1002
     39 N         -58.7460  -45.0837  -31.9616 N.ar    1  UNL1       -0.2422
     40 C         -59.0222  -45.4301  -30.6767 C.ar    1  UNL1        0.1002
     41 C         -60.1976  -44.9841  -30.0678 C.ar    1  UNL1        0.0353
     42 C         -65.2387  -43.4226  -29.0929 C.3     1  UNL1        0.0569
     43 C         -64.8626  -44.8645  -29.2931 C.ar    1  UNL1       -0.0017
     44 C         -65.1948  -45.6549  -30.3896 C.ar    1  UNL1        0.0681
     45 N         -64.5903  -46.8615  -30.3036 N.ar    1  UNL1       -0.3523
     46 C         -63.8702  -46.8364  -29.1689 C.ar    1  UNL1        0.0563
     47 C         -63.0480  -47.8456  -28.6695 C.ar    1  UNL1        0.0170
     48 C         -62.3574  -47.5978  -27.4694 C.ar    1  UNL1        0.0015
     49 C         -62.5026  -46.3614  -26.8028 C.ar    1  UNL1        0.0001
     50 C         -63.3385  -45.3608  -27.3302 C.ar    1  UNL1        0.0012
     51 C         -64.0091  -45.6337  -28.5238 C.ar    1  UNL1        0.0131
     52 H         -64.6542  -47.6428  -30.9934 H       1  UNL1        0.1660
@<TRIPOS>BOND
     1     8     9    1
     2     9    10    1
     3    10    11    1
     4    11     1    1
     5     1     2   ar
     6     2     3   ar
     7     3     4   ar
     8     4    27    1
     9    27    28    2
    10    27    29   am
    11    29    31    1
    12    31    42    1
    13    42    43    1
    14    43    44   ar
    15    44    45   ar
    16    45    46   ar
    17    46    47   ar
    18    47    48   ar
    19    48    49   ar
    20    49    50   ar
    21    50    51   ar
    22    31    32    1
    23    32    33    2
    24    32    34   am
    25    34    36    1
    26    36    37   ar
    27    37    38   ar
    28    38    39   ar
    29    39    40   ar
    30    40    41   ar
    31     4     5   ar
    32     5     6    1
    33     5     7   ar
    34    11    12    1
    35    12    13    1
    36    13    14    1
    37    14    17    1
    38    17    18   ar
    39    18    19   ar
    40    19    20   ar
    41    20    23    1
    42    23    24    1
    43    23    25    1
    44    23    26    1
    45    20    21   ar
    46    21    22   ar
    47    14     9    1
    48    22    17   ar
    49     7     1   ar
    50    51    43   ar
    51    41    36   ar
    52    51    46   ar
    53     8    15    1
    54     8    16    1
    55    29    30    1
    56    45    52    1
    57    34    35    1
@<TRIPOS>MOLECULE
*****
 52 57 0 0 0
SMALL
GASTEIGER

@<TRIPOS>ATOM
      1 C         -61.8097  -43.1737  -23.4370 C.ar    1  UNL1        0.0502
      2 C         -60.7264  -43.5112  -24.2618 C.ar    1  UNL1        0.0148
      3 C         -60.7386  -43.1791  -25.6167 C.ar    1  UNL1        0.0080
      4 C         -61.8337  -42.5000  -26.1803 C.ar    1  UNL1        0.0808
      5 C         -62.9363  -42.1920  -25.3572 C.ar    1  UNL1        0.1457
      6 F         -64.0135  -41.5285  -25.8487 F       1  UNL1       -0.2040
      7 C         -62.9174  -42.5240  -23.9987 C.ar    1  UNL1        0.0443
      8 N         -64.5619  -42.4749  -19.7911 N.3     1  UNL1       -0.3053
      9 C         -63.5746  -42.3039  -20.8589 C.3     1  UNL1        0.1480
     10 C         -63.0024  -43.6583  -21.2945 C.3     1  UNL1        0.1273
     11 N         -61.7626  -43.4173  -22.0176 N.pl3   1  UNL1       -0.3029
     12 C         -60.6692  -42.9155  -21.1918 C.3     1  UNL1        0.1123
     13 C         -61.0689  -41.6073  -20.4833 C.3     1  UNL1        0.1134
     14 N         -62.5254  -41.3542  -20.4258 N.pl3   1  UNL1       -0.2935
     15 H         -64.0964  -42.9109  -18.9618 H       1  UNL1        0.1203
     16 H         -65.3071  -43.1310  -20.1208 H       1  UNL1        0.1203
     17 C         -62.9366  -40.0299  -20.0500 C.ar    1  UNL1        0.0488
     18 C         -63.5969  -39.8156  -18.8332 C.ar    1  UNL1        0.0145
     19 C         -63.9924  -38.5268  -18.4634 C.ar    1  UNL1        0.0051
     20 C         -63.7416  -37.4336  -19.3114 C.ar    1  UNL1        0.0715
     21 C         -63.0440  -37.6489  -20.5127 C.ar    1  UNL1        0.0051
     22 C         -62.6532  -38.9382  -20.8830 C.ar    1  UNL1        0.0145
     23 C         -64.1234  -36.0367  -18.8918 C.3     1  UNL1        0.4186
     24 F         -65.2122  -36.0630  -18.0375 F       1  UNL1       -0.1659
     25 F         -63.0546  -35.4487  -18.2417 F       1  UNL1       -0.1659
     26 F         -64.4578  -35.2701  -19.9949 F       1  UNL1       -0.1659
     27 C         -61.7870  -42.0569  -27.5966 C.2     1  UNL1        0.2483
     28 O         -60.7799  -41.4454  -28.0427 O.2     1  UNL1       -0.2701
     29 N         -62.8521  -42.3807  -28.4955 N.am    1  UNL1       -0.2945
     30 H         -63.7877  -41.9478  -28.3237 H       1  UNL1        0.1501
     31 C         -62.7833  -43.6146  -29.2771 C.3     1  UNL1        0.1535
     32 C         -63.4310  -44.7333  -28.4997 C.2     1  UNL1        0.2443
     33 O         -64.6684  -44.9443  -28.6232 O.2     1  UNL1       -0.2730
     34 N         -62.6604  -45.4813  -27.5470 N.am    1  UNL1       -0.2825
     35 H         -61.7603  -45.0672  -27.2140 H       1  UNL1        0.1549
     36 C         -63.1061  -46.7051  -26.9393 C.ar    1  UNL1        0.0535
     37 C         -63.5041  -47.8073  -27.7145 C.ar    1  UNL1        0.0353
     38 C         -63.8962  -48.9888  -27.0809 C.ar    1  UNL1        0.1002
     39 N         -63.8836  -49.0729  -25.7242 N.ar    1  UNL1       -0.2422
     40 C         -63.4892  -48.0276  -24.9503 C.ar    1  UNL1        0.1002
     41 C         -63.0855  -46.8292  -25.5438 C.ar    1  UNL1        0.0353
     42 C         -63.4459  -43.4128  -30.6519 C.3     1  UNL1        0.0569
     43 C         -62.4431  -43.5429  -31.7646 C.ar    1  UNL1       -0.0017
     44 C         -62.6083  -43.1014  -33.0743 C.ar    1  UNL1        0.0681
     45 N         -61.4645  -43.2654  -33.7767 N.ar    1  UNL1       -0.3523
     46 C         -60.5749  -43.7957  -32.9198 C.ar    1  UNL1        0.0563
     47 C         -59.2419  -44.1129  -33.1772 C.ar    1  UNL1        0.0170
     48 C         -58.4743  -44.6361  -32.1209 C.ar    1  UNL1        0.0015
     49 C         -59.0498  -44.8287  -30.8457 C.ar    1  UNL1        0.0001
     50 C         -60.3974  -44.4990  -30.6144 C.ar    1  UNL1        0.0012
     51 C         -61.1337  -43.9792  -31.6804 C.ar    1  UNL1        0.0131
     52 H         -61.3027  -43.0087  -34.7758 H       1  UNL1        0.1660
@<TRIPOS>BOND
     1     8     9    1
     2     9    10    1
     3    10    11    1
     4    11     1    1
     5     1     2   ar
     6     2     3   ar
     7     3     4   ar
     8     4    27    1
     9    27    28    2
    10    27    29   am
    11    29    31    1
    12    31    42    1
    13    42    43    1
    14    43    44   ar
    15    44    45   ar
    16    45    46   ar
    17    46    47   ar
    18    47    48   ar
    19    48    49   ar
    20    49    50   ar
    21    50    51   ar
    22    31    32    1
    23    32    33    2
    24    32    34   am
    25    34    36    1
    26    36    37   ar
    27    37    38   ar
    28    38    39   ar
    29    39    40   ar
    30    40    41   ar
    31     4     5   ar
    32     5     6    1
    33     5     7   ar
    34    11    12    1
    35    12    13    1
    36    13    14    1
    37    14    17    1
    38    17    18   ar
    39    18    19   ar
    40    19    20   ar
    41    20    23    1
    42    23    24    1
    43    23    25    1
    44    23    26    1
    45    20    21   ar
    46    21    22   ar
    47    14     9    1
    48    22    17   ar
    49     7     1   ar
    50    51    43   ar
    51    41    36   ar
    52    51    46   ar
    53     8    15    1
    54     8    16    1
    55    29    30    1
    56    45    52    1
    57    34    35    1
@<TRIPOS>MOLECULE
*****
 52 57 0 0 0
SMALL
GASTEIGER

@<TRIPOS>ATOM
      1 C         -61.0145  -43.0261  -23.9477 C.ar    1  UNL1        0.0502
      2 C         -62.3589  -42.6714  -23.7614 C.ar    1  UNL1        0.0148
      3 C         -63.1320  -42.2384  -24.8389 C.ar    1  UNL1        0.0080
      4 C         -62.5806  -42.1508  -26.1297 C.ar    1  UNL1        0.0808
      5 C         -61.2200  -42.4751  -26.3087 C.ar    1  UNL1        0.1457
      6 F         -60.6418  -42.4176  -27.5352 F       1  UNL1       -0.2040
      7 C         -60.4504  -42.9120  -25.2257 C.ar    1  UNL1        0.0443
      8 N         -58.0918  -46.5512  -23.3262 N.3     1  UNL1       -0.3053
      9 C         -59.2999  -45.7316  -23.4398 C.3     1  UNL1        0.1480
     10 C         -58.9866  -44.2568  -23.1601 C.3     1  UNL1        0.1273
     11 N         -60.2373  -43.5738  -22.8650 N.pl3   1  UNL1       -0.3029
     12 C         -60.8547  -43.9628  -21.6013 C.3     1  UNL1        0.1123
     13 C         -61.1199  -45.4798  -21.5611 C.3     1  UNL1        0.1134
     14 N         -60.3563  -46.2683  -22.5532 N.pl3   1  UNL1       -0.2935
     15 H         -57.7202  -46.4790  -22.3510 H       1  UNL1        0.1203
     16 H         -57.3633  -46.1723  -23.9745 H       1  UNL1        0.1203
     17 C         -60.7772  -47.6262  -22.7611 C.ar    1  UNL1        0.0488
     18 C         -61.3550  -48.0062  -23.9794 C.ar    1  UNL1        0.0145
     19 C         -61.7597  -49.3284  -24.1854 C.ar    1  UNL1        0.0051
     20 C         -61.6009  -50.2886  -23.1705 C.ar    1  UNL1        0.0715
     21 C         -60.9847  -49.9104  -21.9649 C.ar    1  UNL1        0.0051
     22 C         -60.5848  -48.5876  -21.7588 C.ar    1  UNL1        0.0145
     23 C         -61.9914  -51.7252  -23.4088 C.3     1  UNL1        0.4186
     24 F         -63.1716  -51.7983  -24.1284 F       1  UNL1       -0.1659
     25 F         -60.9893  -52.3569  -24.1212 F       1  UNL1       -0.1659
     26 F         -62.1761  -52.3864  -22.2068 F       1  UNL1       -0.1659
     27 C         -63.4418  -41.7935  -27.2852 C.2     1  UNL1        0.2483
     28 O         -63.4633  -40.6137  -27.7264 O.2     1  UNL1       -0.2701
     29 N         -64.2048  -42.7974  -27.9616 N.am    1  UNL1       -0.2945
     30 H         -64.9855  -43.2554  -27.4390 H       1  UNL1        0.1501
     31 C         -63.6187  -43.4988  -29.1029 C.3     1  UNL1        0.1535
     32 C         -64.5279  -44.6306  -29.5123 C.2     1  UNL1        0.2443
     33 O         -65.7272  -44.6404  -29.1215 O.2     1  UNL1       -0.2730
     34 N         -63.9987  -45.7405  -30.2533 N.am    1  UNL1       -0.2825
     35 H         -62.9624  -45.8767  -30.2553 H       1  UNL1        0.1549
     36 C         -64.8118  -46.7377  -30.8935 C.ar    1  UNL1        0.0535
     37 C         -65.0936  -47.9656  -30.2713 C.ar    1  UNL1        0.0353
     38 C         -65.9181  -48.8908  -30.9159 C.ar    1  UNL1        0.1002
     39 N         -66.4503  -48.6000  -32.1325 N.ar    1  UNL1       -0.2422
     40 C         -66.2067  -47.4144  -32.7506 C.ar    1  UNL1        0.1002
     41 C         -65.3909  -46.4595  -32.1387 C.ar    1  UNL1        0.0353
     42 C         -63.3682  -42.5164  -30.2613 C.3     1  UNL1        0.0569
     43 C         -62.4242  -43.0996  -31.2759 C.ar    1  UNL1       -0.0017
     44 C         -62.5394  -42.9958  -32.6592 C.ar    1  UNL1        0.0681
     45 N         -61.4537  -43.5271  -33.2656 N.ar    1  UNL1       -0.3523
     46 C         -60.6486  -43.9551  -32.2780 C.ar    1  UNL1        0.0563
     47 C         -59.3932  -44.5470  -32.4102 C.ar    1  UNL1        0.0170
     48 C         -58.7032  -44.8956  -31.2351 C.ar    1  UNL1        0.0015
     49 C         -59.2769  -44.6480  -29.9687 C.ar    1  UNL1        0.0001
     50 C         -60.5451  -44.0487  -29.8653 C.ar    1  UNL1        0.0012
     51 C         -61.2052  -43.7111  -31.0481 C.ar    1  UNL1        0.0131
     52 H         -61.2714  -43.5722  -34.2928 H       1  UNL1        0.1660
@<TRIPOS>BOND
     1     8     9    1
     2     9    10    1
     3    10    11    1
     4    11     1    1
     5     1     2   ar
     6     2     3   ar
     7     3     4   ar
     8     4    27    1
     9    27    28    2
    10    27    29   am
    11    29    31    1
    12    31    42    1
    13    42    43    1
    14    43    44   ar
    15    44    45   ar
    16    45    46   ar
    17    46    47   ar
    18    47    48   ar
    19    48    49   ar
    20    49    50   ar
    21    50    51   ar
    22    31    32    1
    23    32    33    2
    24    32    34   am
    25    34    36    1
    26    36    37   ar
    27    37    38   ar
    28    38    39   ar
    29    39    40   ar
    30    40    41   ar
    31     4     5   ar
    32     5     6    1
    33     5     7   ar
    34    11    12    1
    35    12    13    1
    36    13    14    1
    37    14    17    1
    38    17    18   ar
    39    18    19   ar
    40    19    20   ar
    41    20    23    1
    42    23    24    1
    43    23    25    1
    44    23    26    1
    45    20    21   ar
    46    21    22   ar
    47    14     9    1
    48    22    17   ar
    49     7     1   ar
    50    51    43   ar
    51    41    36   ar
    52    51    46   ar
    53     8    15    1
    54     8    16    1
    55    29    30    1
    56    45    52    1
    57    34    35    1
@<TRIPOS>MOLECULE
*****
 52 57 0 0 0
SMALL
GASTEIGER

@<TRIPOS>ATOM
      1 C         -61.2467  -45.3433  -22.9706 C.ar    1  UNL1        0.0502
      2 C         -62.3518  -45.2357  -22.1132 C.ar    1  UNL1        0.0148
      3 C         -62.3956  -44.2395  -21.1375 C.ar    1  UNL1        0.0080
      4 C         -61.3362  -43.3254  -20.9958 C.ar    1  UNL1        0.0808
      5 C         -60.2113  -43.4564  -21.8358 C.ar    1  UNL1        0.1457
      6 F         -59.1669  -42.5941  -21.7475 F       1  UNL1       -0.2040
      7 C         -60.1741  -44.4547  -22.8148 C.ar    1  UNL1        0.0443
      8 N         -60.1444  -45.3722  -27.4583 N.3     1  UNL1       -0.3053
      9 C         -60.8600  -45.2305  -26.1886 C.3     1  UNL1        0.1480
     10 C         -60.2637  -46.1552  -25.1205 C.3     1  UNL1        0.1273
     11 N         -61.2373  -46.2995  -24.0485 N.pl3   1  UNL1       -0.3029
     12 C         -62.4344  -47.0487  -24.4162 C.3     1  UNL1        0.1123
     13 C         -63.1439  -46.3985  -25.6191 C.3     1  UNL1        0.1134
     14 N         -62.3068  -45.4604  -26.3988 N.pl3   1  UNL1       -0.2935
     15 H         -60.2384  -46.3582  -27.7954 H       1  UNL1        0.1203
     16 H         -59.1278  -45.1853  -27.2968 H       1  UNL1        0.1203
     17 C         -62.9891  -44.6113  -27.3357 C.ar    1  UNL1        0.0488
     18 C         -62.8162  -43.2221  -27.2833 C.ar    1  UNL1        0.0145
     19 C         -63.4749  -42.3950  -28.1979 C.ar    1  UNL1        0.0051
     20 C         -64.3250  -42.9459  -29.1731 C.ar    1  UNL1        0.0715
     21 C         -64.4637  -44.3429  -29.2456 C.ar    1  UNL1        0.0051
     22 C         -63.8082  -45.1680  -28.3281 C.ar    1  UNL1        0.0145
     23 C         -64.9971  -42.0595  -30.1908 C.3     1  UNL1        0.4186
     24 F         -66.1377  -42.6648  -30.6894 F       1  UNL1       -0.1659
     25 F         -65.3465  -40.8635  -29.5924 F       1  UNL1       -0.1659
     26 F         -64.1456  -41.8017  -31.2514 F       1  UNL1       -0.1659
     27 C         -61.4435  -42.2048  -20.0276 C.2     1  UNL1        0.2483
     28 O         -60.4519  -41.4634  -19.7947 O.2     1  UNL1       -0.2701
     29 N         -62.6931  -41.9040  -19.3988 N.am    1  UNL1       -0.2945
     30 H         -63.0870  -42.6042  -18.7303 H       1  UNL1        0.1501
     31 C         -63.6016  -40.9456  -20.0266 C.3     1  UNL1        0.1535
     32 C         -63.3010  -39.5613  -19.5083 C.2     1  UNL1        0.2443
     33 O         -63.0173  -39.3989  -18.2901 O.2     1  UNL1       -0.2730
     34 N         -63.4423  -38.4266  -20.3764 N.am    1  UNL1       -0.2825
     35 H         -64.0049  -38.5465  -21.2492 H       1  UNL1        0.1549
     36 C         -62.9563  -37.1112  -20.0619 C.ar    1  UNL1        0.0535
     37 C         -63.3646  -36.4361  -18.8992 C.ar    1  UNL1        0.0353
     38 C         -62.8388  -35.1734  -18.6157 C.ar    1  UNL1        0.1002
     39 N         -61.9318  -34.6072  -19.4551 N.ar    1  UNL1       -0.2422
     40 C         -61.5080  -35.2437  -20.5787 C.ar    1  UNL1        0.1002
     41 C         -62.0056  -36.5096  -20.8972 C.ar    1  UNL1        0.0353
     42 C         -63.4824  -41.0228  -21.5594 C.3     1  UNL1        0.0569
     43 C         -64.8339  -40.9596  -22.2150 C.ar    1  UNL1       -0.0017
     44 C         -66.0619  -40.9103  -21.5614 C.ar    1  UNL1        0.0681
     45 N         -67.0647  -40.7332  -22.4511 N.ar    1  UNL1       -0.3523
     46 C         -66.4807  -40.6588  -23.6595 C.ar    1  UNL1        0.0563
     47 C         -67.1067  -40.4467  -24.8871 C.ar    1  UNL1        0.0170
     48 C         -66.2967  -40.3743  -26.0348 C.ar    1  UNL1        0.0015
     49 C         -64.8953  -40.5142  -25.9312 C.ar    1  UNL1        0.0001
     50 C         -64.2906  -40.7267  -24.6792 C.ar    1  UNL1        0.0012
     51 C         -65.1190  -40.7913  -23.5575 C.ar    1  UNL1        0.0131
     52 H         -68.0830  -40.6485  -22.2360 H       1  UNL1        0.1660
@<TRIPOS>BOND
     1     8     9    1
     2     9    10    1
     3    10    11    1
     4    11     1    1
     5     1     2   ar
     6     2     3   ar
     7     3     4   ar
     8     4    27    1
     9    27    28    2
    10    27    29   am
    11    29    31    1
    12    31    42    1
    13    42    43    1
    14    43    44   ar
    15    44    45   ar
    16    45    46   ar
    17    46    47   ar
    18    47    48   ar
    19    48    49   ar
    20    49    50   ar
    21    50    51   ar
    22    31    32    1
    23    32    33    2
    24    32    34   am
    25    34    36    1
    26    36    37   ar
    27    37    38   ar
    28    38    39   ar
    29    39    40   ar
    30    40    41   ar
    31     4     5   ar
    32     5     6    1
    33     5     7   ar
    34    11    12    1
    35    12    13    1
    36    13    14    1
    37    14    17    1
    38    17    18   ar
    39    18    19   ar
    40    19    20   ar
    41    20    23    1
    42    23    24    1
    43    23    25    1
    44    23    26    1
    45    20    21   ar
    46    21    22   ar
    47    14     9    1
    48    22    17   ar
    49     7     1   ar
    50    51    43   ar
    51    41    36   ar
    52    51    46   ar
    53     8    15    1
    54     8    16    1
    55    29    30    1
    56    45    52    1
    57    34    35    1
