@<TRIPOS>MOLECULE
*****
 36 41 0 0 0
SMALL
GASTEIGER

@<TRIPOS>ATOM
      1 C         -25.6477   -6.4933  -14.4382 C.ar    1  UNL1        0.1095
      2 N         -26.4993   -5.4378  -14.3922 N.ar    1  UNL1       -0.1677
      3 N         -26.4089   -4.7821  -15.5435 N.ar    1  UNL1       -0.2319
      4 C         -27.2325   -3.6353  -15.9015 C.3     1  UNL1        0.1554
      5 C         -25.5327   -5.4253  -16.3300 C.ar    1  UNL1        0.1654
      6 N         -25.2070   -5.1240  -17.6101 N.ar    1  UNL1       -0.2050
      7 C         -24.2997   -5.9217  -18.2475 C.ar    1  UNL1        0.2014
      8 N         -23.7229   -6.9790  -17.5935 N.ar    1  UNL1       -0.2089
      9 C         -24.0469   -7.2867  -16.3016 C.ar    1  UNL1        0.1380
     10 C         -25.0084   -6.4941  -15.6720 C.ar    1  UNL1        0.0865
     11 N         -23.3372   -8.3206  -15.6118 N.pl3   1  UNL1       -0.2891
     12 C         -21.8981   -8.2751  -15.4117 C.3     1  UNL1        0.1228
     13 C         -21.4782   -9.7212  -15.1438 C.3     1  UNL1        0.1464
     14 O         -20.9607  -10.2929  -16.3192 O.3     1  UNL1       -0.3813
     15 C         -22.7757  -10.4447  -14.7256 C.3     1  UNL1        0.1062
     16 C         -23.8707   -9.6600  -15.4589 C.3     1  UNL1        0.1106
     17 H         -20.0224   -9.9784  -16.3981 H       1  UNL1        0.2105
     18 N         -22.7748  -11.8938  -15.0651 N.3     1  UNL1       -0.2704
     19 C         -21.8584  -12.6463  -14.1784 C.3     1  UNL1        0.0722
     20 C         -21.6513  -14.0777  -14.7065 C.3     1  UNL1        0.0174
     21 C         -22.8613  -14.5884  -15.5029 C.3     1  UNL1        0.0029
     22 C         -24.1608  -14.0109  -14.9442 C.3     1  UNL1        0.0174
     23 C         -24.1460  -12.4658  -14.9707 C.3     1  UNL1        0.0722
     24 C         -24.7176   -7.6092  -12.3235 C.ar    1  UNL1        0.0809
     25 C         -25.5887   -7.5273  -13.3942 C.ar    1  UNL1        0.0577
     26 C         -26.3641   -8.6694  -13.3110 C.ar    1  UNL1        0.1231
     27 N         -25.9654   -9.4045  -12.2541 N.ar    1  UNL1       -0.1676
     28 N         -24.9738   -8.7575  -11.6609 N.ar    1  UNL1       -0.2488
     29 C         -24.2538   -9.2807  -10.5053 C.3     1  UNL1        0.1537
     30 C         -20.3957   -3.9732  -11.0730 C.3     1  UNL1        0.0310
     31 C         -21.5151   -4.9046  -11.4318 C.ar    1  UNL1       -0.0218
     32 C         -21.2376   -6.2117  -11.8606 C.ar    1  UNL1       -0.0042
     33 C         -22.2815   -7.0921  -12.1590 C.ar    1  UNL1        0.0012
     34 C         -23.6141   -6.6813  -12.0156 C.ar    1  UNL1        0.0174
     35 C         -23.8932   -5.3797  -11.5759 C.ar    1  UNL1        0.0012
     36 C         -22.8497   -4.4986  -11.2779 C.ar    1  UNL1       -0.0042
@<TRIPOS>BOND
     1    30    31    1
     2    31    32   ar
     3    32    33   ar
     4    33    34   ar
     5    34    24    1
     6    24    25   ar
     7    25     1    1
     8     1     2   ar
     9     2     3   ar
    10     3     4    1
    11     3     5   ar
    12     5     6   ar
    13     6     7   ar
    14     7     8   ar
    15     8     9   ar
    16     9    11    1
    17    11    12    1
    18    12    13    1
    19    13    14    1
    20    13    15    1
    21    15    18    1
    22    18    19    1
    23    19    20    1
    24    20    21    1
    25    21    22    1
    26    22    23    1
    27    15    16    1
    28     9    10   ar
    29    25    26   ar
    30    26    27   ar
    31    27    28   ar
    32    28    29    1
    33    34    35   ar
    34    35    36   ar
    35    36    31   ar
    36    28    24   ar
    37    10     1   ar
    38    10     5   ar
    39    16    11    1
    40    23    18    1
    41    14    17    1
@<TRIPOS>MOLECULE
*****
 36 41 0 0 0
SMALL
GASTEIGER

@<TRIPOS>ATOM
      1 C         -22.0472   -9.6224  -13.0468 C.ar    1  UNL1        0.1095
      2 N         -21.1278  -10.6073  -12.8852 N.ar    1  UNL1       -0.1677
      3 N         -21.2279  -11.0678  -11.6436 N.ar    1  UNL1       -0.2319
      4 C         -20.4588  -12.1882  -11.1195 C.3     1  UNL1        0.1554
      5 C         -22.2188  -10.4076  -11.0252 C.ar    1  UNL1        0.1654
      6 N         -22.6898  -10.6232   -9.7733 N.ar    1  UNL1       -0.2050
      7 C         -23.7263   -9.8496   -9.3342 C.ar    1  UNL1        0.2014
      8 N         -24.2509   -8.8695  -10.1359 N.ar    1  UNL1       -0.2089
      9 C         -23.7787   -8.6469  -11.3992 C.ar    1  UNL1        0.1380
     10 C         -22.7495   -9.4716  -11.8573 C.ar    1  UNL1        0.0865
     11 N         -24.2667   -7.5380  -12.1613 N.pl3   1  UNL1       -0.2891
     12 C         -23.9472   -6.1611  -11.8219 C.3     1  UNL1        0.1228
     13 C         -25.0307   -5.3146  -12.4920 C.3     1  UNL1        0.1464
     14 O         -26.0148   -4.9673  -11.5501 O.3     1  UNL1       -0.3813
     15 C         -25.6341   -6.2252  -13.5822 C.3     1  UNL1        0.1062
     16 C         -25.4339   -7.6363  -13.0156 C.3     1  UNL1        0.1106
     17 H         -25.6559   -4.1977  -11.0358 H       1  UNL1        0.2105
     18 N         -27.0592   -5.9172  -13.8810 N.3     1  UNL1       -0.2704
     19 C         -27.1901   -5.2156  -15.1783 C.3     1  UNL1        0.0722
     20 C         -28.6153   -4.6587  -15.3490 C.3     1  UNL1        0.0174
     21 C         -29.6620   -5.4861  -14.5880 C.3     1  UNL1        0.0029
     22 C         -29.2667   -6.9616  -14.5548 C.3     1  UNL1        0.0174
     23 C         -27.8823   -7.1575  -13.8965 C.3     1  UNL1        0.0722
     24 C         -22.9663   -9.5241  -15.4401 C.ar    1  UNL1        0.0809
     25 C         -22.3239   -8.9828  -14.3418 C.ar    1  UNL1        0.0577
     26 C         -21.9370   -7.7171  -14.7431 C.ar    1  UNL1        0.1231
     27 N         -22.3143   -7.5187  -16.0216 N.ar    1  UNL1       -0.1676
     28 N         -22.9375   -8.6116  -16.4350 N.ar    1  UNL1       -0.2488
     29 C         -23.4419   -8.7810  -17.7931 C.3     1  UNL1        0.1537
     30 C         -25.0306  -14.9025  -15.9638 C.3     1  UNL1        0.0310
     31 C         -24.4817  -13.5170  -15.7955 C.ar    1  UNL1       -0.0218
     32 C         -23.1895  -13.2086  -16.2479 C.ar    1  UNL1       -0.0042
     33 C         -22.6916  -11.9082  -16.1254 C.ar    1  UNL1        0.0012
     34 C         -23.4860  -10.8981  -15.5652 C.ar    1  UNL1        0.0174
     35 C         -24.7814  -11.2017  -15.1237 C.ar    1  UNL1        0.0012
     36 C         -25.2797  -12.5021  -15.2454 C.ar    1  UNL1       -0.0042
@<TRIPOS>BOND
     1    30    31    1
     2    31    32   ar
     3    32    33   ar
     4    33    34   ar
     5    34    24    1
     6    24    25   ar
     7    25     1    1
     8     1     2   ar
     9     2     3   ar
    10     3     4    1
    11     3     5   ar
    12     5     6   ar
    13     6     7   ar
    14     7     8   ar
    15     8     9   ar
    16     9    11    1
    17    11    12    1
    18    12    13    1
    19    13    14    1
    20    13    15    1
    21    15    18    1
    22    18    19    1
    23    19    20    1
    24    20    21    1
    25    21    22    1
    26    22    23    1
    27    15    16    1
    28     9    10   ar
    29    25    26   ar
    30    26    27   ar
    31    27    28   ar
    32    28    29    1
    33    34    35   ar
    34    35    36   ar
    35    36    31   ar
    36    28    24   ar
    37    10     1   ar
    38    10     5   ar
    39    16    11    1
    40    23    18    1
    41    14    17    1
@<TRIPOS>MOLECULE
*****
 36 41 0 0 0
SMALL
GASTEIGER

@<TRIPOS>ATOM
      1 C         -21.3745   -9.6736  -11.4490 C.ar    1  UNL1        0.1095
      2 N         -21.0040   -9.9275  -10.1685 N.ar    1  UNL1       -0.1677
      3 N         -20.7207   -8.7702   -9.5820 N.ar    1  UNL1       -0.2319
      4 C         -20.3627   -8.6282   -8.1772 C.3     1  UNL1        0.1554
      5 C         -20.9351   -7.7836  -10.4655 C.ar    1  UNL1        0.1654
      6 N         -20.8327   -6.4507  -10.2452 N.ar    1  UNL1       -0.2050
      7 C         -21.1149   -5.6045  -11.2795 C.ar    1  UNL1        0.2014
      8 N         -21.4666   -6.1006  -12.5078 N.ar    1  UNL1       -0.2089
      9 C         -21.5703   -7.4443  -12.7359 C.ar    1  UNL1        0.1380
     10 C         -21.3242   -8.3014  -11.6616 C.ar    1  UNL1        0.0865
     11 N         -21.8202   -7.9291  -14.0591 N.pl3   1  UNL1       -0.2891
     12 C         -20.7759   -8.5181  -14.8811 C.3     1  UNL1        0.1228
     13 C         -21.2803   -8.4084  -16.3209 C.3     1  UNL1        0.1464
     14 O         -20.6877   -7.2999  -16.9505 O.3     1  UNL1       -0.3813
     15 C         -22.8044   -8.1991  -16.1970 C.3     1  UNL1        0.1062
     16 C         -22.9557   -7.4892  -14.8459 C.3     1  UNL1        0.1106
     17 H         -19.7801   -7.5862  -17.2333 H       1  UNL1        0.2105
     18 N         -23.3837   -7.4236  -17.3275 N.3     1  UNL1       -0.2704
     19 C         -24.1527   -8.3039  -18.2364 C.3     1  UNL1        0.0722
     20 C         -24.5102   -7.5580  -19.5351 C.3     1  UNL1        0.0174
     21 C         -24.6352   -6.0418  -19.3237 C.3     1  UNL1        0.0029
     22 C         -25.1715   -5.7317  -17.9270 C.3     1  UNL1        0.0174
     23 C         -24.2603   -6.3279  -16.8303 C.3     1  UNL1        0.0722
     24 C         -23.1932  -10.8507  -12.8236 C.ar    1  UNL1        0.0809
     25 C         -21.9002  -10.7054  -12.3555 C.ar    1  UNL1        0.0577
     26 C         -21.2090  -11.7837  -12.8772 C.ar    1  UNL1        0.1231
     27 N         -22.0502  -12.5437  -13.6060 N.ar    1  UNL1       -0.1676
     28 N         -23.2449  -11.9733  -13.5720 N.ar    1  UNL1       -0.2488
     29 C         -24.4247  -12.5466  -14.2099 C.3     1  UNL1        0.1537
     30 C         -27.7181   -7.5193  -11.4487 C.3     1  UNL1        0.0310
     31 C         -26.5667   -8.4121  -11.8046 C.ar    1  UNL1       -0.0218
     32 C         -26.2646   -8.6739  -13.1498 C.ar    1  UNL1       -0.0042
     33 C         -25.1689   -9.4755  -13.4828 C.ar    1  UNL1        0.0012
     34 C         -24.3532  -10.0099  -12.4757 C.ar    1  UNL1        0.0174
     35 C         -24.6467   -9.7396  -11.1318 C.ar    1  UNL1        0.0012
     36 C         -25.7426   -8.9386  -10.7981 C.ar    1  UNL1       -0.0042
@<TRIPOS>BOND
     1    30    31    1
     2    31    32   ar
     3    32    33   ar
     4    33    34   ar
     5    34    24    1
     6    24    25   ar
     7    25     1    1
     8     1     2   ar
     9     2     3   ar
    10     3     4    1
    11     3     5   ar
    12     5     6   ar
    13     6     7   ar
    14     7     8   ar
    15     8     9   ar
    16     9    11    1
    17    11    12    1
    18    12    13    1
    19    13    14    1
    20    13    15    1
    21    15    18    1
    22    18    19    1
    23    19    20    1
    24    20    21    1
    25    21    22    1
    26    22    23    1
    27    15    16    1
    28     9    10   ar
    29    25    26   ar
    30    26    27   ar
    31    27    28   ar
    32    28    29    1
    33    34    35   ar
    34    35    36   ar
    35    36    31   ar
    36    28    24   ar
    37    10     1   ar
    38    10     5   ar
    39    16    11    1
    40    23    18    1
    41    14    17    1
@<TRIPOS>MOLECULE
*****
 36 41 0 0 0
SMALL
GASTEIGER

@<TRIPOS>ATOM
      1 C         -22.4571   -7.2902  -12.5020 C.ar    1  UNL1        0.1095
      2 N         -22.0217   -6.1384  -11.9317 N.ar    1  UNL1       -0.1677
      3 N         -22.1703   -6.2455  -10.6164 N.ar    1  UNL1       -0.2319
      4 C         -21.7372   -5.2387   -9.6570 C.3     1  UNL1        0.1554
      5 C         -22.6669   -7.4617  -10.3435 C.ar    1  UNL1        0.1654
      6 N         -22.8991   -7.9956   -9.1202 N.ar    1  UNL1       -0.2050
      7 C         -23.3930   -9.2675   -9.0570 C.ar    1  UNL1        0.2014
      8 N         -23.6656   -9.9655  -10.2045 N.ar    1  UNL1       -0.2089
      9 C         -23.4343   -9.4313  -11.4413 C.ar    1  UNL1        0.1380
     10 C         -22.8871   -8.1480  -11.4970 C.ar    1  UNL1        0.0865
     11 N         -23.8435  -10.1397  -12.6156 N.pl3   1  UNL1       -0.2891
     12 C         -25.2418  -10.2980  -12.9801 C.3     1  UNL1        0.1228
     13 C         -25.2830  -11.5001  -13.9249 C.3     1  UNL1        0.1464
     14 O         -25.6828  -12.6480  -13.2187 O.3     1  UNL1       -0.3813
     15 C         -23.8338  -11.6629  -14.4300 C.3     1  UNL1        0.1062
     16 C         -22.9914  -11.1111  -13.2732 C.3     1  UNL1        0.1106
     17 H         -26.6718  -12.6046  -13.1440 H       1  UNL1        0.2105
     18 N         -23.4888  -13.0679  -14.7796 N.3     1  UNL1       -0.2704
     19 C         -24.3752  -13.5821  -15.8483 C.3     1  UNL1        0.0722
     20 C         -24.2005  -15.1035  -16.0085 C.3     1  UNL1        0.0174
     21 C         -22.7954  -15.5766  -15.6076 C.3     1  UNL1        0.0029
     22 C         -21.7513  -14.5086  -15.9300 C.3     1  UNL1        0.0174
     23 C         -22.0680  -13.1782  -15.2101 C.3     1  UNL1        0.0722
     24 C         -23.2190   -7.3694  -14.9506 C.ar    1  UNL1        0.0809
     25 C         -22.3069   -7.5871  -13.9345 C.ar    1  UNL1        0.0577
     26 C         -21.2327   -8.2070  -14.5466 C.ar    1  UNL1        0.1231
     27 N         -21.4968   -8.3666  -15.8585 N.ar    1  UNL1       -0.1676
     28 N         -22.6955   -7.8562  -16.0961 N.ar    1  UNL1       -0.2488
     29 C         -23.3387   -7.8974  -17.4046 C.3     1  UNL1        0.1537
     30 C         -28.5690   -5.2332  -14.4236 C.3     1  UNL1        0.0310
     31 C         -27.1701   -5.7622  -14.5365 C.ar    1  UNL1       -0.0218
     32 C         -26.7275   -6.7798  -13.6775 C.ar    1  UNL1       -0.0042
     33 C         -25.4363   -7.2993  -13.8070 C.ar    1  UNL1        0.0012
     34 C         -24.5794   -6.8194  -14.8073 C.ar    1  UNL1        0.0174
     35 C         -25.0241   -5.8112  -15.6739 C.ar    1  UNL1        0.0012
     36 C         -26.3151   -5.2909  -15.5446 C.ar    1  UNL1       -0.0042
@<TRIPOS>BOND
     1    30    31    1
     2    31    32   ar
     3    32    33   ar
     4    33    34   ar
     5    34    24    1
     6    24    25   ar
     7    25     1    1
     8     1     2   ar
     9     2     3   ar
    10     3     4    1
    11     3     5   ar
    12     5     6   ar
    13     6     7   ar
    14     7     8   ar
    15     8     9   ar
    16     9    11    1
    17    11    12    1
    18    12    13    1
    19    13    14    1
    20    13    15    1
    21    15    18    1
    22    18    19    1
    23    19    20    1
    24    20    21    1
    25    21    22    1
    26    22    23    1
    27    15    16    1
    28     9    10   ar
    29    25    26   ar
    30    26    27   ar
    31    27    28   ar
    32    28    29    1
    33    34    35   ar
    34    35    36   ar
    35    36    31   ar
    36    28    24   ar
    37    10     1   ar
    38    10     5   ar
    39    16    11    1
    40    23    18    1
    41    14    17    1
@<TRIPOS>MOLECULE
*****
 36 41 0 0 0
SMALL
GASTEIGER

@<TRIPOS>ATOM
      1 C         -21.7753   -8.9949  -12.4997 C.ar    1  UNL1        0.1095
      2 N         -22.1058   -8.9677  -13.8155 N.ar    1  UNL1       -0.1677
      3 N         -22.7811   -7.8485  -14.0500 N.ar    1  UNL1       -0.2319
      4 C         -23.2356   -7.4250  -15.3675 C.3     1  UNL1        0.1554
      5 C         -22.8575   -7.1520  -12.9058 C.ar    1  UNL1        0.1654
      6 N         -23.4013   -5.9236  -12.7299 N.ar    1  UNL1       -0.2050
      7 C         -23.3602   -5.3753  -11.4796 C.ar    1  UNL1        0.2014
      8 N         -22.8047   -6.0669  -10.4348 N.ar    1  UNL1       -0.2089
      9 C         -22.2557   -7.3069  -10.6065 C.ar    1  UNL1        0.1380
     10 C         -22.2611   -7.8414  -11.8963 C.ar    1  UNL1        0.0865
     11 N         -21.7951   -8.0496   -9.4730 N.pl3   1  UNL1       -0.2891
     12 C         -22.6264   -9.0326   -8.7980 C.3     1  UNL1        0.1228
     13 C         -22.0193   -9.1905   -7.4030 C.3     1  UNL1        0.1464
     14 O         -22.7503   -8.4274   -6.4758 O.3     1  UNL1       -0.3813
     15 C         -20.5814   -8.6440   -7.5273 C.3     1  UNL1        0.1062
     16 C         -20.6953   -7.5980   -8.6433 C.3     1  UNL1        0.1106
     17 H         -23.5561   -8.9588   -6.2440 H       1  UNL1        0.2105
     18 N         -20.0566   -8.0787   -6.2544 N.3     1  UNL1       -0.2704
     19 C         -20.2492   -9.0265   -5.1333 C.3     1  UNL1        0.0722
     20 C         -19.9636   -8.3353   -3.7874 C.3     1  UNL1        0.0174
     21 C         -18.9484   -7.1905   -3.9213 C.3     1  UNL1        0.0029
     22 C         -17.9255   -7.4982   -5.0138 C.3     1  UNL1        0.0174
     23 C         -18.6137   -7.7339   -6.3774 C.3     1  UNL1        0.0722
     24 C         -20.9123  -11.3819  -12.1256 C.ar    1  UNL1        0.0809
     25 C         -20.8963  -10.0161  -11.9105 C.ar    1  UNL1        0.0577
     26 C         -19.9064   -9.8157  -10.9657 C.ar    1  UNL1        0.1231
     27 N         -19.3699  -11.0031  -10.6215 N.ar    1  UNL1       -0.1676
     28 N         -19.9793  -11.9435  -11.3273 N.ar    1  UNL1       -0.2488
     29 C         -19.6946  -13.3665  -11.1802 C.3     1  UNL1        0.1537
     30 C         -24.6125  -14.3393  -15.4461 C.3     1  UNL1        0.0310
     31 C         -23.6558  -13.5444  -14.6081 C.ar    1  UNL1       -0.0218
     32 C         -24.1332  -12.7319  -13.5682 C.ar    1  UNL1       -0.0042
     33 C         -23.2394  -12.0203  -12.7628 C.ar    1  UNL1        0.0012
     34 C         -21.8581  -12.1263  -12.9770 C.ar    1  UNL1        0.0174
     35 C         -21.3790  -12.9468  -14.0078 C.ar    1  UNL1        0.0012
     36 C         -22.2723  -13.6583  -14.8139 C.ar    1  UNL1       -0.0042
@<TRIPOS>BOND
     1    30    31    1
     2    31    32   ar
     3    32    33   ar
     4    33    34   ar
     5    34    24    1
     6    24    25   ar
     7    25     1    1
     8     1     2   ar
     9     2     3   ar
    10     3     4    1
    11     3     5   ar
    12     5     6   ar
    13     6     7   ar
    14     7     8   ar
    15     8     9   ar
    16     9    11    1
    17    11    12    1
    18    12    13    1
    19    13    14    1
    20    13    15    1
    21    15    18    1
    22    18    19    1
    23    19    20    1
    24    20    21    1
    25    21    22    1
    26    22    23    1
    27    15    16    1
    28     9    10   ar
    29    25    26   ar
    30    26    27   ar
    31    27    28   ar
    32    28    29    1
    33    34    35   ar
    34    35    36   ar
    35    36    31   ar
    36    28    24   ar
    37    10     1   ar
    38    10     5   ar
    39    16    11    1
    40    23    18    1
    41    14    17    1
@<TRIPOS>MOLECULE
*****
 36 41 0 0 0
SMALL
GASTEIGER

@<TRIPOS>ATOM
      1 C         -24.4296   -6.8879  -14.8306 C.ar    1  UNL1        0.1095
      2 N         -24.9733   -6.6255  -16.0459 N.ar    1  UNL1       -0.1677
      3 N         -24.0543   -6.8710  -16.9726 N.ar    1  UNL1       -0.2319
      4 C         -24.2914   -6.7829  -18.4071 C.3     1  UNL1        0.1554
      5 C         -22.9445   -7.3137  -16.3622 C.ar    1  UNL1        0.1654
      6 N         -21.8015   -7.7411  -16.9508 N.ar    1  UNL1       -0.2050
      7 C         -20.7867   -8.1741  -16.1456 C.ar    1  UNL1        0.2014
      8 N         -20.9221   -8.1494  -14.7820 N.ar    1  UNL1       -0.2089
      9 C         -22.0725   -7.7181  -14.1829 C.ar    1  UNL1        0.1380
     10 C         -23.1216   -7.3197  -15.0136 C.ar    1  UNL1        0.0865
     11 N         -22.1346   -7.5912  -12.7587 N.pl3   1  UNL1       -0.2891
     12 C         -22.4884   -6.3423  -12.1044 C.3     1  UNL1        0.1228
     13 C         -21.9398   -6.4582  -10.6813 C.3     1  UNL1        0.1464
     14 O         -20.7152   -5.7744  -10.5854 O.3     1  UNL1       -0.3813
     15 C         -21.7252   -7.9698  -10.4562 C.3     1  UNL1        0.1062
     16 C         -21.4430   -8.5014  -11.8670 C.3     1  UNL1        0.1106
     17 H         -20.9354   -4.8122  -10.4797 H       1  UNL1        0.2105
     18 N         -20.6303   -8.2699   -9.4939 N.3     1  UNL1       -0.2704
     19 C         -21.1748   -8.6213   -8.1626 C.3     1  UNL1        0.0722
     20 C         -20.0499   -8.6574   -7.1119 C.3     1  UNL1        0.0174
     21 C         -18.6882   -9.0175   -7.7246 C.3     1  UNL1        0.0029
     22 C         -18.8597   -9.9811   -8.8980 C.3     1  UNL1        0.0174
     23 C         -19.7696   -9.3778   -9.9919 C.3     1  UNL1        0.0722
     24 C         -25.5806   -7.9420  -12.7943 C.ar    1  UNL1        0.0809
     25 C         -25.2036   -6.8687  -13.5803 C.ar    1  UNL1        0.0577
     26 C         -25.7667   -5.7636  -12.9684 C.ar    1  UNL1        0.1231
     27 N         -26.4588   -6.1587  -11.8815 N.ar    1  UNL1       -0.1676
     28 N         -26.3397   -7.4737  -11.7806 N.ar    1  UNL1       -0.2488
     29 C         -27.0035   -8.2612  -10.7477 C.3     1  UNL1        0.1537
     30 C         -24.5181  -13.5203  -13.8973 C.3     1  UNL1        0.0310
     31 C         -24.8227  -12.0839  -13.5919 C.ar    1  UNL1       -0.0218
     32 C         -24.2804  -11.4733  -12.4507 C.ar    1  UNL1       -0.0042
     33 C         -24.5334  -10.1243  -12.1858 C.ar    1  UNL1        0.0012
     34 C         -25.3168   -9.3666  -13.0674 C.ar    1  UNL1        0.0174
     35 C         -25.8496   -9.9721  -14.2141 C.ar    1  UNL1        0.0012
     36 C         -25.5975  -11.3212  -14.4794 C.ar    1  UNL1       -0.0042
@<TRIPOS>BOND
     1    30    31    1
     2    31    32   ar
     3    32    33   ar
     4    33    34   ar
     5    34    24    1
     6    24    25   ar
     7    25     1    1
     8     1     2   ar
     9     2     3   ar
    10     3     4    1
    11     3     5   ar
    12     5     6   ar
    13     6     7   ar
    14     7     8   ar
    15     8     9   ar
    16     9    11    1
    17    11    12    1
    18    12    13    1
    19    13    14    1
    20    13    15    1
    21    15    18    1
    22    18    19    1
    23    19    20    1
    24    20    21    1
    25    21    22    1
    26    22    23    1
    27    15    16    1
    28     9    10   ar
    29    25    26   ar
    30    26    27   ar
    31    27    28   ar
    32    28    29    1
    33    34    35   ar
    34    35    36   ar
    35    36    31   ar
    36    28    24   ar
    37    10     1   ar
    38    10     5   ar
    39    16    11    1
    40    23    18    1
    41    14    17    1
@<TRIPOS>MOLECULE
*****
 36 41 0 0 0
SMALL
GASTEIGER

@<TRIPOS>ATOM
      1 C         -23.1327   -9.2441  -14.5448 C.ar    1  UNL1        0.1095
      2 N         -22.9293   -9.0871  -15.8772 N.ar    1  UNL1       -0.1677
      3 N         -23.4721  -10.1243  -16.5042 N.ar    1  UNL1       -0.2319
      4 C         -23.5277  -10.2705  -17.9523 C.3     1  UNL1        0.1554
      5 C         -24.0426  -10.9220  -15.5885 C.ar    1  UNL1        0.1654
      6 N         -24.7622  -12.0469  -15.8172 N.ar    1  UNL1       -0.2050
      7 C         -25.2788  -12.7096  -14.7404 C.ar    1  UNL1        0.2014
      8 N         -25.0489  -12.2549  -13.4681 N.ar    1  UNL1       -0.2089
      9 C         -24.3226  -11.1213  -13.2316 C.ar    1  UNL1        0.1380
     10 C         -23.8362  -10.4246  -14.3394 C.ar    1  UNL1        0.0865
     11 N         -24.0001  -10.7441  -11.8892 N.pl3   1  UNL1       -0.2891
     12 C         -24.9404  -10.0409  -11.0323 C.3     1  UNL1        0.1228
     13 C         -24.0874   -9.3764   -9.9505 C.3     1  UNL1        0.1464
     14 O         -23.8811   -8.0231  -10.2705 O.3     1  UNL1       -0.3813
     15 C         -22.7462  -10.1397   -9.9722 C.3     1  UNL1        0.1062
     16 C         -22.6323  -10.6141  -11.4263 C.3     1  UNL1        0.1106
     17 H         -24.7028   -7.5384   -9.9960 H       1  UNL1        0.2105
     18 N         -21.5903   -9.3068   -9.5419 N.3     1  UNL1       -0.2704
     19 C         -21.5749   -9.1392   -8.0709 C.3     1  UNL1        0.0722
     20 C         -20.5539   -8.0619   -7.6613 C.3     1  UNL1        0.0174
     21 C         -19.3918   -7.9475   -8.6590 C.3     1  UNL1        0.0029
     22 C         -19.0709   -9.3082   -9.2756 C.3     1  UNL1        0.0174
     23 C         -20.3035   -9.9049   -9.9920 C.3     1  UNL1        0.0722
     24 C         -23.6090   -7.2127  -13.0518 C.ar    1  UNL1        0.0809
     25 C         -22.7961   -8.2135  -13.5512 C.ar    1  UNL1        0.0577
     26 C         -21.5649   -8.0020  -12.9577 C.ar    1  UNL1        0.1231
     27 N         -21.6344   -6.9198  -12.1574 N.ar    1  UNL1       -0.1676
     28 N         -22.8713   -6.4504  -12.2164 N.ar    1  UNL1       -0.2488
     29 C         -23.3056   -5.2469  -11.5159 C.3     1  UNL1        0.1537
     30 C         -29.0686   -6.1396  -14.6341 C.3     1  UNL1        0.0310
     31 C         -27.6564   -6.3931  -14.1974 C.ar    1  UNL1       -0.0218
     32 C         -27.3798   -7.3743  -13.2331 C.ar    1  UNL1       -0.0042
     33 C         -26.0605   -7.6370  -12.8533 C.ar    1  UNL1        0.0012
     34 C         -25.0021   -6.9339  -13.4455 C.ar    1  UNL1        0.0174
     35 C         -25.2759   -5.9616  -14.4176 C.ar    1  UNL1        0.0012
     36 C         -26.5951   -5.6981  -14.7975 C.ar    1  UNL1       -0.0042
@<TRIPOS>BOND
     1    30    31    1
     2    31    32   ar
     3    32    33   ar
     4    33    34   ar
     5    34    24    1
     6    24    25   ar
     7    25     1    1
     8     1     2   ar
     9     2     3   ar
    10     3     4    1
    11     3     5   ar
    12     5     6   ar
    13     6     7   ar
    14     7     8   ar
    15     8     9   ar
    16     9    11    1
    17    11    12    1
    18    12    13    1
    19    13    14    1
    20    13    15    1
    21    15    18    1
    22    18    19    1
    23    19    20    1
    24    20    21    1
    25    21    22    1
    26    22    23    1
    27    15    16    1
    28     9    10   ar
    29    25    26   ar
    30    26    27   ar
    31    27    28   ar
    32    28    29    1
    33    34    35   ar
    34    35    36   ar
    35    36    31   ar
    36    28    24   ar
    37    10     1   ar
    38    10     5   ar
    39    16    11    1
    40    23    18    1
    41    14    17    1
@<TRIPOS>MOLECULE
*****
 36 41 0 0 0
SMALL
GASTEIGER

@<TRIPOS>ATOM
      1 C         -23.7498   -9.9684  -14.2632 C.ar    1  UNL1        0.1095
      2 N         -24.2257  -10.6821  -15.3146 N.ar    1  UNL1       -0.1677
      3 N         -23.4483  -10.4419  -16.3642 N.ar    1  UNL1       -0.2319
      4 C         -23.5940  -11.0923  -17.6593 C.3     1  UNL1        0.1554
      5 C         -22.4685   -9.6080  -15.9839 C.ar    1  UNL1        0.1654
      6 N         -21.4278   -9.1715  -16.7337 N.ar    1  UNL1       -0.2050
      7 C         -20.5201   -8.3352  -16.1487 C.ar    1  UNL1        0.2014
      8 N         -20.6803   -7.9355  -14.8476 N.ar    1  UNL1       -0.2089
      9 C         -21.7289   -8.3719  -14.0869 C.ar    1  UNL1        0.1380
     10 C         -22.6275   -9.2621  -14.6780 C.ar    1  UNL1        0.0865
     11 N         -21.9317   -7.8398  -12.7739 N.pl3   1  UNL1       -0.2891
     12 C         -22.0868   -6.4156  -12.5278 C.3     1  UNL1        0.1228
     13 C         -21.7490   -6.2184  -11.0492 C.3     1  UNL1        0.1464
     14 O         -20.4272   -5.7574  -10.9195 O.3     1  UNL1       -0.3813
     15 C         -21.8897   -7.6186  -10.4156 C.3     1  UNL1        0.1062
     16 C         -21.5612   -8.5668  -11.5755 C.3     1  UNL1        0.1106
     17 H         -20.4484   -4.7815  -11.1002 H       1  UNL1        0.2105
     18 N         -21.0065   -7.8195   -9.2346 N.3     1  UNL1       -0.2704
     19 C         -21.7283   -8.5128   -8.1435 C.3     1  UNL1        0.0722
     20 C         -20.9080   -8.4694   -6.8412 C.3     1  UNL1        0.0174
     21 C         -19.3966   -8.3927   -7.1039 C.3     1  UNL1        0.0029
     22 C         -19.0288   -9.1512   -8.3782 C.3     1  UNL1        0.0174
     23 C         -19.7899   -8.5944   -9.6027 C.3     1  UNL1        0.0722
     24 C         -25.2648   -9.3552  -12.2854 C.ar    1  UNL1        0.0809
     25 C         -24.2737  -10.1018  -12.8955 C.ar    1  UNL1        0.0577
     26 C         -23.8297  -10.9723  -11.9168 C.ar    1  UNL1        0.1231
     27 N         -24.5094  -10.7459  -10.7753 N.ar    1  UNL1       -0.1676
     28 N         -25.3758   -9.7711  -11.0056 N.ar    1  UNL1       -0.2488
     29 C         -26.2522   -9.2191   -9.9786 C.3     1  UNL1        0.1537
     30 C         -28.1074   -4.8946  -14.6275 C.3     1  UNL1        0.0310
     31 C         -27.3829   -6.0413  -13.9876 C.ar    1  UNL1       -0.0218
     32 C         -28.0149   -7.2861  -13.8454 C.ar    1  UNL1       -0.0042
     33 C         -27.3273   -8.3655  -13.2833 C.ar    1  UNL1        0.0012
     34 C         -25.9950   -8.2172  -12.8730 C.ar    1  UNL1        0.0174
     35 C         -25.3583   -6.9776  -13.0252 C.ar    1  UNL1        0.0012
     36 C         -26.0456   -5.8976  -13.5868 C.ar    1  UNL1       -0.0042
@<TRIPOS>BOND
     1    30    31    1
     2    31    32   ar
     3    32    33   ar
     4    33    34   ar
     5    34    24    1
     6    24    25   ar
     7    25     1    1
     8     1     2   ar
     9     2     3   ar
    10     3     4    1
    11     3     5   ar
    12     5     6   ar
    13     6     7   ar
    14     7     8   ar
    15     8     9   ar
    16     9    11    1
    17    11    12    1
    18    12    13    1
    19    13    14    1
    20    13    15    1
    21    15    18    1
    22    18    19    1
    23    19    20    1
    24    20    21    1
    25    21    22    1
    26    22    23    1
    27    15    16    1
    28     9    10   ar
    29    25    26   ar
    30    26    27   ar
    31    27    28   ar
    32    28    29    1
    33    34    35   ar
    34    35    36   ar
    35    36    31   ar
    36    28    24   ar
    37    10     1   ar
    38    10     5   ar
    39    16    11    1
    40    23    18    1
    41    14    17    1
@<TRIPOS>MOLECULE
*****
 36 41 0 0 0
SMALL
GASTEIGER

@<TRIPOS>ATOM
      1 C         -20.0466   -9.5420  -10.6110 C.ar    1  UNL1        0.1095
      2 N         -19.0463   -9.5831   -9.6951 N.ar    1  UNL1       -0.1677
      3 N         -18.6111  -10.8351   -9.6127 N.ar    1  UNL1       -0.2319
      4 C         -17.4852  -11.2603   -8.7923 C.3     1  UNL1        0.1554
      5 C         -19.3029  -11.5826  -10.4861 C.ar    1  UNL1        0.1654
      6 N         -19.1203  -12.8959  -10.7645 N.ar    1  UNL1       -0.2050
      7 C         -19.9230  -13.4707  -11.7083 C.ar    1  UNL1        0.2014
      8 N         -20.8985  -12.7372  -12.3319 N.ar    1  UNL1       -0.2089
      9 C         -21.0879  -11.4123  -12.0540 C.ar    1  UNL1        0.1380
     10 C         -20.2339  -10.8209  -11.1212 C.ar    1  UNL1        0.0865
     11 N         -22.1920  -10.7096  -12.6330 N.pl3   1  UNL1       -0.2891
     12 C         -23.5655  -11.1618  -12.4838 C.3     1  UNL1        0.1228
     13 C         -24.3377  -10.5036  -13.6283 C.3     1  UNL1        0.1464
     14 O         -24.5024  -11.4202  -14.6814 O.3     1  UNL1       -0.3813
     15 C         -23.4530   -9.3233  -14.0824 C.3     1  UNL1        0.1062
     16 C         -22.0329   -9.7959  -13.7475 C.3     1  UNL1        0.1106
     17 H         -25.2648  -12.0049  -14.4316 H       1  UNL1        0.2105
     18 N         -23.6258   -8.9800  -15.5202 N.3     1  UNL1       -0.2704
     19 C         -22.8406   -7.7765  -15.8769 C.3     1  UNL1        0.0722
     20 C         -23.2367   -7.2689  -17.2755 C.3     1  UNL1        0.0174
     21 C         -23.7422   -8.3976  -18.1862 C.3     1  UNL1        0.0029
     22 C         -23.0264   -9.7102  -17.8708 C.3     1  UNL1        0.0174
     23 C         -23.2249  -10.1172  -16.3932 C.3     1  UNL1        0.0722
     24 C         -21.9670   -7.8612  -10.8746 C.ar    1  UNL1        0.0809
     25 C         -20.6674   -8.2907  -11.0708 C.ar    1  UNL1        0.0577
     26 C         -20.0826   -7.3112  -11.8528 C.ar    1  UNL1        0.1231
     27 N         -20.9915   -6.3538  -12.1239 N.ar    1  UNL1       -0.1676
     28 N         -22.1253   -6.6903  -11.5281 N.ar    1  UNL1       -0.2488
     29 C         -23.3534   -5.9120  -11.6450 C.3     1  UNL1        0.1537
     30 C         -26.1861  -10.7773   -8.1989 C.3     1  UNL1        0.0310
     31 C         -25.0946   -9.9953   -8.8672 C.ar    1  UNL1       -0.0218
     32 C         -23.7536  -10.2076   -8.5122 C.ar    1  UNL1       -0.0042
     33 C         -22.7334   -9.5064   -9.1613 C.ar    1  UNL1        0.0012
     34 C         -23.0410   -8.5980  -10.1837 C.ar    1  UNL1        0.0174
     35 C         -24.3793   -8.3935  -10.5477 C.ar    1  UNL1        0.0012
     36 C         -25.4001   -9.0941   -9.8987 C.ar    1  UNL1       -0.0042
@<TRIPOS>BOND
     1    30    31    1
     2    31    32   ar
     3    32    33   ar
     4    33    34   ar
     5    34    24    1
     6    24    25   ar
     7    25     1    1
     8     1     2   ar
     9     2     3   ar
    10     3     4    1
    11     3     5   ar
    12     5     6   ar
    13     6     7   ar
    14     7     8   ar
    15     8     9   ar
    16     9    11    1
    17    11    12    1
    18    12    13    1
    19    13    14    1
    20    13    15    1
    21    15    18    1
    22    18    19    1
    23    19    20    1
    24    20    21    1
    25    21    22    1
    26    22    23    1
    27    15    16    1
    28     9    10   ar
    29    25    26   ar
    30    26    27   ar
    31    27    28   ar
    32    28    29    1
    33    34    35   ar
    34    35    36   ar
    35    36    31   ar
    36    28    24   ar
    37    10     1   ar
    38    10     5   ar
    39    16    11    1
    40    23    18    1
    41    14    17    1
