@<TRIPOS>MOLECULE
*****
 46 51 0 0 0
SMALL
GASTEIGER

@<TRIPOS>ATOM
      1 C          -8.6955  -17.0295   24.8351 C.ar    1  UNL1        0.1318
      2 C          -9.0196  -17.4058   26.1502 C.ar    1  UNL1        0.0356
      3 C          -8.6738  -16.5692   27.2123 C.ar    1  UNL1        0.0191
      4 C          -8.0191  -15.3556   26.9719 C.ar    1  UNL1        0.0702
      5 C          -7.6899  -15.0245   25.6479 C.ar    1  UNL1        0.1149
      6 N          -8.0336  -15.8560   24.6294 N.ar    1  UNL1       -0.2279
      7 C          -9.4750  -19.6072   21.3641 C.3     1  UNL1        0.0472
      8 C          -8.8026  -18.2095   21.2814 C.3     1  UNL1        0.0252
      9 C          -9.2665  -17.2586   22.3892 C.3     1  UNL1        0.0923
     10 N          -9.0358  -17.8675   23.7084 N.pl3   1  UNL1       -0.2932
     11 C          -9.2606  -19.3120   23.8897 C.3     1  UNL1        0.0923
     12 C         -10.1038  -19.8909   22.7489 C.3     1  UNL1        0.0252
     13 C         -10.5260  -19.7795   20.2478 C.3     1  UNL1        0.2055
     14 O         -11.2553  -18.5700   20.0300 O.3     1  UNL1       -0.4724
     15 C         -12.2101  -16.4846   20.7604 C.ar    1  UNL1        0.1724
     16 C         -12.9024  -15.7214   21.7179 C.ar    1  UNL1        0.0403
     17 C         -13.3322  -16.3041   22.9108 C.ar    1  UNL1        0.0098
     18 C         -13.0833  -17.6607   23.1712 C.ar    1  UNL1        0.0787
     19 C         -12.3941  -18.4240   22.2142 C.ar    1  UNL1        0.0465
     20 C         -11.9506  -17.8406   21.0102 C.ar    1  UNL1        0.1724
     21 C         -13.5403  -18.2809   24.4352 C.2     1  UNL1        0.3381
     22 O         -14.7711  -18.3714   24.6938 O.2     1  UNL1       -0.2451
     23 O         -12.6142  -18.7706   25.3528 O.3     1  UNL1       -0.4771
     24 H         -12.9168  -19.1963   26.2208 H       1  UNL1        0.2954
     25 C         -10.5908  -15.1310   19.4150 C.3     1  UNL1        0.2526
     26 O         -11.7603  -15.9318   19.5507 O.3     1  UNL1       -0.4684
     27 N          -7.6482  -14.5141   28.0774 N.am    1  UNL1       -0.2766
     28 C          -8.5545  -13.6173   28.7368 C.2     1  UNL1        0.2839
     29 O          -9.7933  -13.8490   28.7207 O.2     1  UNL1       -0.2665
     30 H          -6.6990  -14.6405   28.4946 H       1  UNL1        0.1553
     31 C          -8.0592  -12.4648   29.5101 C.ar    1  UNL1        0.1946
     32 O          -8.7946  -11.8585   30.4256 O.2     1  UNL1       -0.4492
     33 C          -8.0790  -10.8880   30.9393 C.ar    1  UNL1        0.1452
     34 C          -8.4545   -9.9994   31.9407 C.ar    1  UNL1        0.0375
     35 C          -7.5204   -9.0306   32.3477 C.ar    1  UNL1        0.0031
     36 C          -6.2321   -8.9644   31.7508 C.ar    1  UNL1        0.0002
     37 C          -5.8913   -9.8873   30.7330 C.ar    1  UNL1        0.0028
     38 C          -6.8432  -10.8344   30.3545 C.ar    1  UNL1        0.0337
     39 C          -6.8096  -11.8403   29.4094 C.ar    1  UNL1        0.0202
     40 C          -5.6742  -12.1669   28.4868 C.3     1  UNL1        0.0345
     41 C          -5.2530   -7.9377   32.1894 C.ar    1  UNL1        0.0000
     42 C          -4.7611   -6.9826   31.2794 C.ar    1  UNL1        0.0000
     43 C          -3.8402   -6.0162   31.6957 C.ar    1  UNL1        0.0000
     44 C          -3.3999   -5.9922   33.0208 C.ar    1  UNL1        0.0000
     45 C          -3.8801   -6.9343   33.9331 C.ar    1  UNL1        0.0000
     46 C          -4.8019   -7.9023   33.5227 C.ar    1  UNL1        0.0000
@<TRIPOS>BOND
     1    25    26    1
     2    26    15    1
     3    15    16   ar
     4    16    17   ar
     5    17    18   ar
     6    18    21    1
     7    21    22    2
     8    21    23    1
     9    18    19   ar
    10    19    20   ar
    11    20    14    1
    12    14    13    1
    13    13     7    1
    14     7     8    1
    15     8     9    1
    16     9    10    1
    17    10     1    1
    18     1     2   ar
    19     2     3   ar
    20     3     4   ar
    21     4    27    1
    22    27    28   am
    23    28    29    2
    24    28    31    1
    25    31    32   ar
    26    32    33   ar
    27    33    34   ar
    28    34    35   ar
    29    35    36   ar
    30    36    41    1
    31    41    42   ar
    32    42    43   ar
    33    43    44   ar
    34    44    45   ar
    35    45    46   ar
    36    36    37   ar
    37    37    38   ar
    38    38    39   ar
    39    39    40    1
    40     4     5   ar
    41     5     6   ar
    42    10    11    1
    43    11    12    1
    44    20    15   ar
    45    12     7    1
    46     6     1   ar
    47    39    31   ar
    48    38    33   ar
    49    46    41   ar
    50    23    24    1
    51    27    30    1
@<TRIPOS>MOLECULE
*****
 46 51 0 0 0
SMALL
GASTEIGER

@<TRIPOS>ATOM
      1 C          -6.7953  -10.9582   30.3114 C.ar    1  UNL1        0.1318
      2 C          -7.9678  -11.7127   30.1322 C.ar    1  UNL1        0.0356
      3 C          -7.9662  -12.7900   29.2451 C.ar    1  UNL1        0.0191
      4 C          -6.8018  -13.1278   28.5455 C.ar    1  UNL1        0.0702
      5 C          -5.6570  -12.3369   28.7315 C.ar    1  UNL1        0.1149
      6 N          -5.6824  -11.2903   29.5982 N.ar    1  UNL1       -0.2279
      7 C          -6.5994   -7.7091   33.2617 C.3     1  UNL1        0.0472
      8 C          -7.5974   -8.8970   33.3347 C.3     1  UNL1        0.0252
      9 C          -7.9698   -9.4480   31.9548 C.3     1  UNL1        0.0923
     10 N          -6.7557   -9.8355   31.2200 N.pl3   1  UNL1       -0.2932
     11 C          -5.5424   -9.0082   31.3364 C.3     1  UNL1        0.0923
     12 C          -5.8672   -7.6217   31.9017 C.3     1  UNL1        0.0252
     13 C          -7.3063   -6.3756   33.5816 C.3     1  UNL1        0.2055
     14 O          -7.5649   -5.6266   32.3925 O.3     1  UNL1       -0.4724
     15 C          -8.3888   -5.4914   30.1349 C.ar    1  UNL1        0.1724
     16 C          -9.3948   -5.7271   29.1803 C.ar    1  UNL1        0.0403
     17 C         -10.5902   -6.3447   29.5503 C.ar    1  UNL1        0.0098
     18 C         -10.8050   -6.7427   30.8789 C.ar    1  UNL1        0.0787
     19 C          -9.7998   -6.5097   31.8322 C.ar    1  UNL1        0.0465
     20 C          -8.5927   -5.8800   31.4674 C.ar    1  UNL1        0.1724
     21 C         -12.0718   -7.3998   31.2727 C.2     1  UNL1        0.3381
     22 O         -12.0630   -8.5603   31.7656 O.2     1  UNL1       -0.2451
     23 O         -13.2874   -6.7421   31.1016 O.3     1  UNL1       -0.4771
     24 H         -14.1597   -7.1833   31.3674 H       1  UNL1        0.2954
     25 C          -5.9706   -5.5654   29.4937 C.3     1  UNL1        0.2526
     26 O          -7.1750   -4.8703   29.8000 O.3     1  UNL1       -0.4684
     27 N          -6.8207  -14.2261   27.6175 N.am    1  UNL1       -0.2766
     28 C          -5.9541  -14.3224   26.4772 C.2     1  UNL1        0.2839
     29 O          -4.8402  -13.7326   26.4810 O.2     1  UNL1       -0.2665
     30 H          -7.4202  -15.0509   27.8442 H       1  UNL1        0.1553
     31 C          -6.3031  -15.1703   25.3237 C.ar    1  UNL1        0.1946
     32 O          -5.4020  -15.5781   24.4471 O.2     1  UNL1       -0.4492
     33 C          -6.0141  -16.3166   23.5540 C.ar    1  UNL1        0.1452
     34 C          -5.4499  -16.9573   22.4564 C.ar    1  UNL1        0.0375
     35 C          -6.2974  -17.7085   21.6232 C.ar    1  UNL1        0.0031
     36 C          -7.6885  -17.8076   21.8977 C.ar    1  UNL1        0.0002
     37 C          -8.2222  -17.1377   23.0248 C.ar    1  UNL1        0.0028
     38 C          -7.3518  -16.4014   23.8289 C.ar    1  UNL1        0.0337
     39 C          -7.5693  -15.6512   24.9673 C.ar    1  UNL1        0.0202
     40 C          -8.8836  -15.4146   25.6483 C.3     1  UNL1        0.0345
     41 C          -8.5740  -18.6049   21.0115 C.ar    1  UNL1        0.0000
     42 C          -9.9640  -18.3809   20.9993 C.ar    1  UNL1        0.0000
     43 C         -10.7951  -19.1325   20.1628 C.ar    1  UNL1        0.0000
     44 C         -10.2506  -20.1140   19.3317 C.ar    1  UNL1        0.0000
     45 C          -8.8735  -20.3458   19.3348 C.ar    1  UNL1        0.0000
     46 C          -8.0374  -19.5967   20.1684 C.ar    1  UNL1        0.0000
@<TRIPOS>BOND
     1    25    26    1
     2    26    15    1
     3    15    16   ar
     4    16    17   ar
     5    17    18   ar
     6    18    21    1
     7    21    22    2
     8    21    23    1
     9    18    19   ar
    10    19    20   ar
    11    20    14    1
    12    14    13    1
    13    13     7    1
    14     7     8    1
    15     8     9    1
    16     9    10    1
    17    10     1    1
    18     1     2   ar
    19     2     3   ar
    20     3     4   ar
    21     4    27    1
    22    27    28   am
    23    28    29    2
    24    28    31    1
    25    31    32   ar
    26    32    33   ar
    27    33    34   ar
    28    34    35   ar
    29    35    36   ar
    30    36    41    1
    31    41    42   ar
    32    42    43   ar
    33    43    44   ar
    34    44    45   ar
    35    45    46   ar
    36    36    37   ar
    37    37    38   ar
    38    38    39   ar
    39    39    40    1
    40     4     5   ar
    41     5     6   ar
    42    10    11    1
    43    11    12    1
    44    20    15   ar
    45    12     7    1
    46     6     1   ar
    47    39    31   ar
    48    38    33   ar
    49    46    41   ar
    50    23    24    1
    51    27    30    1
@<TRIPOS>MOLECULE
*****
 46 51 0 0 0
SMALL
GASTEIGER

@<TRIPOS>ATOM
      1 C          -7.4929  -16.5693   24.0091 C.ar    1  UNL1        0.1318
      2 C          -6.2731  -15.8805   24.1261 C.ar    1  UNL1        0.0356
      3 C          -5.9924  -15.1675   25.2924 C.ar    1  UNL1        0.0191
      4 C          -6.9128  -15.1465   26.3468 C.ar    1  UNL1        0.0702
      5 C          -8.1307  -15.8257   26.1845 C.ar    1  UNL1        0.1149
      6 N          -8.3841  -16.5110   25.0386 N.ar    1  UNL1       -0.2279
      7 C          -8.3619  -18.6698   20.2498 C.3     1  UNL1        0.0472
      8 C          -8.8971  -17.2556   20.6047 C.3     1  UNL1        0.0252
      9 C          -9.0830  -17.0496   22.1113 C.3     1  UNL1        0.0923
     10 N          -7.8214  -17.3188   22.8184 N.pl3   1  UNL1       -0.2932
     11 C          -6.9584  -18.4240   22.3667 C.3     1  UNL1        0.0923
     12 C          -7.7246  -19.3927   21.4600 C.3     1  UNL1        0.0252
     13 C          -9.4736  -19.5385   19.6254 C.3     1  UNL1        0.2055
     14 O         -10.7666  -19.1305   20.0767 O.3     1  UNL1       -0.4724
     15 C         -12.2271  -18.1065   21.6930 C.ar    1  UNL1        0.1724
     16 C         -12.6470  -17.9214   23.0227 C.ar    1  UNL1        0.0403
     17 C         -12.0089  -18.5933   24.0660 C.ar    1  UNL1        0.0098
     18 C         -10.9413  -19.4659   23.8040 C.ar    1  UNL1        0.0787
     19 C         -10.5230  -19.6530   22.4761 C.ar    1  UNL1        0.0465
     20 C         -11.1581  -18.9724   21.4177 C.ar    1  UNL1        0.1724
     21 C         -10.2644  -20.1809   24.9095 C.2     1  UNL1        0.3381
     22 O          -9.7645  -19.5398   25.8733 O.2     1  UNL1       -0.2451
     23 O         -10.1723  -21.5705   24.8954 O.3     1  UNL1       -0.4771
     24 H          -9.7108  -22.0690   25.6469 H       1  UNL1        0.2954
     25 C         -12.5072  -16.1339   20.1782 C.3     1  UNL1        0.2526
     26 O         -12.8433  -17.4457   20.6184 O.3     1  UNL1       -0.4684
     27 N          -6.6207  -14.3889   27.5336 N.am    1  UNL1       -0.2766
     28 C          -7.6145  -13.6945   28.3020 C.2     1  UNL1        0.2839
     29 O          -8.8136  -14.0823   28.2782 O.2     1  UNL1       -0.2665
     30 H          -5.6514  -14.4353   27.9201 H       1  UNL1        0.1553
     31 C          -7.2483  -12.5783   29.1914 C.ar    1  UNL1        0.1946
     32 O          -7.9734  -12.2463   30.2454 O.2     1  UNL1       -0.4492
     33 C          -7.3883  -11.2317   30.8336 C.ar    1  UNL1        0.1452
     34 C          -7.8017  -10.5675   31.9831 C.ar    1  UNL1        0.0375
     35 C          -7.0144   -9.4991   32.4472 C.ar    1  UNL1        0.0031
     36 C          -5.8322   -9.1123   31.7593 C.ar    1  UNL1        0.0002
     37 C          -5.4485   -9.8143   30.5915 C.ar    1  UNL1        0.0028
     38 C          -6.2539  -10.8687   30.1601 C.ar    1  UNL1        0.0337
     39 C          -6.1479  -11.7194   29.0779 C.ar    1  UNL1        0.0202
     40 C          -5.0819  -11.7020   28.0241 C.3     1  UNL1        0.0345
     41 C          -5.0077   -7.9830   32.2594 C.ar    1  UNL1        0.0000
     42 C          -4.6349   -7.9143   33.6153 C.ar    1  UNL1        0.0000
     43 C          -3.8575   -6.8502   34.0830 C.ar    1  UNL1        0.0000
     44 C          -3.4448   -5.8449   33.2059 C.ar    1  UNL1        0.0000
     45 C          -3.8082   -5.9015   31.8586 C.ar    1  UNL1        0.0000
     46 C          -4.5847   -6.9636   31.3851 C.ar    1  UNL1        0.0000
@<TRIPOS>BOND
     1    25    26    1
     2    26    15    1
     3    15    16   ar
     4    16    17   ar
     5    17    18   ar
     6    18    21    1
     7    21    22    2
     8    21    23    1
     9    18    19   ar
    10    19    20   ar
    11    20    14    1
    12    14    13    1
    13    13     7    1
    14     7     8    1
    15     8     9    1
    16     9    10    1
    17    10     1    1
    18     1     2   ar
    19     2     3   ar
    20     3     4   ar
    21     4    27    1
    22    27    28   am
    23    28    29    2
    24    28    31    1
    25    31    32   ar
    26    32    33   ar
    27    33    34   ar
    28    34    35   ar
    29    35    36   ar
    30    36    41    1
    31    41    42   ar
    32    42    43   ar
    33    43    44   ar
    34    44    45   ar
    35    45    46   ar
    36    36    37   ar
    37    37    38   ar
    38    38    39   ar
    39    39    40    1
    40     4     5   ar
    41     5     6   ar
    42    10    11    1
    43    11    12    1
    44    20    15   ar
    45    12     7    1
    46     6     1   ar
    47    39    31   ar
    48    38    33   ar
    49    46    41   ar
    50    23    24    1
    51    27    30    1
@<TRIPOS>MOLECULE
*****
 46 51 0 0 0
SMALL
GASTEIGER

@<TRIPOS>ATOM
      1 C          -5.0114  -16.9100   23.8610 C.ar    1  UNL1        0.1318
      2 C          -4.3336  -17.1333   25.0721 C.ar    1  UNL1        0.0356
      3 C          -4.6386  -16.3523   26.1877 C.ar    1  UNL1        0.0191
      4 C          -5.6221  -15.3595   26.1079 C.ar    1  UNL1        0.0702
      5 C          -6.2607  -15.1487   24.8756 C.ar    1  UNL1        0.1149
      6 N          -5.9454  -15.9192   23.8014 N.ar    1  UNL1       -0.2279
      7 C          -4.3215  -19.4717   20.3594 C.3     1  UNL1        0.0472
      8 C          -4.0251  -19.8951   21.8241 C.3     1  UNL1        0.0252
      9 C          -3.6599  -18.7107   22.7245 C.3     1  UNL1        0.0923
     10 N          -4.7248  -17.6966   22.6835 N.pl3   1  UNL1       -0.2932
     11 C          -5.4136  -17.4192   21.4111 C.3     1  UNL1        0.0923
     12 C          -4.6177  -17.9598   20.2188 C.3     1  UNL1        0.0252
     13 C          -3.1679  -19.8859   19.4224 C.3     1  UNL1        0.2055
     14 O          -2.0843  -18.9569   19.4908 O.3     1  UNL1       -0.4724
     15 C          -0.0885  -18.0688   20.5017 C.ar    1  UNL1        0.1724
     16 C           1.1595  -18.2565   21.1230 C.ar    1  UNL1        0.0403
     17 C           1.6492  -19.5430   21.3520 C.ar    1  UNL1        0.0098
     18 C           0.9026  -20.6681   20.9691 C.ar    1  UNL1        0.0787
     19 C          -0.3448  -20.4813   20.3508 C.ar    1  UNL1        0.0465
     20 C          -0.8428  -19.1849   20.1097 C.ar    1  UNL1        0.1724
     21 C           1.4198  -22.0336   21.2131 C.2     1  UNL1        0.3381
     22 O           2.2684  -22.5441   20.4326 O.2     1  UNL1       -0.2451
     23 O           0.9730  -22.7691   22.3081 O.3     1  UNL1       -0.4771
     24 H           1.3204  -23.7044   22.4834 H       1  UNL1        0.2954
     25 C          -1.4951  -16.0953   21.1272 C.3     1  UNL1        0.2526
     26 O          -0.6118  -16.7899   20.2528 O.3     1  UNL1       -0.4684
     27 N          -5.9101  -14.5467   27.2587 N.am    1  UNL1       -0.2766
     28 C          -7.2313  -14.3425   27.7811 C.2     1  UNL1        0.2839
     29 O          -8.1276  -15.2061   27.5826 O.2     1  UNL1       -0.2665
     30 H          -5.1056  -14.1729   27.8102 H       1  UNL1        0.1553
     31 C          -7.5465  -13.1746   28.6225 C.ar    1  UNL1        0.1946
     32 O          -8.7089  -13.0380   29.2364 O.2     1  UNL1       -0.4492
     33 C          -8.6802  -11.9128   29.9079 C.ar    1  UNL1        0.1452
     34 C          -9.6865  -11.3775   30.7043 C.ar    1  UNL1        0.0375
     35 C          -9.4399  -10.1495   31.3429 C.ar    1  UNL1        0.0031
     36 C          -8.1980   -9.4782   31.1768 C.ar    1  UNL1        0.0002
     37 C          -7.2012  -10.0574   30.3554 C.ar    1  UNL1        0.0028
     38 C          -7.4809  -11.2765   29.7373 C.ar    1  UNL1        0.0337
     39 C          -6.7301  -12.0690   28.8923 C.ar    1  UNL1        0.0202
     40 C          -5.3488  -11.7826   28.3853 C.3     1  UNL1        0.0345
     41 C          -7.9480   -8.1822   31.8572 C.ar    1  UNL1        0.0000
     42 C          -6.9420   -8.0697   32.8358 C.ar    1  UNL1        0.0000
     43 C          -6.7082   -6.8476   33.4739 C.ar    1  UNL1        0.0000
     44 C          -7.4737   -5.7269   33.1445 C.ar    1  UNL1        0.0000
     45 C          -8.4747   -5.8256   32.1756 C.ar    1  UNL1        0.0000
     46 C          -8.7123   -7.0449   31.5336 C.ar    1  UNL1        0.0000
@<TRIPOS>BOND
     1    25    26    1
     2    26    15    1
     3    15    16   ar
     4    16    17   ar
     5    17    18   ar
     6    18    21    1
     7    21    22    2
     8    21    23    1
     9    18    19   ar
    10    19    20   ar
    11    20    14    1
    12    14    13    1
    13    13     7    1
    14     7     8    1
    15     8     9    1
    16     9    10    1
    17    10     1    1
    18     1     2   ar
    19     2     3   ar
    20     3     4   ar
    21     4    27    1
    22    27    28   am
    23    28    29    2
    24    28    31    1
    25    31    32   ar
    26    32    33   ar
    27    33    34   ar
    28    34    35   ar
    29    35    36   ar
    30    36    41    1
    31    41    42   ar
    32    42    43   ar
    33    43    44   ar
    34    44    45   ar
    35    45    46   ar
    36    36    37   ar
    37    37    38   ar
    38    38    39   ar
    39    39    40    1
    40     4     5   ar
    41     5     6   ar
    42    10    11    1
    43    11    12    1
    44    20    15   ar
    45    12     7    1
    46     6     1   ar
    47    39    31   ar
    48    38    33   ar
    49    46    41   ar
    50    23    24    1
    51    27    30    1
@<TRIPOS>MOLECULE
*****
 46 51 0 0 0
SMALL
GASTEIGER

@<TRIPOS>ATOM
      1 C          -6.9987  -16.8799   23.2315 C.ar    1  UNL1        0.1318
      2 C          -5.6544  -16.4767   23.3115 C.ar    1  UNL1        0.0356
      3 C          -5.2558  -15.6005   24.3218 C.ar    1  UNL1        0.0191
      4 C          -6.1843  -15.1336   25.2595 C.ar    1  UNL1        0.0702
      5 C          -7.5227  -15.5385   25.1337 C.ar    1  UNL1        0.1149
      6 N          -7.8889  -16.3900   24.1398 N.ar    1  UNL1       -0.2279
      7 C          -8.2317  -19.4986   19.9266 C.3     1  UNL1        0.0472
      8 C          -8.5923  -17.9913   20.0287 C.3     1  UNL1        0.0252
      9 C          -8.6997  -17.5009   21.4760 C.3     1  UNL1        0.0923
     10 N          -7.4515  -17.7854   22.2007 N.pl3   1  UNL1       -0.2932
     11 C          -6.7343  -19.0461   21.9428 C.3     1  UNL1        0.0923
     12 C          -7.6361  -20.0644   21.2375 C.3     1  UNL1        0.0252
     13 C          -9.4552  -20.3289   19.4863 C.3     1  UNL1        0.2055
     14 O         -10.6771  -19.7063   19.8881 O.3     1  UNL1       -0.4724
     15 C         -11.9168  -18.2542   21.3540 C.ar    1  UNL1        0.1724
     16 C         -12.2719  -17.8301   22.6473 C.ar    1  UNL1        0.0403
     17 C         -11.7282  -18.4543   23.7706 C.ar    1  UNL1        0.0098
     18 C         -10.8220  -19.5164   23.6268 C.ar    1  UNL1        0.0787
     19 C         -10.4687  -19.9420   22.3355 C.ar    1  UNL1        0.0465
     20 C         -11.0083  -19.3117   21.1961 C.ar    1  UNL1        0.1724
     21 C         -10.2457  -20.1810   24.8175 C.2     1  UNL1        0.3381
     22 O          -9.8082  -19.4965   25.7819 O.2     1  UNL1       -0.2451
     23 O         -10.1803  -21.5705   24.8840 O.3     1  UNL1       -0.4771
     24 H          -9.7874  -22.0348   25.6941 H       1  UNL1        0.2954
     25 C         -12.1100  -16.3368   19.7570 C.3     1  UNL1        0.2526
     26 O         -12.4413  -17.6484   20.2011 O.3     1  UNL1       -0.4684
     27 N          -5.7646  -14.2132   26.2815 N.am    1  UNL1       -0.2766
     28 C          -6.5063  -13.9644   27.4850 C.2     1  UNL1        0.2839
     29 O          -7.2818  -14.8473   27.9408 O.2     1  UNL1       -0.2665
     30 H          -4.8163  -13.7836   26.1967 H       1  UNL1        0.1553
     31 C          -6.3187  -12.7210   28.2531 C.ar    1  UNL1        0.1946
     32 O          -5.1963  -12.0247   28.2090 O.2     1  UNL1       -0.4492
     33 C          -5.3411  -10.9774   28.9835 C.ar    1  UNL1        0.1452
     34 C          -4.4131   -9.9709   29.2268 C.ar    1  UNL1        0.0375
     35 C          -4.7818   -8.9292   30.0962 C.ar    1  UNL1        0.0031
     36 C          -6.0654   -8.9093   30.7064 C.ar    1  UNL1        0.0002
     37 C          -6.9794   -9.9550   30.4329 C.ar    1  UNL1        0.0028
     38 C          -6.5793  -10.9721   29.5658 C.ar    1  UNL1        0.0337
     39 C          -7.2305  -12.1046   29.1193 C.ar    1  UNL1        0.0202
     40 C          -8.6088  -12.5554   29.4989 C.3     1  UNL1        0.0345
     41 C          -6.4445   -7.8034   31.6220 C.ar    1  UNL1        0.0000
     42 C          -5.5744   -7.3960   32.6512 C.ar    1  UNL1        0.0000
     43 C          -5.9337   -6.3535   33.5112 C.ar    1  UNL1        0.0000
     44 C          -7.1621   -5.7078   33.3552 C.ar    1  UNL1        0.0000
     45 C          -8.0341   -6.1027   32.3383 C.ar    1  UNL1        0.0000
     46 C          -7.6798   -7.1439   31.4748 C.ar    1  UNL1        0.0000
@<TRIPOS>BOND
     1    25    26    1
     2    26    15    1
     3    15    16   ar
     4    16    17   ar
     5    17    18   ar
     6    18    21    1
     7    21    22    2
     8    21    23    1
     9    18    19   ar
    10    19    20   ar
    11    20    14    1
    12    14    13    1
    13    13     7    1
    14     7     8    1
    15     8     9    1
    16     9    10    1
    17    10     1    1
    18     1     2   ar
    19     2     3   ar
    20     3     4   ar
    21     4    27    1
    22    27    28   am
    23    28    29    2
    24    28    31    1
    25    31    32   ar
    26    32    33   ar
    27    33    34   ar
    28    34    35   ar
    29    35    36   ar
    30    36    41    1
    31    41    42   ar
    32    42    43   ar
    33    43    44   ar
    34    44    45   ar
    35    45    46   ar
    36    36    37   ar
    37    37    38   ar
    38    38    39   ar
    39    39    40    1
    40     4     5   ar
    41     5     6   ar
    42    10    11    1
    43    11    12    1
    44    20    15   ar
    45    12     7    1
    46     6     1   ar
    47    39    31   ar
    48    38    33   ar
    49    46    41   ar
    50    23    24    1
    51    27    30    1
@<TRIPOS>MOLECULE
*****
 46 51 0 0 0
SMALL
GASTEIGER

@<TRIPOS>ATOM
      1 C          -6.2345  -16.9845   24.3025 C.ar    1  UNL1        0.1318
      2 C          -5.1054  -16.3700   24.8712 C.ar    1  UNL1        0.0356
      3 C          -5.2585  -15.5361   25.9796 C.ar    1  UNL1        0.0191
      4 C          -6.5264  -15.3206   26.5322 C.ar    1  UNL1        0.0702
      5 C          -7.6338  -15.9315   25.9228 C.ar    1  UNL1        0.1149
      6 N          -7.4614  -16.7372   24.8420 N.ar    1  UNL1       -0.2279
      7 C          -5.9715  -19.8241   20.9607 C.3     1  UNL1        0.0472
      8 C          -5.1197  -19.9175   22.2561 C.3     1  UNL1        0.0252
      9 C          -4.8493  -18.5500   22.8914 C.3     1  UNL1        0.0923
     10 N          -6.1185  -17.8544   23.1547 N.pl3   1  UNL1       -0.2932
     11 C          -7.2220  -17.9672   22.1854 C.3     1  UNL1        0.0923
     12 C          -6.7215  -18.4773   20.8301 C.3     1  UNL1        0.0252
     13 C          -5.1040  -20.0830   19.7114 C.3     1  UNL1        0.2055
     14 O          -4.3787  -18.9119   19.3311 O.3     1  UNL1       -0.4724
     15 C          -3.1447  -17.0470   20.2217 C.ar    1  UNL1        0.1724
     16 C          -1.9996  -16.5198   20.8457 C.ar    1  UNL1        0.0403
     17 C          -0.9408  -17.3555   21.2031 C.ar    1  UNL1        0.0098
     18 C          -1.0041  -18.7343   20.9484 C.ar    1  UNL1        0.0787
     19 C          -2.1484  -19.2617   20.3273 C.ar    1  UNL1        0.0465
     20 C          -3.2189  -18.4228   19.9570 C.ar    1  UNL1        0.1724
     21 C           0.1175  -19.6226   21.3286 C.2     1  UNL1        0.3381
     22 O          -0.0535  -20.8694   21.4067 O.2     1  UNL1       -0.2451
     23 O           1.3739  -19.0891   21.6049 O.3     1  UNL1       -0.4771
     24 H           2.1476  -19.6885   21.8664 H       1  UNL1        0.2954
     25 C          -4.9188  -15.3545   20.7242 C.3     1  UNL1        0.2526
     26 O          -4.2279  -16.2366   19.8457 O.3     1  UNL1       -0.4684
     27 N          -6.6726  -14.4408   27.6602 N.am    1  UNL1       -0.2766
     28 C          -7.9405  -14.0402   28.2008 C.2     1  UNL1        0.2839
     29 O          -8.9514  -14.7776   28.0489 O.2     1  UNL1       -0.2665
     30 H          -5.8115  -14.1648   28.1831 H       1  UNL1        0.1553
     31 C          -8.0724  -12.8146   29.0082 C.ar    1  UNL1        0.1946
     32 O          -9.2002  -12.4832   29.6121 O.2     1  UNL1       -0.4492
     33 C          -8.9987  -11.3576   30.2526 C.ar    1  UNL1        0.1452
     34 C          -9.9110  -10.6514   31.0288 C.ar    1  UNL1        0.0375
     35 C          -9.4782   -9.4588   31.6347 C.ar    1  UNL1        0.0031
     36 C          -8.1474   -8.9921   31.4567 C.ar    1  UNL1        0.0002
     37 C          -7.2513   -9.7409   30.6566 C.ar    1  UNL1        0.0028
     38 C          -7.7154  -10.9190   30.0708 C.ar    1  UNL1        0.0337
     39 C          -7.0952  -11.8412   29.2517 C.ar    1  UNL1        0.0202
     40 C          -5.6858  -11.7856   28.7442 C.3     1  UNL1        0.0345
     41 C          -7.7009   -7.7317   32.1024 C.ar    1  UNL1        0.0000
     42 C          -6.5452   -7.7096   32.9064 C.ar    1  UNL1        0.0000
     43 C          -6.1266   -6.5208   33.5122 C.ar    1  UNL1        0.0000
     44 C          -6.8546   -5.3440   33.3241 C.ar    1  UNL1        0.0000
     45 C          -8.0027   -5.3529   32.5292 C.ar    1  UNL1        0.0000
     46 C          -8.4255   -6.5384   31.9201 C.ar    1  UNL1        0.0000
@<TRIPOS>BOND
     1    25    26    1
     2    26    15    1
     3    15    16   ar
     4    16    17   ar
     5    17    18   ar
     6    18    21    1
     7    21    22    2
     8    21    23    1
     9    18    19   ar
    10    19    20   ar
    11    20    14    1
    12    14    13    1
    13    13     7    1
    14     7     8    1
    15     8     9    1
    16     9    10    1
    17    10     1    1
    18     1     2   ar
    19     2     3   ar
    20     3     4   ar
    21     4    27    1
    22    27    28   am
    23    28    29    2
    24    28    31    1
    25    31    32   ar
    26    32    33   ar
    27    33    34   ar
    28    34    35   ar
    29    35    36   ar
    30    36    41    1
    31    41    42   ar
    32    42    43   ar
    33    43    44   ar
    34    44    45   ar
    35    45    46   ar
    36    36    37   ar
    37    37    38   ar
    38    38    39   ar
    39    39    40    1
    40     4     5   ar
    41     5     6   ar
    42    10    11    1
    43    11    12    1
    44    20    15   ar
    45    12     7    1
    46     6     1   ar
    47    39    31   ar
    48    38    33   ar
    49    46    41   ar
    50    23    24    1
    51    27    30    1
@<TRIPOS>MOLECULE
*****
 46 51 0 0 0
SMALL
GASTEIGER

@<TRIPOS>ATOM
      1 C          -6.7781  -16.9529   23.2438 C.ar    1  UNL1        0.1318
      2 C          -5.4259  -16.8125   23.6014 C.ar    1  UNL1        0.0356
      3 C          -5.0651  -15.8957   24.5898 C.ar    1  UNL1        0.0191
      4 C          -6.0432  -15.1277   25.2324 C.ar    1  UNL1        0.0702
      5 C          -7.3804  -15.2774   24.8320 C.ar    1  UNL1        0.1149
      6 N          -7.7083  -16.1741   23.8648 N.ar    1  UNL1       -0.2279
      7 C          -7.8441  -19.7151   19.9983 C.3     1  UNL1        0.0472
      8 C          -7.9381  -18.1681   19.8957 C.3     1  UNL1        0.0252
      9 C          -8.2159  -17.4972   21.2445 C.3     1  UNL1        0.0923
     10 N          -7.1926  -17.8903   22.2256 N.pl3   1  UNL1       -0.2932
     11 C          -6.6810  -19.2718   22.2259 C.3     1  UNL1        0.0923
     12 C          -7.6090  -20.2084   21.4456 C.3     1  UNL1        0.0252
     13 C          -9.0972  -20.3840   19.3961 C.3     1  UNL1        0.2055
     14 O         -10.1795  -20.3941   20.3290 O.3     1  UNL1       -0.4724
     15 C         -11.2130  -19.2623   22.1851 C.ar    1  UNL1        0.1724
     16 C         -11.8799  -18.1473   22.7244 C.ar    1  UNL1        0.0403
     17 C         -12.1738  -17.0433   21.9232 C.ar    1  UNL1        0.0098
     18 C         -11.8054  -17.0275   20.5689 C.ar    1  UNL1        0.0787
     19 C         -11.1373  -18.1397   20.0304 C.ar    1  UNL1        0.0465
     20 C         -10.8433  -19.2614   20.8317 C.ar    1  UNL1        0.1724
     21 C         -12.1148  -15.8563   19.7180 C.2     1  UNL1        0.3381
     22 O         -11.1942  -15.0847   19.3344 O.2     1  UNL1       -0.2451
     23 O         -13.4272  -15.5943   19.3331 O.3     1  UNL1       -0.4771
     24 H         -13.6493  -14.7951   18.7514 H       1  UNL1        0.2954
     25 C         -10.2599  -20.3473   24.2293 C.3     1  UNL1        0.2526
     26 O         -10.9032  -20.3915   22.9599 O.3     1  UNL1       -0.4684
     27 N          -5.6550  -14.1705   26.2328 N.am    1  UNL1       -0.2766
     28 C          -6.3957  -13.9317   27.4389 C.2     1  UNL1        0.2839
     29 O          -7.1274  -14.8389   27.9188 O.2     1  UNL1       -0.2665
     30 H          -4.7273  -13.7015   26.1305 H       1  UNL1        0.1553
     31 C          -6.2559  -12.6669   28.1819 C.ar    1  UNL1        0.1946
     32 O          -5.1714  -11.9158   28.1022 O.2     1  UNL1       -0.4492
     33 C          -5.3534  -10.8634   28.8620 C.ar    1  UNL1        0.1452
     34 C          -4.4729   -9.8073   29.0686 C.ar    1  UNL1        0.0375
     35 C          -4.8763   -8.7702   29.9280 C.ar    1  UNL1        0.0031
     36 C          -6.1466   -8.8041   30.5649 C.ar    1  UNL1        0.0002
     37 C          -7.0117   -9.8993   30.3285 C.ar    1  UNL1        0.0028
     38 C          -6.5782  -10.9102   29.4703 C.ar    1  UNL1        0.0337
     39 C          -7.1800  -12.0819   29.0568 C.ar    1  UNL1        0.0202
     40 C          -8.5256  -12.5947   29.4730 C.3     1  UNL1        0.0345
     41 C          -6.5627   -7.7026   31.4697 C.ar    1  UNL1        0.0000
     42 C          -7.4685   -6.7184   31.0300 C.ar    1  UNL1        0.0000
     43 C          -7.8592   -5.6830   31.8847 C.ar    1  UNL1        0.0000
     44 C          -7.3517   -5.6173   33.1841 C.ar    1  UNL1        0.0000
     45 C          -6.4524   -6.5873   33.6321 C.ar    1  UNL1        0.0000
     46 C          -6.0588   -7.6255   32.7822 C.ar    1  UNL1        0.0000
@<TRIPOS>BOND
     1    25    26    1
     2    26    15    1
     3    15    16   ar
     4    16    17   ar
     5    17    18   ar
     6    18    21    1
     7    21    22    2
     8    21    23    1
     9    18    19   ar
    10    19    20   ar
    11    20    14    1
    12    14    13    1
    13    13     7    1
    14     7     8    1
    15     8     9    1
    16     9    10    1
    17    10     1    1
    18     1     2   ar
    19     2     3   ar
    20     3     4   ar
    21     4    27    1
    22    27    28   am
    23    28    29    2
    24    28    31    1
    25    31    32   ar
    26    32    33   ar
    27    33    34   ar
    28    34    35   ar
    29    35    36   ar
    30    36    41    1
    31    41    42   ar
    32    42    43   ar
    33    43    44   ar
    34    44    45   ar
    35    45    46   ar
    36    36    37   ar
    37    37    38   ar
    38    38    39   ar
    39    39    40    1
    40     4     5   ar
    41     5     6   ar
    42    10    11    1
    43    11    12    1
    44    20    15   ar
    45    12     7    1
    46     6     1   ar
    47    39    31   ar
    48    38    33   ar
    49    46    41   ar
    50    23    24    1
    51    27    30    1
@<TRIPOS>MOLECULE
*****
 46 51 0 0 0
SMALL
GASTEIGER

@<TRIPOS>ATOM
      1 C          -8.6317  -10.5449   30.3543 C.ar    1  UNL1        0.1318
      2 C          -9.9413  -10.9454   30.0373 C.ar    1  UNL1        0.0356
      3 C         -10.1549  -12.1761   29.4150 C.ar    1  UNL1        0.0191
      4 C          -9.0744  -13.0149   29.1179 C.ar    1  UNL1        0.0702
      5 C          -7.7789  -12.5710   29.4270 C.ar    1  UNL1        0.1149
      6 N          -7.5943  -11.3671   30.0301 N.ar    1  UNL1       -0.2279
      7 C          -8.0886   -6.6582   32.3289 C.3     1  UNL1        0.0472
      8 C          -8.7212   -6.8433   30.9225 C.3     1  UNL1        0.0252
      9 C          -8.1791   -8.0697   30.1819 C.3     1  UNL1        0.0923
     10 N          -8.3684   -9.2787   30.9984 N.pl3   1  UNL1       -0.2932
     11 C          -8.1797   -9.2052   32.4576 C.3     1  UNL1        0.0923
     12 C          -7.4069   -7.9434   32.8553 C.3     1  UNL1        0.0252
     13 C          -7.0949   -5.4781   32.3347 C.3     1  UNL1        0.2055
     14 O          -5.9611   -5.7498   31.5085 O.3     1  UNL1       -0.4724
     15 C          -4.8595   -7.7929   32.1460 C.ar    1  UNL1        0.1724
     16 C          -4.3719   -9.0738   31.8291 C.ar    1  UNL1        0.0403
     17 C          -4.5106   -9.5839   30.5378 C.ar    1  UNL1        0.0098
     18 C          -5.1415   -8.8284   29.5372 C.ar    1  UNL1        0.0787
     19 C          -5.6308   -7.5502   29.8536 C.ar    1  UNL1        0.0465
     20 C          -5.4880   -7.0253   31.1540 C.ar    1  UNL1        0.1724
     21 C          -5.2912   -9.3689   28.1672 C.2     1  UNL1        0.3381
     22 O          -4.7519   -8.7855   27.1880 O.2     1  UNL1       -0.2451
     23 O          -6.0307  -10.5280   27.9459 O.3     1  UNL1       -0.4771
     24 H          -6.1394  -10.9056   27.0122 H       1  UNL1        0.2954
     25 C          -3.6934   -6.3645   33.8383 C.3     1  UNL1        0.2526
     26 O          -4.7356   -7.2460   33.4332 O.3     1  UNL1       -0.4684
     27 N          -9.3068  -14.2700   28.4558 N.am    1  UNL1       -0.2766
     28 C          -8.2895  -15.0056   27.7597 C.2     1  UNL1        0.2839
     29 O          -7.0787  -14.8628   28.0795 O.2     1  UNL1       -0.2665
     30 H         -10.2383  -14.7260   28.5797 H       1  UNL1        0.1553
     31 C          -8.6371  -15.9954   26.7250 C.ar    1  UNL1        0.1946
     32 O          -9.2321  -17.1400   27.0123 O.2     1  UNL1       -0.4492
     33 C          -9.4154  -17.7917   25.8900 C.ar    1  UNL1        0.1452
     34 C         -10.0139  -19.0355   25.7226 C.ar    1  UNL1        0.0375
     35 C         -10.1119  -19.5506   24.4181 C.ar    1  UNL1        0.0031
     36 C          -9.6127  -18.8190   23.3063 C.ar    1  UNL1        0.0002
     37 C          -9.0087  -17.5570   23.5215 C.ar    1  UNL1        0.0028
     38 C          -8.9285  -17.0775   24.8292 C.ar    1  UNL1        0.0337
     39 C          -8.4023  -15.9108   25.3468 C.ar    1  UNL1        0.0202
     40 C          -7.7275  -14.8135   24.5802 C.3     1  UNL1        0.0345
     41 C          -9.7227  -19.3723   21.9326 C.ar    1  UNL1        0.0000
     42 C          -8.6420  -19.2798   21.0349 C.ar    1  UNL1        0.0000
     43 C          -8.7482  -19.8028   19.7425 C.ar    1  UNL1        0.0000
     44 C          -9.9308  -20.4217   19.3316 C.ar    1  UNL1        0.0000
     45 C         -11.0100  -20.5195   20.2125 C.ar    1  UNL1        0.0000
     46 C         -10.9092  -19.9992   21.5065 C.ar    1  UNL1        0.0000
@<TRIPOS>BOND
     1    25    26    1
     2    26    15    1
     3    15    16   ar
     4    16    17   ar
     5    17    18   ar
     6    18    21    1
     7    21    22    2
     8    21    23    1
     9    18    19   ar
    10    19    20   ar
    11    20    14    1
    12    14    13    1
    13    13     7    1
    14     7     8    1
    15     8     9    1
    16     9    10    1
    17    10     1    1
    18     1     2   ar
    19     2     3   ar
    20     3     4   ar
    21     4    27    1
    22    27    28   am
    23    28    29    2
    24    28    31    1
    25    31    32   ar
    26    32    33   ar
    27    33    34   ar
    28    34    35   ar
    29    35    36   ar
    30    36    41    1
    31    41    42   ar
    32    42    43   ar
    33    43    44   ar
    34    44    45   ar
    35    45    46   ar
    36    36    37   ar
    37    37    38   ar
    38    38    39   ar
    39    39    40    1
    40     4     5   ar
    41     5     6   ar
    42    10    11    1
    43    11    12    1
    44    20    15   ar
    45    12     7    1
    46     6     1   ar
    47    39    31   ar
    48    38    33   ar
    49    46    41   ar
    50    23    24    1
    51    27    30    1
@<TRIPOS>MOLECULE
*****
 46 51 0 0 0
SMALL
GASTEIGER

@<TRIPOS>ATOM
      1 C          -5.8955  -10.6265   29.5768 C.ar    1  UNL1        0.1318
      2 C          -6.8580  -11.6028   29.8873 C.ar    1  UNL1        0.0356
      3 C          -6.9864  -12.7287   29.0728 C.ar    1  UNL1        0.0191
      4 C          -6.1545  -12.8942   27.9593 C.ar    1  UNL1        0.0702
      5 C          -5.2215  -11.8869   27.6664 C.ar    1  UNL1        0.1149
      6 N          -5.1162  -10.7972   28.4718 N.ar    1  UNL1       -0.2279
      7 C          -5.1399   -7.0881   32.0685 C.3     1  UNL1        0.0472
      8 C          -4.9095   -8.5514   32.5356 C.3     1  UNL1        0.0252
      9 C          -5.8531   -9.5492   31.8568 C.3     1  UNL1        0.0923
     10 N          -5.7312   -9.4466   30.3943 N.pl3   1  UNL1       -0.2932
     11 C          -5.5508   -8.1233   29.7726 C.3     1  UNL1        0.0923
     12 C          -5.9292   -6.9979   30.7410 C.3     1  UNL1        0.0252
     13 C          -5.8374   -6.2622   33.1692 C.3     1  UNL1        0.2055
     14 O          -7.1141   -6.8120   33.5005 O.3     1  UNL1       -0.4724
     15 C          -8.7503   -8.3095   32.5654 C.ar    1  UNL1        0.1724
     16 C          -9.8120   -8.5675   31.6794 C.ar    1  UNL1        0.0403
     17 C         -10.2942   -7.5615   30.8413 C.ar    1  UNL1        0.0098
     18 C          -9.7297   -6.2769   30.8722 C.ar    1  UNL1        0.0787
     19 C          -8.6710   -6.0179   31.7585 C.ar    1  UNL1        0.0465
     20 C          -8.1738   -7.0310   32.6030 C.ar    1  UNL1        0.1724
     21 C         -10.2414   -5.2079   29.9851 C.2     1  UNL1        0.3381
     22 O         -11.4633   -4.8969   29.9989 O.2     1  UNL1       -0.2451
     23 O          -9.3773   -4.5349   29.1249 O.3     1  UNL1       -0.4771
     24 H          -9.7178   -3.8023   28.5136 H       1  UNL1        0.2954
     25 C          -8.7864  -10.6029   33.5668 C.3     1  UNL1        0.2526
     26 O          -8.2373   -9.2973   33.4211 O.3     1  UNL1       -0.4684
     27 N          -6.3131  -14.0478   27.1157 N.am    1  UNL1       -0.2766
     28 C          -5.4334  -14.3678   26.0275 C.2     1  UNL1        0.2839
     29 O          -4.2416  -13.9576   26.0394 O.2     1  UNL1       -0.2665
     30 H          -7.0419  -14.7498   27.3749 H       1  UNL1        0.1553
     31 C          -5.8708  -15.2424   24.9252 C.ar    1  UNL1        0.1946
     32 O          -5.0321  -15.7080   24.0161 O.2     1  UNL1       -0.4492
     33 C          -5.7144  -16.4562   23.1840 C.ar    1  UNL1        0.1452
     34 C          -5.2312  -17.1511   22.0808 C.ar    1  UNL1        0.0375
     35 C          -6.1455  -17.9025   21.3218 C.ar    1  UNL1        0.0031
     36 C          -7.5217  -17.9477   21.6744 C.ar    1  UNL1        0.0002
     37 C          -7.9721  -17.2237   22.8044 C.ar    1  UNL1        0.0028
     38 C          -7.0369  -16.4889   23.5337 C.ar    1  UNL1        0.0337
     39 C          -7.1686  -15.6943   24.6550 C.ar    1  UNL1        0.0202
     40 C          -8.4357  -15.3931   25.3972 C.3     1  UNL1        0.0345
     41 C          -8.4783  -18.7456   20.8661 C.ar    1  UNL1        0.0000
     42 C          -9.8495  -18.4262   20.8583 C.ar    1  UNL1        0.0000
     43 C         -10.7477  -19.1787   20.0951 C.ar    1  UNL1        0.0000
     44 C         -10.2895  -20.2561   19.3337 C.ar    1  UNL1        0.0000
     45 C          -8.9318  -20.5832   19.3332 C.ar    1  UNL1        0.0000
     46 C          -8.0290  -19.8336   20.0936 C.ar    1  UNL1        0.0000
@<TRIPOS>BOND
     1    25    26    1
     2    26    15    1
     3    15    16   ar
     4    16    17   ar
     5    17    18   ar
     6    18    21    1
     7    21    22    2
     8    21    23    1
     9    18    19   ar
    10    19    20   ar
    11    20    14    1
    12    14    13    1
    13    13     7    1
    14     7     8    1
    15     8     9    1
    16     9    10    1
    17    10     1    1
    18     1     2   ar
    19     2     3   ar
    20     3     4   ar
    21     4    27    1
    22    27    28   am
    23    28    29    2
    24    28    31    1
    25    31    32   ar
    26    32    33   ar
    27    33    34   ar
    28    34    35   ar
    29    35    36   ar
    30    36    41    1
    31    41    42   ar
    32    42    43   ar
    33    43    44   ar
    34    44    45   ar
    35    45    46   ar
    36    36    37   ar
    37    37    38   ar
    38    38    39   ar
    39    39    40    1
    40     4     5   ar
    41     5     6   ar
    42    10    11    1
    43    11    12    1
    44    20    15   ar
    45    12     7    1
    46     6     1   ar
    47    39    31   ar
    48    38    33   ar
    49    46    41   ar
    50    23    24    1
    51    27    30    1
