@<TRIPOS>MOLECULE
*****
 32 35 0 0 0
SMALL
GASTEIGER

@<TRIPOS>ATOM
      1 C         -26.0875   -8.2242  -12.3202 C.3     1  UNL1        0.2027
      2 F         -27.1567   -8.6622  -13.0840 F       1  UNL1       -0.2334
      3 C         -26.3199   -6.7673  -11.8949 C.3     1  UNL1        0.1259
      4 N         -25.2397   -5.8935  -12.3619 N.pl3   1  UNL1       -0.3157
      5 H         -25.5267   -5.0057  -12.8333 H       1  UNL1        0.1483
      6 C         -21.8202   -7.1965  -12.7625 C.ar    1  UNL1        0.2258
      7 C         -21.1017   -6.5197  -11.7761 C.ar    1  UNL1        0.0559
      8 C         -21.7644   -5.6188  -10.9339 C.ar    1  UNL1        0.0144
      9 C         -23.1363   -5.3922  -11.1113 C.ar    1  UNL1        0.0325
     10 C         -23.8329   -6.0835  -12.1207 C.ar    1  UNL1        0.1314
     11 N         -23.1541   -6.9638  -12.9062 N.ar    1  UNL1       -0.1970
     12 C         -20.9995   -4.8498   -9.8919 C.3     1  UNL1        0.1638
     13 O         -21.6188   -4.9864   -8.6426 O.3     1  UNL1       -0.3772
     14 H         -22.4241   -4.4057   -8.6605 H       1  UNL1        0.2109
     15 C         -21.6818   -8.5197  -14.8502 C.3     1  UNL1        0.2542
     16 O         -21.1576   -8.1034  -13.5948 O.3     1  UNL1       -0.4561
     17 C         -25.8822   -9.1619  -11.1242 C.3     1  UNL1        0.1429
     18 N         -24.4994   -9.6480  -11.0890 N.ar    1  UNL1       -0.3243
     19 C         -23.5187   -9.2747  -10.2279 C.ar    1  UNL1        0.0600
     20 C         -23.6069   -8.3746   -9.1613 C.ar    1  UNL1        0.0177
     21 C         -22.4479   -8.1311   -8.4022 C.ar    1  UNL1        0.0082
     22 C         -21.2317   -8.7777   -8.7175 C.ar    1  UNL1        0.0347
     23 BR        -19.6714   -8.4278   -7.6742 Br      1  UNL1       -0.0490
     24 C         -21.1616   -9.6742   -9.7993 C.ar    1  UNL1        0.0082
     25 C         -22.3251   -9.8987  -10.5326 C.ar    1  UNL1        0.0177
     26 C         -22.5686  -10.6840  -11.6362 C.ar    1  UNL1        0.0177
     27 C         -21.7309  -11.5117  -12.3811 C.ar    1  UNL1        0.0082
     28 C         -22.2837  -12.1752  -13.4911 C.ar    1  UNL1        0.0347
     29 BR        -21.1869  -13.3231  -14.5518 Br      1  UNL1       -0.0490
     30 C         -23.6435  -11.9933  -13.8288 C.ar    1  UNL1        0.0082
     31 C         -24.4664  -11.1496  -13.0608 C.ar    1  UNL1        0.0177
     32 C         -23.9004  -10.5041  -11.9563 C.ar    1  UNL1        0.0600
@<TRIPOS>BOND
     1    15    16    1
     2    16     6    1
     3     6     7   ar
     4     7     8   ar
     5     8    12    1
     6    12    13    1
     7     8     9   ar
     8     9    10   ar
     9    10     4    1
    10     4     3    1
    11     3     1    1
    12     1     2    1
    13     1    17    1
    14    17    18    1
    15    18    19   ar
    16    19    20   ar
    17    20    21   ar
    18    21    22   ar
    19    22    23    1
    20    22    24   ar
    21    24    25   ar
    22    25    26   ar
    23    26    27   ar
    24    27    28   ar
    25    28    29    1
    26    28    30   ar
    27    30    31   ar
    28    31    32   ar
    29    10    11   ar
    30    11     6   ar
    31    32    18   ar
    32    25    19   ar
    33    32    26   ar
    34    13    14    1
    35     4     5    1
@<TRIPOS>MOLECULE
*****
 32 35 0 0 0
SMALL
GASTEIGER

@<TRIPOS>ATOM
      1 C         -26.0873   -8.2262  -12.3240 C.3     1  UNL1        0.2027
      2 F         -27.2043   -8.6551  -13.0219 F       1  UNL1       -0.2334
      3 C         -26.2900   -6.7741  -11.8682 C.3     1  UNL1        0.1259
      4 N         -25.2192   -5.9029  -12.3610 N.pl3   1  UNL1       -0.3157
      5 H         -25.5156   -5.0282  -12.8505 H       1  UNL1        0.1483
      6 C         -21.7833   -7.1562  -12.7805 C.ar    1  UNL1        0.2258
      7 C         -21.0724   -6.4806  -11.7879 C.ar    1  UNL1        0.0559
      8 C         -21.7456   -5.5977  -10.9351 C.ar    1  UNL1        0.0144
      9 C         -23.1207   -5.3873  -11.1081 C.ar    1  UNL1        0.0325
     10 C         -23.8096   -6.0769  -12.1239 C.ar    1  UNL1        0.1314
     11 N         -23.1204   -6.9397  -12.9198 N.ar    1  UNL1       -0.1970
     12 C         -20.9893   -4.8298   -9.8860 C.3     1  UNL1        0.1638
     13 O         -21.6067   -4.9853   -8.6379 O.3     1  UNL1       -0.3772
     14 H         -22.4186   -4.4137   -8.6502 H       1  UNL1        0.2109
     15 C         -21.6500   -8.4880  -14.8630 C.3     1  UNL1        0.2542
     16 O         -21.1102   -8.0453  -13.6234 O.3     1  UNL1       -0.4561
     17 C         -25.8060   -9.1775  -11.1545 C.3     1  UNL1        0.1429
     18 N         -24.3981   -9.5864  -11.1572 N.ar    1  UNL1       -0.3243
     19 C         -23.8005  -10.4699  -11.9968 C.ar    1  UNL1        0.0600
     20 C         -24.3744  -11.1628  -13.0673 C.ar    1  UNL1        0.0177
     21 C         -23.5584  -12.0432  -13.8005 C.ar    1  UNL1        0.0082
     22 C         -22.1995  -12.2207  -13.4562 C.ar    1  UNL1        0.0347
     23 BR        -21.1133  -13.4243  -14.4647 Br      1  UNL1       -0.0490
     24 C         -21.6426  -11.5201  -12.3709 C.ar    1  UNL1        0.0082
     25 C         -22.4729  -10.6528  -11.6636 C.ar    1  UNL1        0.0177
     26 C         -22.2362   -9.8600  -10.5639 C.ar    1  UNL1        0.0177
     27 C         -21.0884   -9.6654   -9.7981 C.ar    1  UNL1        0.0082
     28 C         -21.1741   -8.7918   -8.6994 C.ar    1  UNL1        0.0347
     29 BR        -19.6356   -8.4837   -7.6114 Br      1  UNL1       -0.0490
     30 C         -22.3925   -8.1453   -8.3930 C.ar    1  UNL1        0.0082
     31 C         -23.5371   -8.3619   -9.1815 C.ar    1  UNL1        0.0177
     32 C         -23.4302   -9.2285  -10.2745 C.ar    1  UNL1        0.0600
@<TRIPOS>BOND
     1    15    16    1
     2    16     6    1
     3     6     7   ar
     4     7     8   ar
     5     8    12    1
     6    12    13    1
     7     8     9   ar
     8     9    10   ar
     9    10     4    1
    10     4     3    1
    11     3     1    1
    12     1     2    1
    13     1    17    1
    14    17    18    1
    15    18    19   ar
    16    19    20   ar
    17    20    21   ar
    18    21    22   ar
    19    22    23    1
    20    22    24   ar
    21    24    25   ar
    22    25    26   ar
    23    26    27   ar
    24    27    28   ar
    25    28    29    1
    26    28    30   ar
    27    30    31   ar
    28    31    32   ar
    29    10    11   ar
    30    11     6   ar
    31    32    18   ar
    32    25    19   ar
    33    32    26   ar
    34    13    14    1
    35     4     5    1
@<TRIPOS>MOLECULE
*****
 32 35 0 0 0
SMALL
GASTEIGER

@<TRIPOS>ATOM
      1 C         -23.6103  -14.1251  -15.3589 C.3     1  UNL1        0.2027
      2 F         -23.7519  -15.4134  -15.8476 F       1  UNL1       -0.2334
      3 C         -24.4984  -13.9429  -14.1198 C.3     1  UNL1        0.1259
      4 N         -25.3118  -12.7275  -14.2170 N.pl3   1  UNL1       -0.3157
      5 H         -26.1464  -12.7719  -14.8448 H       1  UNL1        0.1483
      6 C         -24.3903  -10.5604  -11.3874 C.ar    1  UNL1        0.2258
      7 C         -24.7288   -9.2838  -11.8379 C.ar    1  UNL1        0.0559
      8 C         -25.2997   -9.1276  -13.1067 C.ar    1  UNL1        0.0144
      9 C         -25.4997  -10.2550  -13.9153 C.ar    1  UNL1        0.0325
     10 C         -25.1403  -11.5293  -13.4369 C.ar    1  UNL1        0.1314
     11 N         -24.6044  -11.6390  -12.1905 N.ar    1  UNL1       -0.1970
     12 C         -25.6335   -7.7559  -13.6258 C.3     1  UNL1        0.1638
     13 O         -24.4982   -6.9360  -13.5823 O.3     1  UNL1       -0.3772
     14 H         -24.3687   -6.6816  -12.6312 H       1  UNL1        0.2109
     15 C         -23.9583   -9.7314   -9.0951 C.3     1  UNL1        0.2542
     16 O         -23.8304  -10.7142  -10.1158 O.3     1  UNL1       -0.4561
     17 C         -22.1318  -13.8356  -15.0724 C.3     1  UNL1        0.1429
     18 N         -21.9511  -12.4303  -14.6957 N.ar    1  UNL1       -0.3243
     19 C         -21.4855  -11.9492  -13.5149 C.ar    1  UNL1        0.0600
     20 C         -21.0403  -12.6752  -12.4056 C.ar    1  UNL1        0.0177
     21 C         -20.6071  -11.9587  -11.2753 C.ar    1  UNL1        0.0082
     22 C         -20.6287  -10.5458  -11.2666 C.ar    1  UNL1        0.0347
     23 BR        -20.0390   -9.5962   -9.7187 Br      1  UNL1       -0.0490
     24 C         -21.0874   -9.8339  -12.3897 C.ar    1  UNL1        0.0082
     25 C         -21.5082  -10.5686  -13.4965 C.ar    1  UNL1        0.0177
     26 C         -22.0201  -10.1729  -14.7111 C.ar    1  UNL1        0.0177
     27 C         -22.2850   -8.9076  -15.2313 C.ar    1  UNL1        0.0082
     28 C         -22.8427   -8.8327  -16.5201 C.ar    1  UNL1        0.0347
     29 BR        -23.2286   -7.1276  -17.2881 Br      1  UNL1       -0.0490
     30 C         -23.1241  -10.0109  -17.2473 C.ar    1  UNL1        0.0082
     31 C         -22.8491  -11.2760  -16.6970 C.ar    1  UNL1        0.0177
     32 C         -22.2875  -11.3300  -15.4169 C.ar    1  UNL1        0.0600
@<TRIPOS>BOND
     1    15    16    1
     2    16     6    1
     3     6     7   ar
     4     7     8   ar
     5     8    12    1
     6    12    13    1
     7     8     9   ar
     8     9    10   ar
     9    10     4    1
    10     4     3    1
    11     3     1    1
    12     1     2    1
    13     1    17    1
    14    17    18    1
    15    18    19   ar
    16    19    20   ar
    17    20    21   ar
    18    21    22   ar
    19    22    23    1
    20    22    24   ar
    21    24    25   ar
    22    25    26   ar
    23    26    27   ar
    24    27    28   ar
    25    28    29    1
    26    28    30   ar
    27    30    31   ar
    28    31    32   ar
    29    10    11   ar
    30    11     6   ar
    31    32    18   ar
    32    25    19   ar
    33    32    26   ar
    34    13    14    1
    35     4     5    1
@<TRIPOS>MOLECULE
*****
 32 35 0 0 0
SMALL
GASTEIGER

@<TRIPOS>ATOM
      1 C         -23.5681  -14.1606  -15.3344 C.3     1  UNL1        0.2027
      2 F         -23.6427  -15.4585  -15.8124 F       1  UNL1       -0.2334
      3 C         -24.4759  -14.0107  -14.1053 C.3     1  UNL1        0.1259
      4 N         -25.3157  -12.8132  -14.2016 N.pl3   1  UNL1       -0.3157
      5 H         -26.1602  -12.8820  -14.8138 H       1  UNL1        0.1483
      6 C         -24.4069  -10.5973  -11.4060 C.ar    1  UNL1        0.2258
      7 C         -24.7632   -9.3311  -11.8718 C.ar    1  UNL1        0.0559
      8 C         -25.3421   -9.1989  -13.1397 C.ar    1  UNL1        0.0144
      9 C         -25.5323  -10.3394  -13.9322 C.ar    1  UNL1        0.0325
     10 C         -25.1550  -11.6027  -13.4386 C.ar    1  UNL1        0.1314
     11 N         -24.6118  -11.6891  -12.1935 N.ar    1  UNL1       -0.1970
     12 C         -25.6952   -7.8385  -13.6754 C.3     1  UNL1        0.1638
     13 O         -24.5888   -6.9838  -13.5837 O.3     1  UNL1       -0.3772
     14 H         -24.5090   -6.7250  -12.6284 H       1  UNL1        0.2109
     15 C         -23.8149   -9.6632   -9.1912 C.3     1  UNL1        0.2542
     16 O         -23.8389  -10.7272  -10.1353 O.3     1  UNL1       -0.4561
     17 C         -22.1081  -13.7974  -15.0370 C.3     1  UNL1        0.1429
     18 N         -22.0080  -12.3994  -14.6067 N.ar    1  UNL1       -0.3243
     19 C         -22.3202  -11.2930  -15.3286 C.ar    1  UNL1        0.0600
     20 C         -22.8387  -11.2300  -16.6258 C.ar    1  UNL1        0.0177
     21 C         -23.0780   -9.9607  -17.1828 C.ar    1  UNL1        0.0082
     22 C         -22.7954   -8.7872  -16.4481 C.ar    1  UNL1        0.0347
     23 BR        -23.1256   -7.0758  -17.2276 Br      1  UNL1       -0.0490
     24 C         -22.2669   -8.8716  -15.1472 C.ar    1  UNL1        0.0082
     25 C         -22.0421  -10.1414  -14.6192 C.ar    1  UNL1        0.0177
     26 C         -21.5241  -10.5461  -13.4101 C.ar    1  UNL1        0.0177
     27 C         -21.0551   -9.8181  -12.3185 C.ar    1  UNL1        0.0082
     28 C         -20.5548  -10.5366  -11.2179 C.ar    1  UNL1        0.0347
     29 BR        -19.8976   -9.5961   -9.6917 Br      1  UNL1       -0.0490
     30 C         -20.5308  -11.9491  -11.2370 C.ar    1  UNL1        0.0082
     31 C         -21.0083  -12.6593  -12.3535 C.ar    1  UNL1        0.0177
     32 C         -21.5088  -11.9273  -13.4355 C.ar    1  UNL1        0.0600
@<TRIPOS>BOND
     1    15    16    1
     2    16     6    1
     3     6     7   ar
     4     7     8   ar
     5     8    12    1
     6    12    13    1
     7     8     9   ar
     8     9    10   ar
     9    10     4    1
    10     4     3    1
    11     3     1    1
    12     1     2    1
    13     1    17    1
    14    17    18    1
    15    18    19   ar
    16    19    20   ar
    17    20    21   ar
    18    21    22   ar
    19    22    23    1
    20    22    24   ar
    21    24    25   ar
    22    25    26   ar
    23    26    27   ar
    24    27    28   ar
    25    28    29    1
    26    28    30   ar
    27    30    31   ar
    28    31    32   ar
    29    10    11   ar
    30    11     6   ar
    31    32    18   ar
    32    25    19   ar
    33    32    26   ar
    34    13    14    1
    35     4     5    1
@<TRIPOS>MOLECULE
*****
 32 35 0 0 0
SMALL
GASTEIGER

@<TRIPOS>ATOM
      1 C         -21.0871   -8.2474  -11.3240 C.3     1  UNL1        0.2027
      2 F         -20.6140   -9.4907  -11.7099 F       1  UNL1       -0.2334
      3 C         -21.0297   -7.2811  -12.5158 C.3     1  UNL1        0.1259
      4 N         -20.6550   -7.9750  -13.7513 N.pl3   1  UNL1       -0.3157
      5 H         -19.6757   -8.3365  -13.8064 H       1  UNL1        0.1483
      6 C         -23.1446   -7.5430  -16.4284 C.ar    1  UNL1        0.2258
      7 C         -23.2722   -8.8278  -16.9577 C.ar    1  UNL1        0.0559
      8 C         -22.5321   -9.8797  -16.4047 C.ar    1  UNL1        0.0144
      9 C         -21.6548   -9.6205  -15.3426 C.ar    1  UNL1        0.0325
     10 C         -21.5410   -8.3122  -14.8351 C.ar    1  UNL1        0.1314
     11 N         -22.2919   -7.3218  -15.3901 N.ar    1  UNL1       -0.1970
     12 C         -22.6255  -11.2630  -16.9879 C.3     1  UNL1        0.1638
     13 O         -23.8792  -11.4494  -17.5848 O.3     1  UNL1       -0.3772
     14 H         -24.5284  -11.5816  -16.8450 H       1  UNL1        0.2109
     15 C         -24.3957   -6.5251  -18.3064 C.3     1  UNL1        0.2542
     16 O         -23.8931   -6.4969  -16.9758 O.3     1  UNL1       -0.4561
     17 C         -22.4999   -8.3841  -10.7433 C.3     1  UNL1        0.1429
     18 N         -23.4730   -8.6078  -11.8169 N.ar    1  UNL1       -0.3243
     19 C         -24.3102   -7.6941  -12.3708 C.ar    1  UNL1        0.0600
     20 C         -24.4143   -6.3314  -12.0743 C.ar    1  UNL1        0.0177
     21 C         -25.3692   -5.5720  -12.7744 C.ar    1  UNL1        0.0082
     22 C         -26.1994   -6.1769  -13.7447 C.ar    1  UNL1        0.0347
     23 BR        -27.4905   -5.1254  -14.6790 Br      1  UNL1       -0.0490
     24 C         -26.0845   -7.5509  -14.0232 C.ar    1  UNL1        0.0082
     25 C         -25.1288   -8.2786  -13.3170 C.ar    1  UNL1        0.0177
     26 C         -24.7965   -9.6138  -13.3456 C.ar    1  UNL1        0.0177
     27 C         -25.3074  -10.6747  -14.0907 C.ar    1  UNL1        0.0082
     28 C         -24.7631  -11.9525  -13.8699 C.ar    1  UNL1        0.0347
     29 BR        -25.4211  -13.4469  -14.8597 Br      1  UNL1       -0.0490
     30 C         -23.7367  -12.1377  -12.9168 C.ar    1  UNL1        0.0082
     31 C         -23.2410  -11.0493  -12.1762 C.ar    1  UNL1        0.0177
     32 C         -23.7898   -9.7849  -12.4152 C.ar    1  UNL1        0.0600
@<TRIPOS>BOND
     1    15    16    1
     2    16     6    1
     3     6     7   ar
     4     7     8   ar
     5     8    12    1
     6    12    13    1
     7     8     9   ar
     8     9    10   ar
     9    10     4    1
    10     4     3    1
    11     3     1    1
    12     1     2    1
    13     1    17    1
    14    17    18    1
    15    18    19   ar
    16    19    20   ar
    17    20    21   ar
    18    21    22   ar
    19    22    23    1
    20    22    24   ar
    21    24    25   ar
    22    25    26   ar
    23    26    27   ar
    24    27    28   ar
    25    28    29    1
    26    28    30   ar
    27    30    31   ar
    28    31    32   ar
    29    10    11   ar
    30    11     6   ar
    31    32    18   ar
    32    25    19   ar
    33    32    26   ar
    34    13    14    1
    35     4     5    1
@<TRIPOS>MOLECULE
*****
 32 35 0 0 0
SMALL
GASTEIGER

@<TRIPOS>ATOM
      1 C         -21.7008   -6.8258  -11.9031 C.3     1  UNL1        0.2027
      2 F         -21.1156   -5.7927  -11.1898 F       1  UNL1       -0.2334
      3 C         -20.6230   -7.8315  -12.3322 C.3     1  UNL1        0.1259
      4 N         -20.4715   -7.8661  -13.7897 N.pl3   1  UNL1       -0.3157
      5 H         -19.5160   -7.6700  -14.1656 H       1  UNL1        0.1483
      6 C         -23.3614   -7.6180  -16.0566 C.ar    1  UNL1        0.2258
      7 C         -23.4630   -8.9041  -16.5883 C.ar    1  UNL1        0.0559
      8 C         -22.5658   -9.8959  -16.1742 C.ar    1  UNL1        0.0144
      9 C         -21.5629   -9.5744  -15.2492 C.ar    1  UNL1        0.0325
     10 C         -21.4800   -8.2658  -14.7365 C.ar    1  UNL1        0.1314
     11 N         -22.3831   -7.3362  -15.1524 N.ar    1  UNL1       -0.1970
     12 C         -22.6338  -11.2769  -16.7663 C.3     1  UNL1        0.1638
     13 O         -23.8723  -11.4713  -17.3919 O.3     1  UNL1       -0.3772
     14 H         -24.5365  -11.6131  -16.6675 H       1  UNL1        0.2109
     15 C         -24.2782   -6.0985  -17.7825 C.3     1  UNL1        0.2542
     16 O         -24.2655   -6.6327  -16.4641 O.3     1  UNL1       -0.4561
     17 C         -22.8118   -7.4729  -11.0672 C.3     1  UNL1        0.1429
     18 N         -23.8979   -7.9380  -11.9354 N.ar    1  UNL1       -0.3243
     19 C         -24.0856   -9.1937  -12.4157 C.ar    1  UNL1        0.0600
     20 C         -23.3145  -10.3338  -12.1683 C.ar    1  UNL1        0.0177
     21 C         -23.6951  -11.5382  -12.7873 C.ar    1  UNL1        0.0082
     22 C         -24.8228  -11.5858  -13.6375 C.ar    1  UNL1        0.0347
     23 BR        -25.3169  -13.2321  -14.4688 Br      1  UNL1       -0.0490
     24 C         -25.5812  -10.4262  -13.8797 C.ar    1  UNL1        0.0082
     25 C         -25.1833   -9.2475  -13.2518 C.ar    1  UNL1        0.0177
     26 C         -25.6938   -7.9706  -13.3044 C.ar    1  UNL1        0.0177
     27 C         -26.7760   -7.4389  -14.0030 C.ar    1  UNL1        0.0082
     28 C         -27.0322   -6.0629  -13.8657 C.ar    1  UNL1        0.0347
     29 BR        -28.5006   -5.2748  -14.7976 Br      1  UNL1       -0.0490
     30 C         -26.2069   -5.2599  -13.0470 C.ar    1  UNL1        0.0082
     31 C         -25.1190   -5.8222  -12.3548 C.ar    1  UNL1        0.0177
     32 C         -24.8846   -7.1938  -12.4981 C.ar    1  UNL1        0.0600
@<TRIPOS>BOND
     1    15    16    1
     2    16     6    1
     3     6     7   ar
     4     7     8   ar
     5     8    12    1
     6    12    13    1
     7     8     9   ar
     8     9    10   ar
     9    10     4    1
    10     4     3    1
    11     3     1    1
    12     1     2    1
    13     1    17    1
    14    17    18    1
    15    18    19   ar
    16    19    20   ar
    17    20    21   ar
    18    21    22   ar
    19    22    23    1
    20    22    24   ar
    21    24    25   ar
    22    25    26   ar
    23    26    27   ar
    24    27    28   ar
    25    28    29    1
    26    28    30   ar
    27    30    31   ar
    28    31    32   ar
    29    10    11   ar
    30    11     6   ar
    31    32    18   ar
    32    25    19   ar
    33    32    26   ar
    34    13    14    1
    35     4     5    1
@<TRIPOS>MOLECULE
*****
 32 35 0 0 0
SMALL
GASTEIGER

@<TRIPOS>ATOM
      1 C         -19.8514   -9.6902  -10.1009 C.3     1  UNL1        0.2027
      2 F         -18.7959   -9.8507   -9.2186 F       1  UNL1       -0.2334
      3 C         -19.4542   -8.7010  -11.2059 C.3     1  UNL1        0.1259
      4 N         -20.5377   -7.7575  -11.4961 N.pl3   1  UNL1       -0.3157
      5 H         -20.6213   -6.9313  -10.8612 H       1  UNL1        0.1483
      6 C         -23.6071   -7.4246  -13.5011 C.ar    1  UNL1        0.2258
      7 C         -23.1967   -7.8018  -14.7803 C.ar    1  UNL1        0.0559
      8 C         -21.8714   -8.2005  -14.9914 C.ar    1  UNL1        0.0144
      9 C         -20.9701   -8.1908  -13.9178 C.ar    1  UNL1        0.0325
     10 C         -21.4112   -7.7971  -12.6401 C.ar    1  UNL1        0.1314
     11 N         -22.7125   -7.4337  -12.4745 N.ar    1  UNL1       -0.1970
     12 C         -21.4002   -8.5713  -16.3708 C.3     1  UNL1        0.1638
     13 O         -20.3704   -7.7113  -16.7745 O.3     1  UNL1       -0.3772
     14 H         -20.7998   -6.8493  -17.0166 H       1  UNL1        0.2109
     15 C         -25.3022   -6.0282  -12.3586 C.3     1  UNL1        0.2542
     16 O         -24.9338   -7.0373  -13.2914 O.3     1  UNL1       -0.4561
     17 C         -20.2789  -11.0542  -10.6565 C.3     1  UNL1        0.1429
     18 N         -21.6186  -10.9675  -11.2459 N.ar    1  UNL1       -0.3243
     19 C         -21.9993  -11.3725  -12.4843 C.ar    1  UNL1        0.0600
     20 C         -21.2186  -11.9933  -13.4645 C.ar    1  UNL1        0.0177
     21 C         -21.8284  -12.3181  -14.6898 C.ar    1  UNL1        0.0082
     22 C         -23.1903  -12.0181  -14.9181 C.ar    1  UNL1        0.0347
     23 BR        -23.9941  -12.4658  -16.5910 Br      1  UNL1       -0.0490
     24 C         -23.9568  -11.3864  -13.9220 C.ar    1  UNL1        0.0082
     25 C         -23.3283  -11.0782  -12.7171 C.ar    1  UNL1        0.0177
     26 C         -23.7919  -10.4534  -11.5820 C.ar    1  UNL1        0.0177
     27 C         -25.0419   -9.9247  -11.2664 C.ar    1  UNL1        0.0082
     28 C         -25.1971   -9.3156  -10.0083 C.ar    1  UNL1        0.0347
     29 BR        -26.8858   -8.5722   -9.5171 Br      1  UNL1       -0.0490
     30 C         -24.1100   -9.2457   -9.1086 C.ar    1  UNL1        0.0082
     31 C         -22.8577   -9.7855   -9.4538 C.ar    1  UNL1        0.0177
     32 C         -22.7249  -10.3939  -10.7065 C.ar    1  UNL1        0.0600
@<TRIPOS>BOND
     1    15    16    1
     2    16     6    1
     3     6     7   ar
     4     7     8   ar
     5     8    12    1
     6    12    13    1
     7     8     9   ar
     8     9    10   ar
     9    10     4    1
    10     4     3    1
    11     3     1    1
    12     1     2    1
    13     1    17    1
    14    17    18    1
    15    18    19   ar
    16    19    20   ar
    17    20    21   ar
    18    21    22   ar
    19    22    23    1
    20    22    24   ar
    21    24    25   ar
    22    25    26   ar
    23    26    27   ar
    24    27    28   ar
    25    28    29    1
    26    28    30   ar
    27    30    31   ar
    28    31    32   ar
    29    10    11   ar
    30    11     6   ar
    31    32    18   ar
    32    25    19   ar
    33    32    26   ar
    34    13    14    1
    35     4     5    1
@<TRIPOS>MOLECULE
*****
 32 35 0 0 0
SMALL
GASTEIGER

@<TRIPOS>ATOM
      1 C         -23.6788  -14.0335  -15.3294 C.3     1  UNL1        0.2027
      2 F         -23.8420  -15.3235  -15.8065 F       1  UNL1       -0.2334
      3 C         -24.5445  -13.8332  -14.0772 C.3     1  UNL1        0.1259
      4 N         -25.3491  -12.6117  -14.1712 N.pl3   1  UNL1       -0.3157
      5 H         -26.1962  -12.6552  -14.7822 H       1  UNL1        0.1483
      6 C         -25.2885   -9.0239  -13.3490 C.ar    1  UNL1        0.2258
      7 C         -24.8413   -9.0056  -12.0274 C.ar    1  UNL1        0.0559
      8 C         -24.5272  -10.2104  -11.3873 C.ar    1  UNL1        0.0144
      9 C         -24.6909  -11.4197  -12.0771 C.ar    1  UNL1        0.0325
     10 C         -25.1521  -11.4072  -13.4072 C.ar    1  UNL1        0.1314
     11 N         -25.4292  -10.2126  -13.9981 N.ar    1  UNL1       -0.1970
     12 C         -24.0828  -10.2139   -9.9504 C.3     1  UNL1        0.1638
     13 O         -23.6863   -8.9260   -9.5667 O.3     1  UNL1       -0.3772
     14 H         -22.7936   -8.7714   -9.9732 H       1  UNL1        0.2109
     15 C         -26.5150   -6.8763  -13.4573 C.3     1  UNL1        0.2542
     16 O         -25.5910   -7.8184  -13.9889 O.3     1  UNL1       -0.4561
     17 C         -22.1929  -13.7577  -15.0692 C.3     1  UNL1        0.1429
     18 N         -21.9932  -12.3553  -14.6908 N.ar    1  UNL1       -0.3243
     19 C         -21.5160  -11.8823  -13.5113 C.ar    1  UNL1        0.0600
     20 C         -21.0742  -12.6157  -12.4057 C.ar    1  UNL1        0.0177
     21 C         -20.6268  -11.9067  -11.2761 C.ar    1  UNL1        0.0082
     22 C         -20.6311  -10.4937  -11.2647 C.ar    1  UNL1        0.0347
     23 BR        -20.0222   -9.5543   -9.7180 Br      1  UNL1       -0.0490
     24 C         -21.0866   -9.7741  -12.3843 C.ar    1  UNL1        0.0082
     25 C         -21.5217  -10.5015  -13.4903 C.ar    1  UNL1        0.0177
     26 C         -22.0348  -10.0973  -14.7016 C.ar    1  UNL1        0.0177
     27 C         -22.2867   -8.8278  -15.2182 C.ar    1  UNL1        0.0082
     28 C         -22.8499   -8.7436  -16.5041 C.ar    1  UNL1        0.0347
     29 BR        -23.2187   -7.0325  -17.2669 Br      1  UNL1       -0.0490
     30 C         -23.1491   -9.9170  -17.2321 C.ar    1  UNL1        0.0082
     31 C         -22.8869  -11.1863  -16.6855 C.ar    1  UNL1        0.0177
     32 C         -22.3197  -11.2496  -15.4083 C.ar    1  UNL1        0.0600
@<TRIPOS>BOND
     1    15    16    1
     2    16     6    1
     3     6     7   ar
     4     7     8   ar
     5     8    12    1
     6    12    13    1
     7     8     9   ar
     8     9    10   ar
     9    10     4    1
    10     4     3    1
    11     3     1    1
    12     1     2    1
    13     1    17    1
    14    17    18    1
    15    18    19   ar
    16    19    20   ar
    17    20    21   ar
    18    21    22   ar
    19    22    23    1
    20    22    24   ar
    21    24    25   ar
    22    25    26   ar
    23    26    27   ar
    24    27    28   ar
    25    28    29    1
    26    28    30   ar
    27    30    31   ar
    28    31    32   ar
    29    10    11   ar
    30    11     6   ar
    31    32    18   ar
    32    25    19   ar
    33    32    26   ar
    34    13    14    1
    35     4     5    1
@<TRIPOS>MOLECULE
*****
 32 35 0 0 0
SMALL
GASTEIGER

@<TRIPOS>ATOM
      1 C         -26.8519   -7.8284  -10.7839 C.3     1  UNL1        0.2027
      2 F         -28.2179   -7.6951  -10.5976 F       1  UNL1       -0.2334
      3 C         -26.3537   -9.0892  -10.0631 C.3     1  UNL1        0.1259
      4 N         -25.2677   -8.7791   -9.1288 N.pl3   1  UNL1       -0.3157
      5 H         -25.5487   -8.4469   -8.1783 H       1  UNL1        0.1483
      6 C         -22.1928  -10.3996  -10.3415 C.ar    1  UNL1        0.2258
      7 C         -21.1827   -9.5499   -9.8889 C.ar    1  UNL1        0.0559
      8 C         -21.5181   -8.4152   -9.1405 C.ar    1  UNL1        0.0144
      9 C         -22.8667   -8.1369   -8.8785 C.ar    1  UNL1        0.0325
     10 C         -23.8643   -9.0083   -9.3556 C.ar    1  UNL1        0.1314
     11 N         -23.4940  -10.1099  -10.0642 N.ar    1  UNL1       -0.1970
     12 C         -20.4467   -7.4658   -8.6789 C.3     1  UNL1        0.1638
     13 O         -21.0015   -6.2068   -8.4140 O.3     1  UNL1       -0.3772
     14 H         -21.1738   -5.7821   -9.2949 H       1  UNL1        0.2109
     15 C         -20.5065  -11.9279  -11.3158 C.3     1  UNL1        0.2542
     16 O         -21.8540  -11.5376  -11.0793 O.3     1  UNL1       -0.4561
     17 C         -26.5285   -7.8396  -12.2829 C.3     1  UNL1        0.1429
     18 N         -25.0805   -7.9360  -12.4914 N.ar    1  UNL1       -0.3243
     19 C         -24.1390   -7.0173  -12.1565 C.ar    1  UNL1        0.0600
     20 C         -24.3246   -5.7919  -11.5087 C.ar    1  UNL1        0.0177
     21 C         -23.1936   -4.9901  -11.2710 C.ar    1  UNL1        0.0082
     22 C         -21.9103   -5.4152  -11.6823 C.ar    1  UNL1        0.0347
     23 BR        -20.3911   -4.3072  -11.3513 Br      1  UNL1       -0.0490
     24 C         -21.7454   -6.6480  -12.3394 C.ar    1  UNL1        0.0082
     25 C         -22.8822   -7.4232  -12.5597 C.ar    1  UNL1        0.0177
     26 C         -23.0485   -8.6392  -13.1822 C.ar    1  UNL1        0.0177
     27 C         -22.1340   -9.4932  -13.7956 C.ar    1  UNL1        0.0082
     28 C         -22.6281  -10.6756  -14.3747 C.ar    1  UNL1        0.0347
     29 BR        -21.4250  -11.8865  -15.2302 Br      1  UNL1       -0.0490
     30 C         -24.0093  -10.9700  -14.3318 C.ar    1  UNL1        0.0082
     31 C         -24.9112  -10.0889  -13.7082 C.ar    1  UNL1        0.0177
     32 C         -24.3999   -8.9215  -13.1314 C.ar    1  UNL1        0.0600
@<TRIPOS>BOND
     1    15    16    1
     2    16     6    1
     3     6     7   ar
     4     7     8   ar
     5     8    12    1
     6    12    13    1
     7     8     9   ar
     8     9    10   ar
     9    10     4    1
    10     4     3    1
    11     3     1    1
    12     1     2    1
    13     1    17    1
    14    17    18    1
    15    18    19   ar
    16    19    20   ar
    17    20    21   ar
    18    21    22   ar
    19    22    23    1
    20    22    24   ar
    21    24    25   ar
    22    25    26   ar
    23    26    27   ar
    24    27    28   ar
    25    28    29    1
    26    28    30   ar
    27    30    31   ar
    28    31    32   ar
    29    10    11   ar
    30    11     6   ar
    31    32    18   ar
    32    25    19   ar
    33    32    26   ar
    34    13    14    1
    35     4     5    1
