@<TRIPOS>MOLECULE
*****
 45 50 0 0 0
SMALL
GASTEIGER

@<TRIPOS>ATOM
      1 C          59.7298   88.9342    7.7266 C.ar    1  UNL1        0.0702
      2 C          60.1872   88.9791    9.0493 C.ar    1  UNL1        0.0191
      3 C          59.8997   87.9348    9.9292 C.ar    1  UNL1        0.0356
      4 C          59.1552   86.8354    9.4774 C.ar    1  UNL1        0.1318
      5 N          58.7496   86.7947    8.1776 N.ar    1  UNL1       -0.2279
      6 C          59.0152   87.8013    7.3036 C.ar    1  UNL1        0.1149
      7 N          58.8545   85.7360   10.3570 N.pl3   1  UNL1       -0.2932
      8 C          59.6052   85.5609   11.6085 C.3     1  UNL1        0.0923
      9 C          59.7976   84.0714   11.9070 C.3     1  UNL1        0.0252
     10 C          58.4462   83.3311   11.8781 C.3     1  UNL1        0.0472
     11 C          57.7543   83.5408   10.5185 C.3     1  UNL1        0.0252
     12 C          57.5719   85.0331   10.2252 C.3     1  UNL1        0.0923
     13 C          58.6173   81.8391   12.2292 C.3     1  UNL1        0.2054
     14 O          59.8235   81.2923   11.6874 O.3     1  UNL1       -0.4755
     15 C          61.0986   81.3152   12.2785 C.ar    1  UNL1        0.1388
     16 C          61.2826   80.5768   13.4522 C.ar    1  UNL1        0.0369
     17 C          62.5186   80.5668   14.0989 C.ar    1  UNL1        0.0033
     18 C          63.5906   81.2893   13.5736 C.ar    1  UNL1        0.0066
     19 C          63.4401   82.0239   12.3849 C.ar    1  UNL1        0.0785
     20 C          62.1864   82.0370   11.7441 C.ar    1  UNL1        0.0433
     21 C          64.5883   82.7892   11.8400 C.2     1  UNL1        0.3381
     22 O          64.9492   82.6087   10.6465 O.2     1  UNL1       -0.2451
     23 O          65.2797   83.7243   12.6095 O.3     1  UNL1       -0.4771
     24 H          64.9790   83.9978   13.5359 H       1  UNL1        0.2954
     25 C          59.1569   90.4983    5.8164 C.2     1  UNL1        0.2839
     26 O          57.9117   90.3721    5.9652 O.2     1  UNL1       -0.2665
     27 N          60.0532   90.0057    6.8235 N.am    1  UNL1       -0.2766
     28 H          60.9449   90.5269    6.9785 H       1  UNL1        0.1553
     29 C          62.2178   90.7239    4.7954 C.3     1  UNL1        0.0345
     30 C          60.9850   91.3344    4.1999 C.ar    1  UNL1        0.0202
     31 C          59.6595   91.2288    4.6396 C.ar    1  UNL1        0.1946
     32 O          58.8590   91.8898    3.8220 O.2     1  UNL1       -0.4492
     33 C          59.5985   92.4362    2.8880 C.ar    1  UNL1        0.1457
     34 C          59.1719   93.2292    1.8284 C.ar    1  UNL1        0.0442
     35 C          60.1397   93.7236    0.9332 C.ar    1  UNL1        0.0376
     36 BR         59.5428   94.8853   -0.4723 Br      1  UNL1       -0.0489
     37 C          61.5178   93.4042    1.1180 C.ar    1  UNL1        0.0064
     38 C          61.9087   92.6021    2.2141 C.ar    1  UNL1        0.0033
     39 C          60.9187   92.1336    3.0761 C.ar    1  UNL1        0.0337
     40 C          62.5576   93.8943    0.1883 C.ar    1  UNL1        0.0005
     41 C          62.3608   93.8282   -1.2015 C.ar    1  UNL1        0.0000
     42 C          63.3565   94.2746   -2.0760 C.ar    1  UNL1        0.0000
     43 C          64.5574   94.7804   -1.5708 C.ar    1  UNL1        0.0000
     44 C          64.7662   94.8366   -0.1901 C.ar    1  UNL1        0.0000
     45 C          63.7731   94.3913    0.6879 C.ar    1  UNL1        0.0000
@<TRIPOS>BOND
     1    29    30    1
     2    30    31   ar
     3    31    25    1
     4    25    26    2
     5    25    27   am
     6    27     1    1
     7     1     2   ar
     8     2     3   ar
     9     3     4   ar
    10     4     7    1
    11     7     8    1
    12     8     9    1
    13     9    10    1
    14    10    13    1
    15    13    14    1
    16    14    15    1
    17    15    16   ar
    18    16    17   ar
    19    17    18   ar
    20    18    19   ar
    21    19    21    1
    22    21    22    2
    23    21    23    1
    24    19    20   ar
    25    10    11    1
    26    11    12    1
    27     4     5   ar
    28     5     6   ar
    29    31    32   ar
    30    32    33   ar
    31    33    34   ar
    32    34    35   ar
    33    35    36    1
    34    35    37   ar
    35    37    40    1
    36    40    41   ar
    37    41    42   ar
    38    42    43   ar
    39    43    44   ar
    40    44    45   ar
    41    37    38   ar
    42    38    39   ar
    43    39    30   ar
    44     6     1   ar
    45    39    33   ar
    46    12     7    1
    47    45    40   ar
    48    20    15   ar
    49    27    28    1
    50    23    24    1
@<TRIPOS>MOLECULE
*****
 45 50 0 0 0
SMALL
GASTEIGER

@<TRIPOS>ATOM
      1 C          60.5413   89.8078    9.4261 C.ar    1  UNL1        0.0702
      2 C          60.3103   88.4275    9.4744 C.ar    1  UNL1        0.0191
      3 C          60.5846   87.7083   10.6383 C.ar    1  UNL1        0.0356
      4 C          61.0867   88.3790   11.7632 C.ar    1  UNL1        0.1318
      5 N          61.2713   89.7274   11.7071 N.ar    1  UNL1       -0.2279
      6 C          61.0140   90.4480   10.5836 C.ar    1  UNL1        0.1149
      7 N          61.3661   87.6673   12.9831 N.pl3   1  UNL1       -0.2932
      8 C          62.7486   87.5354   13.4646 C.3     1  UNL1        0.0923
      9 C          62.9487   86.1728   14.1340 C.3     1  UNL1        0.0252
     10 C          61.8816   85.9379   15.2208 C.3     1  UNL1        0.0472
     11 C          60.4709   86.0580   14.6153 C.3     1  UNL1        0.0252
     12 C          60.2818   87.4210   13.9423 C.3     1  UNL1        0.0923
     13 C          62.1021   84.5919   15.9407 C.3     1  UNL1        0.2054
     14 O          62.9580   83.7174   15.1990 O.3     1  UNL1       -0.4755
     15 C          62.5609   82.6577   14.3651 C.ar    1  UNL1        0.1388
     16 C          63.5663   81.9158   13.7363 C.ar    1  UNL1        0.0369
     17 C          63.2425   80.8597   12.8842 C.ar    1  UNL1        0.0033
     18 C          61.9067   80.5262   12.6573 C.ar    1  UNL1        0.0066
     19 C          60.8764   81.2417   13.2914 C.ar    1  UNL1        0.0785
     20 C          61.2115   82.3126   14.1417 C.ar    1  UNL1        0.0433
     21 C          59.4608   80.8770   13.0383 C.2     1  UNL1        0.3381
     22 O          59.0267   79.7571   13.4187 O.2     1  UNL1       -0.2451
     23 O          58.5801   81.7494   12.3997 O.3     1  UNL1       -0.4771
     24 H          58.8293   82.7015   12.1652 H       1  UNL1        0.2954
     25 C          59.8674   89.9223    6.9857 C.2     1  UNL1        0.2839
     26 O          59.3381   88.7784    6.9831 O.2     1  UNL1       -0.2665
     27 N          60.2321   90.5411    8.2284 N.am    1  UNL1       -0.2766
     28 H          60.1626   91.5812    8.2930 H       1  UNL1        0.1553
     29 C          57.5377   91.2242    5.1580 C.3     1  UNL1        0.0345
     30 C          59.0153   91.1916    4.9079 C.ar    1  UNL1        0.0202
     31 C          60.0230   90.6339    5.7048 C.ar    1  UNL1        0.1946
     32 O          61.2041   90.8414    5.1495 O.2     1  UNL1       -0.4492
     33 C          61.0128   91.4850    4.0239 C.ar    1  UNL1        0.1457
     34 C          61.9781   91.8973    3.1118 C.ar    1  UNL1        0.0442
     35 C          61.5545   92.5762    1.9533 C.ar    1  UNL1        0.0376
     36 BR         62.8916   93.0616    0.6657 Br      1  UNL1       -0.0489
     37 C          60.1677   92.8333    1.7388 C.ar    1  UNL1        0.0064
     38 C          59.2193   92.3884    2.6876 C.ar    1  UNL1        0.0033
     39 C          59.6813   91.7203    3.8202 C.ar    1  UNL1        0.0337
     40 C          59.6905   93.5565    0.5409 C.ar    1  UNL1        0.0005
     41 C          58.3211   93.5927    0.2274 C.ar    1  UNL1        0.0000
     42 C          57.8781   94.2611   -0.9181 C.ar    1  UNL1        0.0000
     43 C          58.7978   94.8891   -1.7626 C.ar    1  UNL1        0.0000
     44 C          60.1626   94.8458   -1.4651 C.ar    1  UNL1        0.0000
     45 C          60.6098   94.1784   -0.3206 C.ar    1  UNL1        0.0000
@<TRIPOS>BOND
     1    29    30    1
     2    30    31   ar
     3    31    25    1
     4    25    26    2
     5    25    27   am
     6    27     1    1
     7     1     2   ar
     8     2     3   ar
     9     3     4   ar
    10     4     7    1
    11     7     8    1
    12     8     9    1
    13     9    10    1
    14    10    13    1
    15    13    14    1
    16    14    15    1
    17    15    16   ar
    18    16    17   ar
    19    17    18   ar
    20    18    19   ar
    21    19    21    1
    22    21    22    2
    23    21    23    1
    24    19    20   ar
    25    10    11    1
    26    11    12    1
    27     4     5   ar
    28     5     6   ar
    29    31    32   ar
    30    32    33   ar
    31    33    34   ar
    32    34    35   ar
    33    35    36    1
    34    35    37   ar
    35    37    40    1
    36    40    41   ar
    37    41    42   ar
    38    42    43   ar
    39    43    44   ar
    40    44    45   ar
    41    37    38   ar
    42    38    39   ar
    43    39    30   ar
    44     6     1   ar
    45    39    33   ar
    46    12     7    1
    47    45    40   ar
    48    20    15   ar
    49    27    28    1
    50    23    24    1
@<TRIPOS>MOLECULE
*****
 45 50 0 0 0
SMALL
GASTEIGER

@<TRIPOS>ATOM
      1 C          58.8404   90.2929    6.0520 C.ar    1  UNL1        0.0702
      2 C          60.1373   90.6189    5.6363 C.ar    1  UNL1        0.0191
      3 C          60.3344   91.4584    4.5391 C.ar    1  UNL1        0.0356
      4 C          59.2240   91.9799    3.8593 C.ar    1  UNL1        0.1318
      5 N          57.9711   91.6787    4.3011 N.ar    1  UNL1       -0.2279
      6 C          57.7548   90.8611    5.3652 C.ar    1  UNL1        0.1149
      7 N          59.3946   92.8600    2.7328 N.pl3   1  UNL1       -0.2932
      8 C          58.7046   92.5836    1.4647 C.3     1  UNL1        0.0923
      9 C          59.5870   92.9913    0.2816 C.3     1  UNL1        0.0252
     10 C          60.0604   94.4501    0.4323 C.3     1  UNL1        0.0472
     11 C          60.8033   94.6324    1.7688 C.3     1  UNL1        0.0252
     12 C          59.9159   94.2162    2.9459 C.3     1  UNL1        0.0923
     13 C          60.9072   94.8922   -0.7785 C.3     1  UNL1        0.2054
     14 O          61.9675   93.9735   -1.0595 O.3     1  UNL1       -0.4755
     15 C          63.0177   93.6103   -0.1987 C.ar    1  UNL1        0.1388
     16 C          64.2941   94.1034   -0.4890 C.ar    1  UNL1        0.0369
     17 C          65.3842   93.7708    0.3155 C.ar    1  UNL1        0.0033
     18 C          65.2091   92.9467    1.4278 C.ar    1  UNL1        0.0066
     19 C          63.9344   92.4531    1.7549 C.ar    1  UNL1        0.0785
     20 C          62.8414   92.7852    0.9318 C.ar    1  UNL1        0.0433
     21 C          63.7644   91.5759    2.9392 C.2     1  UNL1        0.3381
     22 O          62.8422   91.8124    3.7644 O.2     1  UNL1       -0.2451
     23 O          64.5915   90.4759    3.1637 O.3     1  UNL1       -0.4771
     24 H          65.2795   90.1643    2.4907 H       1  UNL1        0.2954
     25 C          59.7189   88.7611    7.8700 C.2     1  UNL1        0.2839
     26 O          60.8926   89.2172    7.8146 O.2     1  UNL1       -0.2665
     27 N          58.6510   89.4458    7.1985 N.am    1  UNL1       -0.2766
     28 H          57.7020   89.4123    7.6335 H       1  UNL1        0.1553
     29 C          60.2708   85.6671    7.1049 C.3     1  UNL1        0.0345
     30 C          59.6903   86.2301    8.3671 C.ar    1  UNL1        0.0202
     31 C          59.4595   87.5709    8.6991 C.ar    1  UNL1        0.1946
     32 O          58.9629   87.6542    9.9209 O.2     1  UNL1       -0.4492
     33 C          58.8394   86.4365   10.3897 C.ar    1  UNL1        0.1457
     34 C          58.3471   86.0558   11.6331 C.ar    1  UNL1        0.0442
     35 C          58.2950   84.6822   11.9380 C.ar    1  UNL1        0.0376
     36 BR         57.5338   84.1716   13.6236 Br      1  UNL1       -0.0489
     37 C          58.7464   83.7186   10.9877 C.ar    1  UNL1        0.0064
     38 C          59.2310   84.1491    9.7318 C.ar    1  UNL1        0.0033
     39 C          59.2653   85.5178    9.4708 C.ar    1  UNL1        0.0337
     40 C          58.7195   82.2699   11.2815 C.ar    1  UNL1        0.0005
     41 C          58.0338   81.3825   10.4346 C.ar    1  UNL1        0.0000
     42 C          57.9948   80.0161   10.7290 C.ar    1  UNL1        0.0000
     43 C          58.6307   79.5276   11.8737 C.ar    1  UNL1        0.0000
     44 C          59.3030   80.4056   12.7282 C.ar    1  UNL1        0.0000
     45 C          59.3444   81.7728   12.4375 C.ar    1  UNL1        0.0000
@<TRIPOS>BOND
     1    29    30    1
     2    30    31   ar
     3    31    25    1
     4    25    26    2
     5    25    27   am
     6    27     1    1
     7     1     2   ar
     8     2     3   ar
     9     3     4   ar
    10     4     7    1
    11     7     8    1
    12     8     9    1
    13     9    10    1
    14    10    13    1
    15    13    14    1
    16    14    15    1
    17    15    16   ar
    18    16    17   ar
    19    17    18   ar
    20    18    19   ar
    21    19    21    1
    22    21    22    2
    23    21    23    1
    24    19    20   ar
    25    10    11    1
    26    11    12    1
    27     4     5   ar
    28     5     6   ar
    29    31    32   ar
    30    32    33   ar
    31    33    34   ar
    32    34    35   ar
    33    35    36    1
    34    35    37   ar
    35    37    40    1
    36    40    41   ar
    37    41    42   ar
    38    42    43   ar
    39    43    44   ar
    40    44    45   ar
    41    37    38   ar
    42    38    39   ar
    43    39    30   ar
    44     6     1   ar
    45    39    33   ar
    46    12     7    1
    47    45    40   ar
    48    20    15   ar
    49    27    28    1
    50    23    24    1
@<TRIPOS>MOLECULE
*****
 45 50 0 0 0
SMALL
GASTEIGER

@<TRIPOS>ATOM
      1 C          59.8510   89.1756    7.9287 C.ar    1  UNL1        0.0702
      2 C          60.1662   89.3839    9.2772 C.ar    1  UNL1        0.0191
      3 C          59.9876   88.3596   10.2079 C.ar    1  UNL1        0.0356
      4 C          59.4969   87.1165    9.7823 C.ar    1  UNL1        0.1318
      5 N          59.2296   86.9233    8.4607 N.ar    1  UNL1       -0.2279
      6 C          59.3929   87.9069    7.5368 C.ar    1  UNL1        0.1149
      7 N          59.3153   86.0358   10.7160 N.pl3   1  UNL1       -0.2932
      8 C          60.4577   85.5181   11.4824 C.3     1  UNL1        0.0923
      9 C          60.3226   84.0055   11.6783 C.3     1  UNL1        0.0252
     10 C          58.9502   83.6553   12.2858 C.3     1  UNL1        0.0472
     11 C          57.8196   84.2039   11.3959 C.3     1  UNL1        0.0252
     12 C          57.9662   85.7160   11.2000 C.3     1  UNL1        0.0923
     13 C          58.8197   82.1395   12.5382 C.3     1  UNL1        0.2054
     14 O          59.3030   81.3655   11.4360 O.3     1  UNL1       -0.4755
     15 C          59.1348   81.6490   10.0695 C.ar    1  UNL1        0.1388
     16 C          58.1164   80.9745    9.3879 C.ar    1  UNL1        0.0369
     17 C          57.9035   81.1975    8.0274 C.ar    1  UNL1        0.0033
     18 C          58.7022   82.1065    7.3325 C.ar    1  UNL1        0.0066
     19 C          59.7197   82.8132    7.9963 C.ar    1  UNL1        0.0785
     20 C          59.9347   82.5746    9.3671 C.ar    1  UNL1        0.0433
     21 C          60.5624   83.7745    7.2434 C.2     1  UNL1        0.3381
     22 O          60.5209   83.7887    5.9843 O.2     1  UNL1       -0.2451
     23 O          61.3969   84.6845    7.8915 O.3     1  UNL1       -0.4771
     24 H          61.3998   84.8024    8.8963 H       1  UNL1        0.2954
     25 C          59.1908   90.4896    5.8646 C.2     1  UNL1        0.2839
     26 O          57.9794   90.1460    5.9210 O.2     1  UNL1       -0.2665
     27 N          60.0620   90.2317    6.9758 N.am    1  UNL1       -0.2766
     28 H          60.8285   90.9162    7.1623 H       1  UNL1        0.1553
     29 C          62.2296   90.7497    4.7873 C.3     1  UNL1        0.0345
     30 C          60.9795   91.3481    4.2161 C.ar    1  UNL1        0.0202
     31 C          59.6636   91.2276    4.6801 C.ar    1  UNL1        0.1946
     32 O          58.8410   91.8815    3.8788 O.2     1  UNL1       -0.4492
     33 C          59.5572   92.4375    2.9324 C.ar    1  UNL1        0.1457
     34 C          59.1025   93.2278    1.8826 C.ar    1  UNL1        0.0442
     35 C          60.0482   93.7342    0.9705 C.ar    1  UNL1        0.0376
     36 BR         59.4129   94.8920   -0.4213 Br      1  UNL1       -0.0489
     37 C          61.4328   93.4291    1.1290 C.ar    1  UNL1        0.0064
     38 C          61.8525   92.6292    2.2160 C.ar    1  UNL1        0.0033
     39 C          60.8838   92.1486    3.0953 C.ar    1  UNL1        0.0337
     40 C          62.4499   93.9320    0.1811 C.ar    1  UNL1        0.0005
     41 C          62.1402   94.0901   -1.1804 C.ar    1  UNL1        0.0000
     42 C          63.1125   94.5469   -2.0756 C.ar    1  UNL1        0.0000
     43 C          64.4013   94.8394   -1.6209 C.ar    1  UNL1        0.0000
     44 C          64.7210   94.6715   -0.2709 C.ar    1  UNL1        0.0000
     45 C          63.7516   94.2150    0.6276 C.ar    1  UNL1        0.0000
@<TRIPOS>BOND
     1    29    30    1
     2    30    31   ar
     3    31    25    1
     4    25    26    2
     5    25    27   am
     6    27     1    1
     7     1     2   ar
     8     2     3   ar
     9     3     4   ar
    10     4     7    1
    11     7     8    1
    12     8     9    1
    13     9    10    1
    14    10    13    1
    15    13    14    1
    16    14    15    1
    17    15    16   ar
    18    16    17   ar
    19    17    18   ar
    20    18    19   ar
    21    19    21    1
    22    21    22    2
    23    21    23    1
    24    19    20   ar
    25    10    11    1
    26    11    12    1
    27     4     5   ar
    28     5     6   ar
    29    31    32   ar
    30    32    33   ar
    31    33    34   ar
    32    34    35   ar
    33    35    36    1
    34    35    37   ar
    35    37    40    1
    36    40    41   ar
    37    41    42   ar
    38    42    43   ar
    39    43    44   ar
    40    44    45   ar
    41    37    38   ar
    42    38    39   ar
    43    39    30   ar
    44     6     1   ar
    45    39    33   ar
    46    12     7    1
    47    45    40   ar
    48    20    15   ar
    49    27    28    1
    50    23    24    1
@<TRIPOS>MOLECULE
*****
 45 50 0 0 0
SMALL
GASTEIGER

@<TRIPOS>ATOM
      1 C          59.0589   90.1590    6.0287 C.ar    1  UNL1        0.0702
      2 C          60.3273   90.4815    5.5306 C.ar    1  UNL1        0.0191
      3 C          60.4569   91.3399    4.4380 C.ar    1  UNL1        0.0356
      4 C          59.3076   91.8839    3.8460 C.ar    1  UNL1        0.1318
      5 N          58.0851   91.5853    4.3676 N.ar    1  UNL1       -0.2279
      6 C          57.9344   90.7496    5.4290 C.ar    1  UNL1        0.1149
      7 N          59.4092   92.7836    2.7267 N.pl3   1  UNL1       -0.2932
      8 C          58.6579   92.5182    1.4915 C.3     1  UNL1        0.0923
      9 C          59.4730   92.9556    0.2713 C.3     1  UNL1        0.0252
     10 C          59.9359   94.4179    0.4212 C.3     1  UNL1        0.0472
     11 C          60.7447   94.5888    1.7204 C.3     1  UNL1        0.0252
     12 C          59.9244   94.1429    2.9347 C.3     1  UNL1        0.0923
     13 C          60.7135   94.8898   -0.8243 C.3     1  UNL1        0.2054
     14 O          61.8427   94.0563   -1.1030 O.3     1  UNL1       -0.4755
     15 C          62.9081   93.7631   -0.2342 C.ar    1  UNL1        0.1388
     16 C          64.1336   94.3930   -0.4752 C.ar    1  UNL1        0.0369
     17 C          65.2366   94.1365    0.3394 C.ar    1  UNL1        0.0033
     18 C          65.1249   93.2521    1.4128 C.ar    1  UNL1        0.0066
     19 C          63.9005   92.6202    1.6906 C.ar    1  UNL1        0.0785
     20 C          62.7950   92.8767    0.8573 C.ar    1  UNL1        0.0433
     21 C          63.7979   91.6804    2.8339 C.2     1  UNL1        0.3381
     22 O          63.0236   91.9446    3.7921 O.2     1  UNL1       -0.2451
     23 O          64.5269   90.4924    2.8763 O.3     1  UNL1       -0.4771
     24 H          65.0827   90.1653    2.0969 H       1  UNL1        0.2954
     25 C          59.9539   89.1555    8.1770 C.2     1  UNL1        0.2839
     26 O          60.7626   90.0988    8.3887 O.2     1  UNL1       -0.2665
     27 N          58.9403   89.2921    7.1699 N.am    1  UNL1       -0.2766
     28 H          58.0241   88.8182    7.3341 H       1  UNL1        0.1553
     29 C          62.3959   88.2324   10.0867 C.3     1  UNL1        0.0345
     30 C          61.0796   87.5532    9.8562 C.ar    1  UNL1        0.0202
     31 C          60.0206   87.9590    9.0346 C.ar    1  UNL1        0.1946
     32 O          59.0206   87.1004    9.1303 O.2     1  UNL1       -0.4492
     33 C          59.3845   86.1480    9.9539 C.ar    1  UNL1        0.1457
     34 C          58.6458   85.0337   10.3362 C.ar    1  UNL1        0.0442
     35 C          59.2307   84.1223   11.2361 C.ar    1  UNL1        0.0376
     36 BR         58.2307   82.5476   11.6855 Br      1  UNL1       -0.0489
     37 C          60.5453   84.3542   11.7394 C.ar    1  UNL1        0.0064
     38 C          61.2643   85.4953   11.3172 C.ar    1  UNL1        0.0033
     39 C          60.6484   86.3717   10.4255 C.ar    1  UNL1        0.0337
     40 C          61.1828   83.4254   12.6969 C.ar    1  UNL1        0.0005
     41 C          61.5380   83.8609   13.9848 C.ar    1  UNL1        0.0000
     42 C          62.1592   82.9833   14.8789 C.ar    1  UNL1        0.0000
     43 C          62.4384   81.6699   14.4914 C.ar    1  UNL1        0.0000
     44 C          62.1008   81.2332   13.2075 C.ar    1  UNL1        0.0000
     45 C          61.4795   82.1075   12.3104 C.ar    1  UNL1        0.0000
@<TRIPOS>BOND
     1    29    30    1
     2    30    31   ar
     3    31    25    1
     4    25    26    2
     5    25    27   am
     6    27     1    1
     7     1     2   ar
     8     2     3   ar
     9     3     4   ar
    10     4     7    1
    11     7     8    1
    12     8     9    1
    13     9    10    1
    14    10    13    1
    15    13    14    1
    16    14    15    1
    17    15    16   ar
    18    16    17   ar
    19    17    18   ar
    20    18    19   ar
    21    19    21    1
    22    21    22    2
    23    21    23    1
    24    19    20   ar
    25    10    11    1
    26    11    12    1
    27     4     5   ar
    28     5     6   ar
    29    31    32   ar
    30    32    33   ar
    31    33    34   ar
    32    34    35   ar
    33    35    36    1
    34    35    37   ar
    35    37    40    1
    36    40    41   ar
    37    41    42   ar
    38    42    43   ar
    39    43    44   ar
    40    44    45   ar
    41    37    38   ar
    42    38    39   ar
    43    39    30   ar
    44     6     1   ar
    45    39    33   ar
    46    12     7    1
    47    45    40   ar
    48    20    15   ar
    49    27    28    1
    50    23    24    1
@<TRIPOS>MOLECULE
*****
 45 50 0 0 0
SMALL
GASTEIGER

@<TRIPOS>ATOM
      1 C          60.7747   86.6436   12.5454 C.ar    1  UNL1        0.0702
      2 C          59.4911   86.4076   13.0530 C.ar    1  UNL1        0.0191
      3 C          58.8341   85.2081   12.7754 C.ar    1  UNL1        0.0356
      4 C          59.4715   84.2364   11.9901 C.ar    1  UNL1        0.1318
      5 N          60.7339   84.4711   11.5352 N.ar    1  UNL1       -0.2279
      6 C          61.3920   85.6327   11.7903 C.ar    1  UNL1        0.1149
      7 N          58.8256   82.9833   11.6981 N.pl3   1  UNL1       -0.2932
      8 C          58.2834   82.1573   12.7863 C.3     1  UNL1        0.0923
      9 C          58.4608   80.6713   12.4624 C.3     1  UNL1        0.0252
     10 C          57.8756   80.3426   11.0750 C.3     1  UNL1        0.0472
     11 C          58.5302   81.2283    9.9988 C.3     1  UNL1        0.0252
     12 C          58.3537   82.7124   10.3341 C.3     1  UNL1        0.0923
     13 C          57.9994   78.8386   10.7568 C.3     1  UNL1        0.2054
     14 O          59.3202   78.3434   10.9970 O.3     1  UNL1       -0.4755
     15 C          60.4954   79.1044   11.1221 C.ar    1  UNL1        0.1388
     16 C          61.2176   79.3785    9.9560 C.ar    1  UNL1        0.0369
     17 C          62.4005   80.1160   10.0097 C.ar    1  UNL1        0.0033
     18 C          62.8717   80.5973   11.2317 C.ar    1  UNL1        0.0066
     19 C          62.1561   80.3541   12.4167 C.ar    1  UNL1        0.0785
     20 C          60.9687   79.6001   12.3551 C.ar    1  UNL1        0.0433
     21 C          62.6711   80.8701   13.7088 C.2     1  UNL1        0.3381
     22 O          63.9131   80.9886   13.8836 O.2     1  UNL1       -0.2451
     23 O          61.8151   81.2478   14.7429 O.3     1  UNL1       -0.4771
     24 H          60.8099   81.2816   14.6341 H       1  UNL1        0.2954
     25 C          62.0746   88.7137   11.8761 C.2     1  UNL1        0.2839
     26 O          61.6725   88.6921   10.6818 O.2     1  UNL1       -0.2665
     27 N          61.4502   87.8739   12.8585 N.am    1  UNL1       -0.2766
     28 H          61.3902   88.2322   13.8377 H       1  UNL1        0.1553
     29 C          64.1999   88.4540   14.3006 C.3     1  UNL1        0.0345
     30 C          64.0468   89.5640   13.3049 C.ar    1  UNL1        0.0202
     31 C          63.1306   89.6706   12.2511 C.ar    1  UNL1        0.1946
     32 O          63.3409   90.7905   11.5818 O.2     1  UNL1       -0.4492
     33 C          64.3310   91.4256   12.1598 C.ar    1  UNL1        0.1457
     34 C          64.8771   92.6509   11.7937 C.ar    1  UNL1        0.0442
     35 C          65.9427   93.1618   12.5592 C.ar    1  UNL1        0.0376
     36 BR         66.6266   94.8923   12.0914 Br      1  UNL1       -0.0489
     37 C          66.4426   92.4258   13.6744 C.ar    1  UNL1        0.0064
     38 C          65.8518   91.1884   14.0170 C.ar    1  UNL1        0.0033
     39 C          64.7994   90.7192   13.2328 C.ar    1  UNL1        0.0337
     40 C          67.5697   92.9262   14.4899 C.ar    1  UNL1        0.0005
     41 C          68.8792   92.4765   14.2499 C.ar    1  UNL1        0.0000
     42 C          69.9381   92.9381   15.0379 C.ar    1  UNL1        0.0000
     43 C          69.6968   93.8429   16.0754 C.ar    1  UNL1        0.0000
     44 C          68.3954   94.2842   16.3293 C.ar    1  UNL1        0.0000
     45 C          67.3336   93.8251   15.5436 C.ar    1  UNL1        0.0000
@<TRIPOS>BOND
     1    29    30    1
     2    30    31   ar
     3    31    25    1
     4    25    26    2
     5    25    27   am
     6    27     1    1
     7     1     2   ar
     8     2     3   ar
     9     3     4   ar
    10     4     7    1
    11     7     8    1
    12     8     9    1
    13     9    10    1
    14    10    13    1
    15    13    14    1
    16    14    15    1
    17    15    16   ar
    18    16    17   ar
    19    17    18   ar
    20    18    19   ar
    21    19    21    1
    22    21    22    2
    23    21    23    1
    24    19    20   ar
    25    10    11    1
    26    11    12    1
    27     4     5   ar
    28     5     6   ar
    29    31    32   ar
    30    32    33   ar
    31    33    34   ar
    32    34    35   ar
    33    35    36    1
    34    35    37   ar
    35    37    40    1
    36    40    41   ar
    37    41    42   ar
    38    42    43   ar
    39    43    44   ar
    40    44    45   ar
    41    37    38   ar
    42    38    39   ar
    43    39    30   ar
    44     6     1   ar
    45    39    33   ar
    46    12     7    1
    47    45    40   ar
    48    20    15   ar
    49    27    28    1
    50    23    24    1
