@<TRIPOS>MOLECULE
*****
 47 52 0 0 0
SMALL
GASTEIGER

@<TRIPOS>ATOM
      1 C         -66.4672  -53.9054  -23.7659 C.ar    1  UNL1        0.0702
      2 C         -66.4202  -55.0872  -24.5238 C.ar    1  UNL1        0.0191
      3 C         -67.5975  -55.7761  -24.8176 C.ar    1  UNL1        0.0356
      4 C         -68.8198  -55.2792  -24.3511 C.ar    1  UNL1        0.1318
      5 N         -68.8516  -54.1120  -23.6538 N.ar    1  UNL1       -0.2279
      6 C         -67.7182  -53.4223  -23.3572 C.ar    1  UNL1        0.1149
      7 N         -70.0467  -55.9546  -24.6638 N.pl3   1  UNL1       -0.2924
      8 C         -70.5404  -56.9456  -23.6976 C.3     1  UNL1        0.0923
      9 C         -72.0371  -57.2314  -23.8965 C.3     1  UNL1        0.0252
     10 C         -72.8048  -55.9151  -24.1444 C.3     1  UNL1        0.0472
     11 C         -72.2636  -55.1328  -25.3770 C.3     1  UNL1        0.0261
     12 C         -70.8766  -55.6237  -25.8413 C.3     1  UNL1        0.1035
     13 C         -70.2273  -54.6210  -26.8154 C.3     1  UNL1        0.1567
     14 O         -70.0618  -53.3794  -26.1876 O.3     1  UNL1       -0.3802
     15 H         -69.6748  -52.7738  -26.8720 H       1  UNL1        0.2105
     16 C         -74.3165  -56.1682  -24.2542 C.3     1  UNL1        0.2054
     17 O         -74.9199  -55.2101  -25.1226 O.3     1  UNL1       -0.4755
     18 C         -75.0573  -55.3695  -26.5088 C.ar    1  UNL1        0.1388
     19 C         -75.2100  -56.6311  -27.1115 C.ar    1  UNL1        0.0369
     20 C         -75.3476  -56.7341  -28.4969 C.ar    1  UNL1        0.0033
     21 C         -75.3291  -55.5875  -29.2945 C.ar    1  UNL1        0.0066
     22 C         -75.1662  -54.3182  -28.7117 C.ar    1  UNL1        0.0785
     23 C         -75.0404  -54.2235  -27.3132 C.ar    1  UNL1        0.0433
     24 C         -75.1490  -53.0889  -29.5419 C.2     1  UNL1        0.3381
     25 O         -75.1330  -51.9589  -28.9849 O.2     1  UNL1       -0.2451
     26 O         -75.1348  -53.1430  -30.9352 O.3     1  UNL1       -0.4771
     27 H         -75.0430  -54.0109  -31.4468 H       1  UNL1        0.2954
     28 C         -64.3965  -52.6108  -24.4580 C.2     1  UNL1        0.2839
     29 O         -64.4846  -52.9872  -25.6577 O.2     1  UNL1       -0.2665
     30 N         -65.2802  -53.1527  -23.4629 N.am    1  UNL1       -0.2766
     31 H         -64.9999  -53.0678  -22.4596 H       1  UNL1        0.1553
     32 C         -64.4472  -49.4395  -24.9194 C.3     1  UNL1        0.0345
     33 C         -63.3750  -50.2563  -24.2633 C.ar    1  UNL1        0.0202
     34 C         -63.3565  -51.6414  -24.0643 C.ar    1  UNL1        0.1946
     35 O         -62.2422  -51.9947  -23.4486 O.2     1  UNL1       -0.4492
     36 C         -61.5365  -50.9104  -23.2391 C.ar    1  UNL1        0.1452
     37 C         -60.2939  -50.8185  -22.6219 C.ar    1  UNL1        0.0375
     38 C         -59.7092  -49.5460  -22.5015 C.ar    1  UNL1        0.0031
     39 C         -60.3712  -48.3901  -22.9969 C.ar    1  UNL1        0.0002
     40 C         -61.6357  -48.5276  -23.6183 C.ar    1  UNL1        0.0028
     41 C         -62.1867  -49.8059  -23.7206 C.ar    1  UNL1        0.0337
     42 C         -59.7435  -47.0508  -22.8640 C.ar    1  UNL1        0.0000
     43 C         -60.5308  -45.9148  -22.5961 C.ar    1  UNL1        0.0000
     44 C         -59.9368  -44.6551  -22.4705 C.ar    1  UNL1        0.0000
     45 C         -58.5544  -44.5147  -22.6111 C.ar    1  UNL1        0.0000
     46 C         -57.7626  -45.6339  -22.8772 C.ar    1  UNL1        0.0000
     47 C         -58.3510  -46.8961  -23.0029 C.ar    1  UNL1        0.0000
@<TRIPOS>BOND
     1    32    33    1
     2    33    34   ar
     3    34    28    1
     4    28    29    2
     5    28    30   am
     6    30     1    1
     7     1     2   ar
     8     2     3   ar
     9     3     4   ar
    10     4     7    1
    11     7     8    1
    12     8     9    1
    13     9    10    1
    14    10    16    1
    15    16    17    1
    16    17    18    1
    17    18    19   ar
    18    19    20   ar
    19    20    21   ar
    20    21    22   ar
    21    22    24    1
    22    24    25    2
    23    24    26    1
    24    22    23   ar
    25    10    11    1
    26    11    12    1
    27    12    13    1
    28    13    14    1
    29     4     5   ar
    30     5     6   ar
    31    34    35   ar
    32    35    36   ar
    33    36    37   ar
    34    37    38   ar
    35    38    39   ar
    36    39    42    1
    37    42    43   ar
    38    43    44   ar
    39    44    45   ar
    40    45    46   ar
    41    46    47   ar
    42    39    40   ar
    43    40    41   ar
    44    41    33   ar
    45     6     1   ar
    46    41    36   ar
    47    12     7    1
    48    47    42   ar
    49    23    18   ar
    50    30    31    1
    51    26    27    1
    52    14    15    1
@<TRIPOS>MOLECULE
*****
 47 52 0 0 0
SMALL
GASTEIGER

@<TRIPOS>ATOM
      1 C         -65.5095  -53.4657  -22.9718 C.ar    1  UNL1        0.0702
      2 C         -65.2580  -54.7692  -22.5123 C.ar    1  UNL1        0.0191
      3 C         -66.2802  -55.7189  -22.5110 C.ar    1  UNL1        0.0356
      4 C         -67.5527  -55.3603  -22.9701 C.ar    1  UNL1        0.1318
      5 N         -67.7682  -54.1061  -23.4497 N.ar    1  UNL1       -0.2279
      6 C         -66.7876  -53.1646  -23.4628 C.ar    1  UNL1        0.1149
      7 N         -68.6127  -56.3269  -23.0046 N.pl3   1  UNL1       -0.2924
      8 C         -69.3597  -56.5588  -21.7606 C.3     1  UNL1        0.0923
      9 C         -70.7185  -57.2226  -22.0330 C.3     1  UNL1        0.0252
     10 C         -71.3979  -56.5688  -23.2555 C.3     1  UNL1        0.0472
     11 C         -70.5204  -56.6504  -24.5391 C.3     1  UNL1        0.0261
     12 C         -69.0491  -57.0073  -24.2422 C.3     1  UNL1        0.1035
     13 C         -68.1519  -56.7379  -25.4662 C.3     1  UNL1        0.1567
     14 O         -68.4067  -55.4582  -25.9768 O.3     1  UNL1       -0.3802
     15 H         -67.8278  -55.3602  -26.7768 H       1  UNL1        0.2105
     16 C         -72.7988  -57.1552  -23.4896 C.3     1  UNL1        0.2054
     17 O         -73.6939  -56.1405  -23.9427 O.3     1  UNL1       -0.4755
     18 C         -74.0534  -55.9384  -25.2828 C.ar    1  UNL1        0.1388
     19 C         -74.7000  -56.9261  -26.0473 C.ar    1  UNL1        0.0369
     20 C         -75.0405  -56.6719  -27.3771 C.ar    1  UNL1        0.0033
     21 C         -74.7372  -55.4390  -27.9594 C.ar    1  UNL1        0.0066
     22 C         -74.0810  -54.4429  -27.2147 C.ar    1  UNL1        0.0785
     23 C         -73.7527  -54.7040  -25.8714 C.ar    1  UNL1        0.0433
     24 C         -73.7551  -53.1257  -27.8143 C.2     1  UNL1        0.3381
     25 O         -72.6845  -52.9821  -28.4628 O.2     1  UNL1       -0.2451
     26 O         -74.6117  -52.0318  -27.6956 O.3     1  UNL1       -0.4771
     27 H         -75.5312  -52.1013  -27.2797 H       1  UNL1        0.2954
     28 C         -63.9250  -51.9303  -24.2267 C.2     1  UNL1        0.2839
     29 O         -64.1445  -52.5004  -25.3292 O.2     1  UNL1       -0.2665
     30 N         -64.4775  -52.4653  -23.0129 N.am    1  UNL1       -0.2766
     31 H         -64.0462  -52.1726  -22.1070 H       1  UNL1        0.1553
     32 C         -61.3506  -51.4895  -22.3691 C.3     1  UNL1        0.0345
     33 C         -61.9395  -50.5369  -23.3655 C.ar    1  UNL1        0.0202
     34 C         -63.0645  -50.7332  -24.1745 C.ar    1  UNL1        0.1946
     35 O         -63.2728  -49.6663  -24.9255 O.2     1  UNL1       -0.4492
     36 C         -62.3419  -48.7877  -24.6444 C.ar    1  UNL1        0.1452
     37 C         -62.1804  -47.5227  -25.1986 C.ar    1  UNL1        0.0375
     38 C         -61.1057  -46.7369  -24.7480 C.ar    1  UNL1        0.0031
     39 C         -60.2127  -47.2240  -23.7554 C.ar    1  UNL1        0.0002
     40 C         -60.4125  -48.5181  -23.2174 C.ar    1  UNL1        0.0028
     41 C         -61.4895  -49.2709  -23.6881 C.ar    1  UNL1        0.0337
     42 C         -59.0808  -46.3846  -23.2871 C.ar    1  UNL1        0.0000
     43 C         -57.8096  -46.9511  -23.0744 C.ar    1  UNL1        0.0000
     44 C         -56.7454  -46.1579  -22.6344 C.ar    1  UNL1        0.0000
     45 C         -56.9369  -44.7942  -22.4014 C.ar    1  UNL1        0.0000
     46 C         -58.1932  -44.2204  -22.6085 C.ar    1  UNL1        0.0000
     47 C         -59.2608  -45.0086  -23.0493 C.ar    1  UNL1        0.0000
@<TRIPOS>BOND
     1    32    33    1
     2    33    34   ar
     3    34    28    1
     4    28    29    2
     5    28    30   am
     6    30     1    1
     7     1     2   ar
     8     2     3   ar
     9     3     4   ar
    10     4     7    1
    11     7     8    1
    12     8     9    1
    13     9    10    1
    14    10    16    1
    15    16    17    1
    16    17    18    1
    17    18    19   ar
    18    19    20   ar
    19    20    21   ar
    20    21    22   ar
    21    22    24    1
    22    24    25    2
    23    24    26    1
    24    22    23   ar
    25    10    11    1
    26    11    12    1
    27    12    13    1
    28    13    14    1
    29     4     5   ar
    30     5     6   ar
    31    34    35   ar
    32    35    36   ar
    33    36    37   ar
    34    37    38   ar
    35    38    39   ar
    36    39    42    1
    37    42    43   ar
    38    43    44   ar
    39    44    45   ar
    40    45    46   ar
    41    46    47   ar
    42    39    40   ar
    43    40    41   ar
    44    41    33   ar
    45     6     1   ar
    46    41    36   ar
    47    12     7    1
    48    47    42   ar
    49    23    18   ar
    50    30    31    1
    51    26    27    1
    52    14    15    1
@<TRIPOS>MOLECULE
*****
 47 52 0 0 0
SMALL
GASTEIGER

@<TRIPOS>ATOM
      1 C         -63.5652  -51.1001  -24.1492 C.ar    1  UNL1        0.0702
      2 C         -62.4331  -51.5322  -23.4387 C.ar    1  UNL1        0.0191
      3 C         -61.4146  -50.6295  -23.1312 C.ar    1  UNL1        0.0356
      4 C         -61.5325  -49.2953  -23.5366 C.ar    1  UNL1        0.1318
      5 N         -62.6536  -48.8847  -24.1878 N.ar    1  UNL1       -0.2279
      6 C         -63.6599  -49.7451  -24.4966 C.ar    1  UNL1        0.1149
      7 N         -60.5114  -48.3421  -23.2081 N.pl3   1  UNL1       -0.2924
      8 C         -59.8148  -47.6837  -24.3220 C.3     1  UNL1        0.0923
      9 C         -59.1197  -46.3906  -23.8681 C.3     1  UNL1        0.0252
     10 C         -60.0434  -45.5890  -22.9259 C.3     1  UNL1        0.0472
     11 C         -60.4721  -46.4081  -21.6731 C.3     1  UNL1        0.0261
     12 C         -60.2110  -47.9212  -21.8234 C.3     1  UNL1        0.1035
     13 C         -60.9537  -48.7259  -20.7389 C.3     1  UNL1        0.1567
     14 O         -60.2927  -48.6004  -19.5099 O.3     1  UNL1       -0.3802
     15 H         -60.7961  -49.1645  -18.8671 H       1  UNL1        0.2105
     16 C         -59.4043  -44.2478  -22.5334 C.3     1  UNL1        0.2054
     17 O         -59.5486  -43.2995  -23.5899 O.3     1  UNL1       -0.4755
     18 C         -60.7620  -42.9923  -24.2217 C.ar    1  UNL1        0.1388
     19 C         -61.0492  -43.3934  -25.5388 C.ar    1  UNL1        0.0369
     20 C         -62.2754  -43.0651  -26.1199 C.ar    1  UNL1        0.0033
     21 C         -63.2226  -42.3321  -25.4011 C.ar    1  UNL1        0.0066
     22 C         -62.9495  -41.9124  -24.0871 C.ar    1  UNL1        0.0785
     23 C         -61.7157  -42.2585  -23.5056 C.ar    1  UNL1        0.0433
     24 C         -63.9449  -41.1375  -23.3064 C.2     1  UNL1        0.3381
     25 O         -63.5797  -40.5086  -22.2776 O.2     1  UNL1       -0.2451
     26 O         -65.2849  -41.0688  -23.6862 O.3     1  UNL1       -0.4771
     27 H         -65.6272  -41.4616  -24.5534 H       1  UNL1        0.2954
     28 C         -65.0053  -53.1340  -23.6676 C.2     1  UNL1        0.2839
     29 O         -64.2197  -53.5586  -22.7781 O.2     1  UNL1       -0.2665
     30 N         -64.6478  -51.9925  -24.4638 N.am    1  UNL1       -0.2766
     31 H         -65.1494  -51.8498  -25.3696 H       1  UNL1        0.1553
     32 C         -67.5392  -53.2924  -21.7113 C.3     1  UNL1        0.0345
     33 C         -67.3872  -53.9057  -23.0707 C.ar    1  UNL1        0.0202
     34 C         -66.2785  -53.8346  -23.9217 C.ar    1  UNL1        0.1946
     35 O         -66.5211  -54.5006  -25.0367 O.2     1  UNL1       -0.4492
     36 C         -67.7294  -55.0011  -24.9522 C.ar    1  UNL1        0.1452
     37 C         -68.3908  -55.7741  -25.9001 C.ar    1  UNL1        0.0375
     38 C         -69.6929  -56.2120  -25.6028 C.ar    1  UNL1        0.0031
     39 C         -70.3119  -55.8727  -24.3693 C.ar    1  UNL1        0.0002
     40 C         -69.6037  -55.0830  -23.4317 C.ar    1  UNL1        0.0028
     41 C         -68.3129  -54.6656  -23.7599 C.ar    1  UNL1        0.0337
     42 C         -71.6881  -56.3412  -24.0663 C.ar    1  UNL1        0.0000
     43 C         -72.0642  -56.6508  -22.7453 C.ar    1  UNL1        0.0000
     44 C         -73.3611  -57.0908  -22.4629 C.ar    1  UNL1        0.0000
     45 C         -74.2949  -57.2271  -23.4924 C.ar    1  UNL1        0.0000
     46 C         -73.9341  -56.9234  -24.8069 C.ar    1  UNL1        0.0000
     47 C         -72.6389  -56.4822  -25.0950 C.ar    1  UNL1        0.0000
@<TRIPOS>BOND
     1    32    33    1
     2    33    34   ar
     3    34    28    1
     4    28    29    2
     5    28    30   am
     6    30     1    1
     7     1     2   ar
     8     2     3   ar
     9     3     4   ar
    10     4     7    1
    11     7     8    1
    12     8     9    1
    13     9    10    1
    14    10    16    1
    15    16    17    1
    16    17    18    1
    17    18    19   ar
    18    19    20   ar
    19    20    21   ar
    20    21    22   ar
    21    22    24    1
    22    24    25    2
    23    24    26    1
    24    22    23   ar
    25    10    11    1
    26    11    12    1
    27    12    13    1
    28    13    14    1
    29     4     5   ar
    30     5     6   ar
    31    34    35   ar
    32    35    36   ar
    33    36    37   ar
    34    37    38   ar
    35    38    39   ar
    36    39    42    1
    37    42    43   ar
    38    43    44   ar
    39    44    45   ar
    40    45    46   ar
    41    46    47   ar
    42    39    40   ar
    43    40    41   ar
    44    41    33   ar
    45     6     1   ar
    46    41    36   ar
    47    12     7    1
    48    47    42   ar
    49    23    18   ar
    50    30    31    1
    51    26    27    1
    52    14    15    1
@<TRIPOS>MOLECULE
*****
 47 52 0 0 0
SMALL
GASTEIGER

@<TRIPOS>ATOM
      1 C         -66.2326  -53.7507  -23.6814 C.ar    1  UNL1        0.0702
      2 C         -66.2248  -54.9263  -24.4503 C.ar    1  UNL1        0.0191
      3 C         -67.4122  -55.6256  -24.6697 C.ar    1  UNL1        0.0356
      4 C         -68.6052  -55.1452  -24.1179 C.ar    1  UNL1        0.1318
      5 N         -68.6017  -53.9837  -23.4106 N.ar    1  UNL1       -0.2279
      6 C         -67.4580  -53.2840  -23.1854 C.ar    1  UNL1        0.1149
      7 N         -69.8434  -55.8314  -24.3526 N.pl3   1  UNL1       -0.2924
      8 C         -70.2024  -56.9172  -23.4298 C.3     1  UNL1        0.0923
      9 C         -71.7050  -57.2341  -23.4877 C.3     1  UNL1        0.0252
     10 C         -72.5259  -55.9274  -23.5320 C.3     1  UNL1        0.0472
     11 C         -72.1448  -55.0251  -24.7423 C.3     1  UNL1        0.0261
     12 C         -70.8077  -55.4284  -25.3979 C.3     1  UNL1        0.1035
     13 C         -70.2953  -54.3252  -26.3445 C.3     1  UNL1        0.1567
     14 O         -69.6257  -54.8989  -27.4333 O.3     1  UNL1       -0.3802
     15 H         -69.2930  -54.1421  -27.9823 H       1  UNL1        0.2105
     16 C         -74.0341  -56.2198  -23.4972 C.3     1  UNL1        0.2054
     17 O         -74.4177  -56.7040  -22.2108 O.3     1  UNL1       -0.4755
     18 C         -74.2626  -55.9899  -21.0142 C.ar    1  UNL1        0.1388
     19 C         -75.3436  -55.7039  -20.1611 C.ar    1  UNL1        0.0369
     20 C         -75.1339  -54.9928  -18.9782 C.ar    1  UNL1        0.0033
     21 C         -73.8521  -54.5558  -18.6359 C.ar    1  UNL1        0.0066
     22 C         -72.7605  -54.8222  -19.4814 C.ar    1  UNL1        0.0785
     23 C         -72.9797  -55.5502  -20.6656 C.ar    1  UNL1        0.0433
     24 C         -71.3912  -54.3705  -19.1323 C.2     1  UNL1        0.3381
     25 O         -70.6589  -55.0970  -18.4089 O.2     1  UNL1       -0.2451
     26 O         -70.8757  -53.1607  -19.5961 O.3     1  UNL1       -0.4771
     27 H         -71.3662  -52.5778  -20.2617 H       1  UNL1        0.2954
     28 C         -64.2451  -52.4003  -24.4995 C.2     1  UNL1        0.2839
     29 O         -64.4267  -52.7410  -25.6993 O.2     1  UNL1       -0.2665
     30 N         -65.0356  -52.9875  -23.4530 N.am    1  UNL1       -0.2766
     31 H         -64.6746  -52.9288  -22.4739 H       1  UNL1        0.1553
     32 C         -64.4430  -49.2067  -24.6864 C.3     1  UNL1        0.0345
     33 C         -63.2727  -50.0311  -24.2413 C.ar    1  UNL1        0.0202
     34 C         -63.1903  -51.4259  -24.1617 C.ar    1  UNL1        0.1946
     35 O         -61.9963  -51.7838  -23.7234 O.2     1  UNL1       -0.4492
     36 C         -61.2997  -50.6932  -23.5159 C.ar    1  UNL1        0.1452
     37 C         -59.9908  -50.6028  -23.0554 C.ar    1  UNL1        0.0375
     38 C         -59.4310  -49.3223  -22.9050 C.ar    1  UNL1        0.0031
     39 C         -60.1833  -48.1571  -23.2151 C.ar    1  UNL1        0.0002
     40 C         -61.5132  -48.2935  -23.6807 C.ar    1  UNL1        0.0028
     41 C         -62.0371  -49.5799  -23.8180 C.ar    1  UNL1        0.0337
     42 C         -59.5811  -46.8095  -23.0523 C.ar    1  UNL1        0.0000
     43 C         -58.1826  -46.6494  -23.0225 C.ar    1  UNL1        0.0000
     44 C         -57.6184  -45.3790  -22.8701 C.ar    1  UNL1        0.0000
     45 C         -58.4407  -44.2571  -22.7453 C.ar    1  UNL1        0.0000
     46 C         -59.8293  -44.4028  -22.7732 C.ar    1  UNL1        0.0000
     47 C         -60.3990  -45.6705  -22.9262 C.ar    1  UNL1        0.0000
@<TRIPOS>BOND
     1    32    33    1
     2    33    34   ar
     3    34    28    1
     4    28    29    2
     5    28    30   am
     6    30     1    1
     7     1     2   ar
     8     2     3   ar
     9     3     4   ar
    10     4     7    1
    11     7     8    1
    12     8     9    1
    13     9    10    1
    14    10    16    1
    15    16    17    1
    16    17    18    1
    17    18    19   ar
    18    19    20   ar
    19    20    21   ar
    20    21    22   ar
    21    22    24    1
    22    24    25    2
    23    24    26    1
    24    22    23   ar
    25    10    11    1
    26    11    12    1
    27    12    13    1
    28    13    14    1
    29     4     5   ar
    30     5     6   ar
    31    34    35   ar
    32    35    36   ar
    33    36    37   ar
    34    37    38   ar
    35    38    39   ar
    36    39    42    1
    37    42    43   ar
    38    43    44   ar
    39    44    45   ar
    40    45    46   ar
    41    46    47   ar
    42    39    40   ar
    43    40    41   ar
    44    41    33   ar
    45     6     1   ar
    46    41    36   ar
    47    12     7    1
    48    47    42   ar
    49    23    18   ar
    50    30    31    1
    51    26    27    1
    52    14    15    1
@<TRIPOS>MOLECULE
*****
 47 52 0 0 0
SMALL
GASTEIGER

@<TRIPOS>ATOM
      1 C         -64.4602  -52.1489  -24.5445 C.ar    1  UNL1        0.0702
      2 C         -63.6831  -52.7601  -23.5466 C.ar    1  UNL1        0.0191
      3 C         -64.2329  -53.7658  -22.7509 C.ar    1  UNL1        0.0356
      4 C         -65.5608  -54.1568  -22.9567 C.ar    1  UNL1        0.1318
      5 N         -66.2861  -53.5834  -23.9540 N.ar    1  UNL1       -0.2279
      6 C         -65.7714  -52.6034  -24.7433 C.ar    1  UNL1        0.1149
      7 N         -66.1399  -55.2078  -22.1698 N.pl3   1  UNL1       -0.2924
      8 C         -65.8136  -55.2410  -20.7374 C.3     1  UNL1        0.0923
      9 C         -66.8305  -56.0778  -19.9456 C.3     1  UNL1        0.0252
     10 C         -68.2654  -55.7698  -20.4248 C.3     1  UNL1        0.0472
     11 C         -68.4554  -56.0369  -21.9469 C.3     1  UNL1        0.0261
     12 C         -67.1196  -56.1760  -22.7062 C.3     1  UNL1        0.1035
     13 C         -67.3323  -56.0873  -24.2302 C.3     1  UNL1        0.1567
     14 O         -68.3771  -55.1994  -24.5189 O.3     1  UNL1       -0.3802
     15 H         -68.4860  -55.2131  -25.5051 H       1  UNL1        0.2105
     16 C         -69.3045  -56.5273  -19.5835 C.3     1  UNL1        0.2054
     17 O         -69.7166  -55.7355  -18.4702 O.3     1  UNL1       -0.4755
     18 C         -69.2250  -55.8821  -17.1653 C.ar    1  UNL1        0.1388
     19 C         -70.0033  -56.4141  -16.1216 C.ar    1  UNL1        0.0369
     20 C         -69.4638  -56.5429  -14.8405 C.ar    1  UNL1        0.0033
     21 C         -68.1511  -56.1399  -14.5843 C.ar    1  UNL1        0.0066
     22 C         -67.3609  -55.5953  -15.6122 C.ar    1  UNL1        0.0785
     23 C         -67.9095  -55.4806  -16.9030 C.ar    1  UNL1        0.0433
     24 C         -65.9633  -55.1663  -15.3605 C.2     1  UNL1        0.3381
     25 O         -65.7390  -54.1654  -14.6289 O.2     1  UNL1       -0.2451
     26 O         -64.8755  -55.8512  -15.9010 O.3     1  UNL1       -0.4771
     27 H         -64.9757  -56.7195  -16.4104 H       1  UNL1        0.2954
     28 C         -64.1395  -49.7198  -25.2073 C.2     1  UNL1        0.2839
     29 O         -65.0285  -49.3185  -24.4091 O.2     1  UNL1       -0.2665
     30 N         -63.9237  -51.1270  -25.4020 N.am    1  UNL1       -0.2766
     31 H         -63.4178  -51.4309  -26.2647 H       1  UNL1        0.1553
     32 C         -64.0978  -49.3519  -28.3910 C.3     1  UNL1        0.0345
     33 C         -63.3237  -48.5793  -27.3658 C.ar    1  UNL1        0.0202
     34 C         -63.3444  -48.7435  -25.9762 C.ar    1  UNL1        0.1946
     35 O         -62.5283  -47.8748  -25.4062 O.2     1  UNL1       -0.4492
     36 C         -61.9784  -47.1564  -26.3544 C.ar    1  UNL1        0.1452
     37 C         -61.0552  -46.1273  -26.2058 C.ar    1  UNL1        0.0375
     38 C         -60.5897  -45.4854  -27.3663 C.ar    1  UNL1        0.0031
     39 C         -61.0510  -45.8791  -28.6516 C.ar    1  UNL1        0.0002
     40 C         -61.9919  -46.9314  -28.7587 C.ar    1  UNL1        0.0028
     41 C         -62.4326  -47.5463  -27.5858 C.ar    1  UNL1        0.0337
     42 C         -60.5519  -45.1935  -29.8707 C.ar    1  UNL1        0.0000
     43 C         -61.4057  -44.3702  -30.6292 C.ar    1  UNL1        0.0000
     44 C         -60.9326  -43.7251  -31.7761 C.ar    1  UNL1        0.0000
     45 C         -59.6060  -43.8941  -32.1786 C.ar    1  UNL1        0.0000
     46 C         -58.7492  -44.7084  -31.4349 C.ar    1  UNL1        0.0000
     47 C         -59.2166  -45.3552  -30.2867 C.ar    1  UNL1        0.0000
@<TRIPOS>BOND
     1    32    33    1
     2    33    34   ar
     3    34    28    1
     4    28    29    2
     5    28    30   am
     6    30     1    1
     7     1     2   ar
     8     2     3   ar
     9     3     4   ar
    10     4     7    1
    11     7     8    1
    12     8     9    1
    13     9    10    1
    14    10    16    1
    15    16    17    1
    16    17    18    1
    17    18    19   ar
    18    19    20   ar
    19    20    21   ar
    20    21    22   ar
    21    22    24    1
    22    24    25    2
    23    24    26    1
    24    22    23   ar
    25    10    11    1
    26    11    12    1
    27    12    13    1
    28    13    14    1
    29     4     5   ar
    30     5     6   ar
    31    34    35   ar
    32    35    36   ar
    33    36    37   ar
    34    37    38   ar
    35    38    39   ar
    36    39    42    1
    37    42    43   ar
    38    43    44   ar
    39    44    45   ar
    40    45    46   ar
    41    46    47   ar
    42    39    40   ar
    43    40    41   ar
    44    41    33   ar
    45     6     1   ar
    46    41    36   ar
    47    12     7    1
    48    47    42   ar
    49    23    18   ar
    50    30    31    1
    51    26    27    1
    52    14    15    1
@<TRIPOS>MOLECULE
*****
 47 52 0 0 0
SMALL
GASTEIGER

@<TRIPOS>ATOM
      1 C         -64.4890  -52.2503  -24.3903 C.ar    1  UNL1        0.0702
      2 C         -63.7207  -52.9437  -23.4405 C.ar    1  UNL1        0.0191
      3 C         -64.3145  -53.9192  -22.6389 C.ar    1  UNL1        0.0356
      4 C         -65.6776  -54.1977  -22.7906 C.ar    1  UNL1        0.1318
      5 N         -66.3974  -53.5462  -23.7429 N.ar    1  UNL1       -0.2279
      6 C         -65.8403  -52.5936  -24.5370 C.ar    1  UNL1        0.1149
      7 N         -66.3047  -55.2159  -21.9974 N.pl3   1  UNL1       -0.2924
      8 C         -66.2312  -55.0784  -20.5362 C.3     1  UNL1        0.0923
      9 C         -67.3051  -55.9244  -19.8344 C.3     1  UNL1        0.0252
     10 C         -68.6536  -55.7992  -20.5757 C.3     1  UNL1        0.0472
     11 C         -68.5551  -56.2304  -22.0685 C.3     1  UNL1        0.0261
     12 C         -67.1009  -56.3186  -22.5762 C.3     1  UNL1        0.1035
     13 C         -67.0510  -56.3995  -24.1145 C.3     1  UNL1        0.1567
     14 O         -68.0394  -55.5773  -24.6715 O.3     1  UNL1       -0.3802
     15 H         -67.9782  -55.6996  -25.6544 H       1  UNL1        0.2105
     16 C         -69.7637  -56.5638  -19.8380 C.3     1  UNL1        0.2054
     17 O         -70.9479  -55.7713  -19.7615 O.3     1  UNL1       -0.4755
     18 C         -71.4227  -55.1629  -18.5909 C.ar    1  UNL1        0.1388
     19 C         -71.2860  -55.7568  -17.3233 C.ar    1  UNL1        0.0369
     20 C         -71.7727  -55.1062  -16.1882 C.ar    1  UNL1        0.0033
     21 C         -72.4033  -53.8650  -16.3028 C.ar    1  UNL1        0.0066
     22 C         -72.5595  -53.2603  -17.5626 C.ar    1  UNL1        0.0785
     23 C         -72.0548  -53.9182  -18.6997 C.ar    1  UNL1        0.0433
     24 C         -73.2219  -51.9404  -17.7036 C.2     1  UNL1        0.3381
     25 O         -73.9849  -51.7256  -18.6829 O.2     1  UNL1       -0.2451
     26 O         -73.0379  -50.9220  -16.7690 O.3     1  UNL1       -0.4771
     27 H         -72.5241  -51.0575  -15.9082 H       1  UNL1        0.2954
     28 C         -64.1461  -49.8447  -25.1240 C.2     1  UNL1        0.2839
     29 O         -65.0833  -49.4220  -24.3948 O.2     1  UNL1       -0.2665
     30 N         -63.9098  -51.2561  -25.2527 N.am    1  UNL1       -0.2766
     31 H         -63.3520  -51.5873  -26.0722 H       1  UNL1        0.1553
     32 C         -64.1734  -49.3579  -28.2918 C.3     1  UNL1        0.0345
     33 C         -63.3229  -48.6746  -27.2637 C.ar    1  UNL1        0.0202
     34 C         -63.3137  -48.8906  -25.8810 C.ar    1  UNL1        0.1946
     35 O         -62.4284  -48.0965  -25.3054 O.2     1  UNL1       -0.4492
     36 C         -61.8621  -47.3776  -26.2435 C.ar    1  UNL1        0.1452
     37 C         -60.8720  -46.4139  -26.0862 C.ar    1  UNL1        0.0375
     38 C         -60.4007  -45.7579  -27.2364 C.ar    1  UNL1        0.0031
     39 C         -60.9229  -46.0726  -28.5203 C.ar    1  UNL1        0.0002
     40 C         -61.9308  -47.0599  -28.6363 C.ar    1  UNL1        0.0028
     41 C         -62.3753  -47.6910  -27.4735 C.ar    1  UNL1        0.0337
     42 C         -60.4170  -45.3728  -29.7284 C.ar    1  UNL1        0.0000
     43 C         -61.2696  -44.5494  -30.4882 C.ar    1  UNL1        0.0000
     44 C         -60.7902  -43.8909  -31.6248 C.ar    1  UNL1        0.0000
     45 C         -59.4584  -44.0465  -32.0157 C.ar    1  UNL1        0.0000
     46 C         -58.6028  -44.8607  -31.2705 C.ar    1  UNL1        0.0000
     47 C         -59.0765  -45.5209  -30.1326 C.ar    1  UNL1        0.0000
@<TRIPOS>BOND
     1    32    33    1
     2    33    34   ar
     3    34    28    1
     4    28    29    2
     5    28    30   am
     6    30     1    1
     7     1     2   ar
     8     2     3   ar
     9     3     4   ar
    10     4     7    1
    11     7     8    1
    12     8     9    1
    13     9    10    1
    14    10    16    1
    15    16    17    1
    16    17    18    1
    17    18    19   ar
    18    19    20   ar
    19    20    21   ar
    20    21    22   ar
    21    22    24    1
    22    24    25    2
    23    24    26    1
    24    22    23   ar
    25    10    11    1
    26    11    12    1
    27    12    13    1
    28    13    14    1
    29     4     5   ar
    30     5     6   ar
    31    34    35   ar
    32    35    36   ar
    33    36    37   ar
    34    37    38   ar
    35    38    39   ar
    36    39    42    1
    37    42    43   ar
    38    43    44   ar
    39    44    45   ar
    40    45    46   ar
    41    46    47   ar
    42    39    40   ar
    43    40    41   ar
    44    41    33   ar
    45     6     1   ar
    46    41    36   ar
    47    12     7    1
    48    47    42   ar
    49    23    18   ar
    50    30    31    1
    51    26    27    1
    52    14    15    1
@<TRIPOS>MOLECULE
*****
 47 52 0 0 0
SMALL
GASTEIGER

@<TRIPOS>ATOM
      1 C         -61.3592  -44.9095  -21.9435 C.ar    1  UNL1        0.0702
      2 C         -60.1427  -45.6086  -21.8766 C.ar    1  UNL1        0.0191
      3 C         -60.0831  -46.9464  -22.2687 C.ar    1  UNL1        0.0356
      4 C         -61.2431  -47.5810  -22.7270 C.ar    1  UNL1        0.1318
      5 N         -62.4032  -46.8780  -22.8241 N.ar    1  UNL1       -0.2279
      6 C         -62.4852  -45.5735  -22.4500 C.ar    1  UNL1        0.1149
      7 N         -61.2012  -48.9478  -23.1620 N.pl3   1  UNL1       -0.2924
      8 C         -60.7129  -49.9496  -22.2041 C.3     1  UNL1        0.0923
      9 C         -61.1536  -51.3684  -22.5966 C.3     1  UNL1        0.0252
     10 C         -62.6277  -51.3628  -23.0557 C.3     1  UNL1        0.0472
     11 C         -62.8752  -50.3990  -24.2531 C.3     1  UNL1        0.0261
     12 C         -61.7212  -49.3982  -24.4702 C.3     1  UNL1        0.1035
     13 C         -62.1441  -48.2554  -25.4140 C.3     1  UNL1        0.1567
     14 O         -63.4736  -47.8913  -25.1626 O.3     1  UNL1       -0.3802
     15 H         -63.6942  -47.1815  -25.8201 H       1  UNL1        0.2105
     16 C         -63.1164  -52.7865  -23.3650 C.3     1  UNL1        0.2054
     17 O         -64.4462  -52.7551  -23.8817 O.3     1  UNL1       -0.4755
     18 C         -65.3845  -53.7850  -23.7241 C.ar    1  UNL1        0.1388
     19 C         -66.1722  -54.2570  -24.7894 C.ar    1  UNL1        0.0369
     20 C         -67.0892  -55.2886  -24.5796 C.ar    1  UNL1        0.0033
     21 C         -67.2353  -55.8551  -23.3112 C.ar    1  UNL1        0.0066
     22 C         -66.4648  -55.3891  -22.2311 C.ar    1  UNL1        0.0785
     23 C         -65.5345  -54.3572  -22.4550 C.ar    1  UNL1        0.0433
     24 C         -66.6024  -55.9817  -20.8780 C.2     1  UNL1        0.3381
     25 O         -67.3218  -57.0028  -20.7133 O.2     1  UNL1       -0.2451
     26 O         -65.9422  -55.4486  -19.7715 O.3     1  UNL1       -0.4771
     27 H         -65.2702  -54.6962  -19.8471 H       1  UNL1        0.2954
     28 C         -62.0498  -42.5103  -22.4015 C.2     1  UNL1        0.2839
     29 O         -62.2909  -42.7447  -23.6163 O.2     1  UNL1       -0.2665
     30 N         -61.4573  -43.5237  -21.5729 N.am    1  UNL1       -0.2766
     31 H         -60.9948  -43.2228  -20.6852 H       1  UNL1        0.1553
     32 C         -64.6660  -41.6369  -20.7690 C.3     1  UNL1        0.0345
     33 C         -63.4786  -40.7930  -21.1230 C.ar    1  UNL1        0.0202
     34 C         -62.3382  -41.1783  -21.8367 C.ar    1  UNL1        0.1946
     35 O         -61.5077  -40.1567  -21.9475 O.2     1  UNL1       -0.4492
     36 C         -62.0513  -39.1283  -21.3436 C.ar    1  UNL1        0.1452
     37 C         -61.5242  -37.8477  -21.2184 C.ar    1  UNL1        0.0375
     38 C         -62.2815  -36.8869  -20.5264 C.ar    1  UNL1        0.0031
     39 C         -63.5477  -37.2181  -19.9723 C.ar    1  UNL1        0.0002
     40 C         -64.0477  -38.5340  -20.1219 C.ar    1  UNL1        0.0028
     41 C         -63.2692  -39.4624  -20.8148 C.ar    1  UNL1        0.0337
     42 C         -64.3388  -36.1945  -19.2433 C.ar    1  UNL1        0.0000
     43 C         -65.6241  -35.8318  -19.6892 C.ar    1  UNL1        0.0000
     44 C         -66.3671  -34.8683  -19.0000 C.ar    1  UNL1        0.0000
     45 C         -65.8375  -34.2568  -17.8616 C.ar    1  UNL1        0.0000
     46 C         -64.5637  -34.6076  -17.4093 C.ar    1  UNL1        0.0000
     47 C         -63.8165  -35.5710  -18.0940 C.ar    1  UNL1        0.0000
@<TRIPOS>BOND
     1    32    33    1
     2    33    34   ar
     3    34    28    1
     4    28    29    2
     5    28    30   am
     6    30     1    1
     7     1     2   ar
     8     2     3   ar
     9     3     4   ar
    10     4     7    1
    11     7     8    1
    12     8     9    1
    13     9    10    1
    14    10    16    1
    15    16    17    1
    16    17    18    1
    17    18    19   ar
    18    19    20   ar
    19    20    21   ar
    20    21    22   ar
    21    22    24    1
    22    24    25    2
    23    24    26    1
    24    22    23   ar
    25    10    11    1
    26    11    12    1
    27    12    13    1
    28    13    14    1
    29     4     5   ar
    30     5     6   ar
    31    34    35   ar
    32    35    36   ar
    33    36    37   ar
    34    37    38   ar
    35    38    39   ar
    36    39    42    1
    37    42    43   ar
    38    43    44   ar
    39    44    45   ar
    40    45    46   ar
    41    46    47   ar
    42    39    40   ar
    43    40    41   ar
    44    41    33   ar
    45     6     1   ar
    46    41    36   ar
    47    12     7    1
    48    47    42   ar
    49    23    18   ar
    50    30    31    1
    51    26    27    1
    52    14    15    1
@<TRIPOS>MOLECULE
*****
 47 52 0 0 0
SMALL
GASTEIGER

@<TRIPOS>ATOM
      1 C         -64.4858  -52.2773  -24.4745 C.ar    1  UNL1        0.0702
      2 C         -63.7318  -52.8880  -23.4587 C.ar    1  UNL1        0.0191
      3 C         -64.3030  -53.8862  -22.6686 C.ar    1  UNL1        0.0356
      4 C         -65.6290  -54.2703  -22.8980 C.ar    1  UNL1        0.1318
      5 N         -66.3314  -53.6977  -23.9120 N.ar    1  UNL1       -0.2279
      6 C         -65.7957  -52.7249  -24.6962 C.ar    1  UNL1        0.1149
      7 N         -66.2297  -55.3137  -22.1171 N.pl3   1  UNL1       -0.2924
      8 C         -66.1394  -55.2036  -20.6546 C.3     1  UNL1        0.0923
      9 C         -67.1906  -56.0804  -19.9561 C.3     1  UNL1        0.0252
     10 C         -68.5504  -55.9624  -20.6777 C.3     1  UNL1        0.0472
     11 C         -68.4645  -56.3627  -22.1799 C.3     1  UNL1        0.0261
     12 C         -67.0157  -56.4176  -22.7075 C.3     1  UNL1        0.1035
     13 C         -66.9845  -56.4676  -24.2477 C.3     1  UNL1        0.1567
     14 O         -68.0187  -55.6832  -24.7752 O.3     1  UNL1       -0.3802
     15 H         -67.9661  -55.7843  -25.7610 H       1  UNL1        0.2105
     16 C         -69.6386  -56.7591  -19.9413 C.3     1  UNL1        0.2054
     17 O         -69.3819  -56.7725  -18.5376 O.3     1  UNL1       -0.4755
     18 C         -70.1437  -56.0827  -17.5838 C.ar    1  UNL1        0.1388
     19 C         -71.1651  -55.1841  -17.9408 C.ar    1  UNL1        0.0369
     20 C         -71.8972  -54.5261  -16.9509 C.ar    1  UNL1        0.0033
     21 C         -71.6179  -54.7502  -15.6008 C.ar    1  UNL1        0.0066
     22 C         -70.5931  -55.6364  -15.2241 C.ar    1  UNL1        0.0785
     23 C         -69.8686  -56.3042  -16.2288 C.ar    1  UNL1        0.0433
     24 C         -70.2852  -55.8909  -13.7954 C.2     1  UNL1        0.3381
     25 O         -70.7970  -56.8841  -13.2132 O.2     1  UNL1       -0.2451
     26 O         -69.4258  -55.0661  -13.0703 O.3     1  UNL1       -0.4771
     27 H         -68.9010  -54.3144  -13.4980 H       1  UNL1        0.2954
     28 C         -64.1286  -49.8532  -25.1368 C.2     1  UNL1        0.2839
     29 O         -65.0229  -49.4403  -24.3505 O.2     1  UNL1       -0.2665
     30 N         -63.9267  -51.2631  -25.3267 N.am    1  UNL1       -0.2766
     31 H         -63.4135  -51.5742  -26.1823 H       1  UNL1        0.1553
     32 C         -64.1637  -49.3774  -28.3062 C.3     1  UNL1        0.0345
     33 C         -63.3252  -48.6762  -27.2803 C.ar    1  UNL1        0.0202
     34 C         -63.3125  -48.8874  -25.8969 C.ar    1  UNL1        0.1946
     35 O         -62.4410  -48.0764  -25.3239 O.2     1  UNL1       -0.4492
     36 C         -61.8869  -47.3510  -26.2643 C.ar    1  UNL1        0.1452
     37 C         -60.9136  -46.3700  -26.1101 C.ar    1  UNL1        0.0375
     38 C         -60.4534  -45.7098  -27.2625 C.ar    1  UNL1        0.0031
     39 C         -60.9700  -46.0376  -28.5453 C.ar    1  UNL1        0.0002
     40 C         -61.9608  -47.0424  -28.6582 C.ar    1  UNL1        0.0028
     41 C         -62.3945  -47.6772  -27.4933 C.ar    1  UNL1        0.0337
     42 C         -60.4760  -45.3333  -29.7557 C.ar    1  UNL1        0.0000
     43 C         -59.1382  -45.4755  -30.1706 C.ar    1  UNL1        0.0000
     44 C         -58.6761  -44.8119  -31.3114 C.ar    1  UNL1        0.0000
     45 C         -59.5410  -44.0003  -32.0489 C.ar    1  UNL1        0.0000
     46 C         -60.8703  -43.8509  -31.6475 C.ar    1  UNL1        0.0000
     47 C         -61.3380  -44.5129  -30.5081 C.ar    1  UNL1        0.0000
@<TRIPOS>BOND
     1    32    33    1
     2    33    34   ar
     3    34    28    1
     4    28    29    2
     5    28    30   am
     6    30     1    1
     7     1     2   ar
     8     2     3   ar
     9     3     4   ar
    10     4     7    1
    11     7     8    1
    12     8     9    1
    13     9    10    1
    14    10    16    1
    15    16    17    1
    16    17    18    1
    17    18    19   ar
    18    19    20   ar
    19    20    21   ar
    20    21    22   ar
    21    22    24    1
    22    24    25    2
    23    24    26    1
    24    22    23   ar
    25    10    11    1
    26    11    12    1
    27    12    13    1
    28    13    14    1
    29     4     5   ar
    30     5     6   ar
    31    34    35   ar
    32    35    36   ar
    33    36    37   ar
    34    37    38   ar
    35    38    39   ar
    36    39    42    1
    37    42    43   ar
    38    43    44   ar
    39    44    45   ar
    40    45    46   ar
    41    46    47   ar
    42    39    40   ar
    43    40    41   ar
    44    41    33   ar
    45     6     1   ar
    46    41    36   ar
    47    12     7    1
    48    47    42   ar
    49    23    18   ar
    50    30    31    1
    51    26    27    1
    52    14    15    1
@<TRIPOS>MOLECULE
*****
 47 52 0 0 0
SMALL
GASTEIGER

@<TRIPOS>ATOM
      1 C         -61.3121  -44.9905  -21.9670 C.ar    1  UNL1        0.0702
      2 C         -60.0970  -45.6892  -21.8729 C.ar    1  UNL1        0.0191
      3 C         -60.0297  -47.0286  -22.2581 C.ar    1  UNL1        0.0356
      4 C         -61.1804  -47.6653  -22.7367 C.ar    1  UNL1        0.1318
      5 N         -62.3383  -46.9628  -22.8598 N.ar    1  UNL1       -0.2279
      6 C         -62.4278  -45.6567  -22.4930 C.ar    1  UNL1        0.1149
      7 N         -61.1298  -49.0339  -23.1650 N.pl3   1  UNL1       -0.2924
      8 C         -60.4981  -50.0045  -22.2604 C.3     1  UNL1        0.0923
      9 C         -60.9201  -51.4443  -22.5930 C.3     1  UNL1        0.0252
     10 C         -62.4346  -51.5035  -22.8869 C.3     1  UNL1        0.0472
     11 C         -62.8518  -50.5635  -24.0559 C.3     1  UNL1        0.0261
     12 C         -61.7711  -49.5192  -24.4052 C.3     1  UNL1        0.1035
     13 C         -62.3421  -48.4048  -25.3039 C.3     1  UNL1        0.1567
     14 O         -63.6871  -48.1732  -24.9867 O.3     1  UNL1       -0.3802
     15 H         -64.0032  -47.4758  -25.6180 H       1  UNL1        0.2105
     16 C         -62.8948  -52.9490  -23.1315 C.3     1  UNL1        0.2054
     17 O         -64.2627  -52.9741  -23.5371 O.3     1  UNL1       -0.4755
     18 C         -65.2178  -53.8805  -23.0554 C.ar    1  UNL1        0.1388
     19 C         -64.8732  -54.9868  -22.2582 C.ar    1  UNL1        0.0369
     20 C         -65.8643  -55.8569  -21.8006 C.ar    1  UNL1        0.0033
     21 C         -67.2030  -55.6392  -22.1348 C.ar    1  UNL1        0.0066
     22 C         -67.5661  -54.5451  -22.9400 C.ar    1  UNL1        0.0785
     23 C         -66.5614  -53.6667  -23.3866 C.ar    1  UNL1        0.0433
     24 C         -68.9830  -54.2949  -23.3013 C.2     1  UNL1        0.3381
     25 O         -69.2643  -53.8156  -24.4321 O.2     1  UNL1       -0.2451
     26 O         -70.0279  -54.5899  -22.4263 O.3     1  UNL1       -0.4771
     27 H         -69.8847  -55.0697  -21.5473 H       1  UNL1        0.2954
     28 C         -62.0458  -42.6039  -22.4237 C.2     1  UNL1        0.2839
     29 O         -62.3176  -42.8509  -23.6294 O.2     1  UNL1       -0.2665
     30 N         -61.4175  -43.6031  -21.6042 N.am    1  UNL1       -0.2766
     31 H         -60.9343  -43.2895  -20.7322 H       1  UNL1        0.1553
     32 C         -64.6606  -41.7313  -20.7886 C.3     1  UNL1        0.0345
     33 C         -63.4752  -40.8863  -21.1462 C.ar    1  UNL1        0.0202
     34 C         -62.3353  -41.2712  -21.8611 C.ar    1  UNL1        0.1946
     35 O         -61.5067  -40.2484  -21.9754 O.2     1  UNL1       -0.4492
     36 C         -62.0509  -39.2197  -21.3727 C.ar    1  UNL1        0.1452
     37 C         -61.5257  -37.9381  -21.2510 C.ar    1  UNL1        0.0375
     38 C         -62.2833  -36.9770  -20.5597 C.ar    1  UNL1        0.0031
     39 C         -63.5481  -37.3090  -20.0028 C.ar    1  UNL1        0.0002
     40 C         -64.0462  -38.6261  -20.1488 C.ar    1  UNL1        0.0028
     41 C         -63.2674  -39.5547  -20.8411 C.ar    1  UNL1        0.0337
     42 C         -64.3396  -36.2852  -19.2745 C.ar    1  UNL1        0.0000
     43 C         -65.6275  -35.9280  -19.7170 C.ar    1  UNL1        0.0000
     44 C         -66.3709  -34.9643  -19.0285 C.ar    1  UNL1        0.0000
     45 C         -65.8390  -34.3471  -17.8943 C.ar    1  UNL1        0.0000
     46 C         -64.5625  -34.6925  -17.4455 C.ar    1  UNL1        0.0000
     47 C         -63.8149  -35.6561  -18.1294 C.ar    1  UNL1        0.0000
@<TRIPOS>BOND
     1    32    33    1
     2    33    34   ar
     3    34    28    1
     4    28    29    2
     5    28    30   am
     6    30     1    1
     7     1     2   ar
     8     2     3   ar
     9     3     4   ar
    10     4     7    1
    11     7     8    1
    12     8     9    1
    13     9    10    1
    14    10    16    1
    15    16    17    1
    16    17    18    1
    17    18    19   ar
    18    19    20   ar
    19    20    21   ar
    20    21    22   ar
    21    22    24    1
    22    24    25    2
    23    24    26    1
    24    22    23   ar
    25    10    11    1
    26    11    12    1
    27    12    13    1
    28    13    14    1
    29     4     5   ar
    30     5     6   ar
    31    34    35   ar
    32    35    36   ar
    33    36    37   ar
    34    37    38   ar
    35    38    39   ar
    36    39    42    1
    37    42    43   ar
    38    43    44   ar
    39    44    45   ar
    40    45    46   ar
    41    46    47   ar
    42    39    40   ar
    43    40    41   ar
    44    41    33   ar
    45     6     1   ar
    46    41    36   ar
    47    12     7    1
    48    47    42   ar
    49    23    18   ar
    50    30    31    1
    51    26    27    1
    52    14    15    1
