@<TRIPOS>MOLECULE
*****
 52 57 0 0 0
SMALL
GASTEIGER

@<TRIPOS>ATOM
      1 N           9.9177   77.0703   26.1153 N.am    1  UNL1       -0.2945
      2 C           9.8661   76.0751   25.0791 C.2     1  UNL1        0.2483
      3 O          10.9152   75.4539   24.7554 O.2     1  UNL1       -0.2701
      4 H           9.1273   77.7492   26.1841 H       1  UNL1        0.1501
      5 C           8.5936   75.7789   24.3754 C.ar    1  UNL1        0.0808
      6 C           8.4484   76.0833   23.0100 C.ar    1  UNL1        0.0080
      7 C           7.2516   75.8112   22.3433 C.ar    1  UNL1        0.0148
      8 C           6.1723   75.2341   23.0266 C.ar    1  UNL1        0.0502
      9 C           6.3094   74.9324   24.3904 C.ar    1  UNL1        0.0443
     10 C           7.5053   75.2044   25.0625 C.ar    1  UNL1        0.1457
     11 F           7.6014   74.8842   26.3781 F       1  UNL1       -0.2040
     12 N           4.9432   74.9521   22.3310 N.pl3   1  UNL1       -0.3040
     13 C           4.8278   73.7730   21.4661 C.3     1  UNL1        0.1123
     14 C           4.0050   74.1086   20.2192 C.3     1  UNL1        0.1136
     15 N           2.7778   74.8289   20.5890 N.pl3   1  UNL1       -0.2897
     16 C           2.9044   76.0000   21.4667 C.3     1  UNL1        0.1136
     17 C           3.7055   75.6383   22.7155 C.3     1  UNL1        0.1123
     18 C           1.5350   74.5907   19.8975 C.ar    1  UNL1        0.1318
     19 C           0.8465   75.6313   19.2527 C.ar    1  UNL1        0.0343
     20 C          -0.3550   75.3604   18.5963 C.ar    1  UNL1        0.0083
     21 C          -0.8854   74.0616   18.5997 C.ar    1  UNL1        0.0906
     22 C          -0.1581   73.0466   19.2404 C.ar    1  UNL1        0.1041
     23 N           1.0113   73.3339   19.8707 N.ar    1  UNL1       -0.2292
     24 C          -2.1561   73.7458   17.8527 C.3     1  UNL1        0.4200
     25 F          -1.9657   73.8767   16.4879 F       1  UNL1       -0.1658
     26 F          -3.1494   74.6189   18.2550 F       1  UNL1       -0.1658
     27 F          -2.5642   72.4485   18.1105 F       1  UNL1       -0.1658
     28 C          11.1344   77.3463   26.8901 C.3     1  UNL1        0.1535
     29 C          12.1097   78.1675   26.0825 C.2     1  UNL1        0.2443
     30 O          12.0558   79.4275   26.1208 O.2     1  UNL1       -0.2730
     31 N          13.0886   77.5062   25.2651 N.am    1  UNL1       -0.2825
     32 H          12.9367   76.4946   25.0502 H       1  UNL1        0.1549
     33 C          14.2082   78.1649   24.6473 C.ar    1  UNL1        0.0535
     34 C          14.8158   77.5814   23.5270 C.ar    1  UNL1        0.0353
     35 C          15.9193   78.2014   22.9361 C.ar    1  UNL1        0.1002
     36 N          16.4117   79.3566   23.4560 N.ar    1  UNL1       -0.2422
     37 C          15.8570   79.9365   24.5529 C.ar    1  UNL1        0.1002
     38 C          14.7511   79.3502   25.1735 C.ar    1  UNL1        0.0353
     39 C          10.7899   78.0284   28.2296 C.3     1  UNL1        0.0569
     40 C           7.0229   75.2954   29.9625 C.ar    1  UNL1        0.0228
     41 C           7.7011   74.0559   29.9696 C.ar    1  UNL1       -0.0004
     42 C           9.0468   73.9691   29.5535 C.ar    1  UNL1       -0.0002
     43 C           9.7392   75.1165   29.1339 C.ar    1  UNL1        0.0011
     44 C           9.0544   76.3311   29.1418 C.ar    1  UNL1        0.0129
     45 C           9.4589   77.6044   28.7893 C.ar    1  UNL1       -0.0017
     46 C           8.3555   78.4224   29.0060 C.ar    1  UNL1        0.0681
     47 N           7.3132   77.6970   29.4693 N.ar    1  UNL1       -0.3524
     48 C           7.7455   76.4234   29.5458 C.ar    1  UNL1        0.0546
     49 H           6.3663   78.0632   29.7125 H       1  UNL1        0.1660
     50 C           5.5965   75.4012   30.4224 C.3     1  UNL1        0.1701
     51 C           3.8791   76.9329   30.3542 C.3     1  UNL1        0.1746
     52 O           4.9238   76.3428   29.6141 O.3     1  UNL1       -0.3463
@<TRIPOS>BOND
     1    51    52    1
     2    52    50    1
     3    50    40    1
     4    40    41   ar
     5    41    42   ar
     6    42    43   ar
     7    43    44   ar
     8    44    45   ar
     9    45    39    1
    10    39    28    1
    11    28     1    1
    12     1     2   am
    13     2     3    2
    14     2     5    1
    15     5     6   ar
    16     6     7   ar
    17     7     8   ar
    18     8    12    1
    19    12    13    1
    20    13    14    1
    21    14    15    1
    22    15    18    1
    23    18    19   ar
    24    19    20   ar
    25    20    21   ar
    26    21    24    1
    27    24    25    1
    28    24    26    1
    29    24    27    1
    30    21    22   ar
    31    22    23   ar
    32    15    16    1
    33    16    17    1
    34     8     9   ar
    35     9    10   ar
    36    10    11    1
    37    28    29    1
    38    29    30    2
    39    29    31   am
    40    31    33    1
    41    33    34   ar
    42    34    35   ar
    43    35    36   ar
    44    36    37   ar
    45    37    38   ar
    46    45    46   ar
    47    46    47   ar
    48    47    48   ar
    49    48    40   ar
    50    48    44   ar
    51    10     5   ar
    52    38    33   ar
    53    17    12    1
    54    23    18   ar
    55     1     4    1
    56    31    32    1
    57    47    49    1
@<TRIPOS>MOLECULE
*****
 52 57 0 0 0
SMALL
GASTEIGER

@<TRIPOS>ATOM
      1 N           7.7369   75.2924   25.6778 N.am    1  UNL1       -0.2945
      2 C           8.7878   75.8169   26.5067 C.2     1  UNL1        0.2483
      3 O           9.0362   75.2765   27.6191 O.2     1  UNL1       -0.2701
      4 H           7.3708   75.8956   24.9082 H       1  UNL1        0.1501
      5 C           9.5766   76.9972   26.0742 C.ar    1  UNL1        0.0808
      6 C          10.9665   76.8935   25.8855 C.ar    1  UNL1        0.0080
      7 C          11.7150   78.0019   25.4832 C.ar    1  UNL1        0.0148
      8 C          11.0928   79.2390   25.2654 C.ar    1  UNL1        0.0502
      9 C           9.7068   79.3501   25.4566 C.ar    1  UNL1        0.0443
     10 C           8.9535   78.2433   25.8608 C.ar    1  UNL1        0.1457
     11 F           7.6135   78.3897   26.0207 F       1  UNL1       -0.2040
     12 N          11.8708   80.3761   24.8460 N.pl3   1  UNL1       -0.3040
     13 C          13.3365   80.3202   24.8478 C.3     1  UNL1        0.1123
     14 C          13.9176   81.6606   25.3060 C.3     1  UNL1        0.1136
     15 N          13.2600   82.7742   24.6069 N.pl3   1  UNL1       -0.2897
     16 C          11.7916   82.8123   24.6001 C.3     1  UNL1        0.1136
     17 C          11.2322   81.4762   24.1161 C.3     1  UNL1        0.1123
     18 C          14.0024   83.9398   24.1947 C.ar    1  UNL1        0.1318
     19 C          14.0381   85.1005   24.9847 C.ar    1  UNL1        0.0343
     20 C          14.7663   86.2088   24.5495 C.ar    1  UNL1        0.0083
     21 C          15.4397   86.1737   23.3193 C.ar    1  UNL1        0.0906
     22 C          15.3936   84.9892   22.5680 C.ar    1  UNL1        0.1041
     23 N          14.6801   83.9216   23.0136 N.ar    1  UNL1       -0.2292
     24 C          16.2701   87.3455   22.8613 C.3     1  UNL1        0.4200
     25 F          15.6400   88.5396   23.1664 F       1  UNL1       -0.1658
     26 F          16.4508   87.2680   21.4931 F       1  UNL1       -0.1658
     27 F          17.5078   87.3384   23.4810 F       1  UNL1       -0.1658
     28 C           6.9791   74.0839   26.0278 C.3     1  UNL1        0.1535
     29 C           6.1346   74.3176   27.2566 C.2     1  UNL1        0.2443
     30 O           5.6242   73.3379   27.8662 O.2     1  UNL1       -0.2730
     31 N           5.9086   75.6590   27.7185 N.am    1  UNL1       -0.2825
     32 H           6.1137   76.4406   27.0554 H       1  UNL1        0.1549
     33 C           5.3312   75.9916   28.9932 C.ar    1  UNL1        0.0535
     34 C           4.0952   76.6515   29.0363 C.ar    1  UNL1        0.0353
     35 C           3.5394   77.0007   30.2693 C.ar    1  UNL1        0.1002
     36 N           4.2025   76.7168   31.4211 N.ar    1  UNL1       -0.2422
     37 C           5.4114   76.0956   31.4116 C.ar    1  UNL1        0.1002
     38 C           6.0021   75.7277   30.2002 C.ar    1  UNL1        0.0353
     39 C           6.1268   73.6052   24.8351 C.3     1  UNL1        0.0569
     40 C           4.0707   77.5064   22.5513 C.ar    1  UNL1        0.0228
     41 C           3.1668   77.8497   23.5815 C.ar    1  UNL1       -0.0004
     42 C           3.1227   77.1040   24.7788 C.ar    1  UNL1       -0.0002
     43 C           3.9846   76.0121   24.9713 C.ar    1  UNL1        0.0011
     44 C           4.8744   75.6946   23.9459 C.ar    1  UNL1        0.0129
     45 C           5.8236   74.6958   23.8434 C.ar    1  UNL1       -0.0017
     46 C           6.4161   74.8672   22.5973 C.ar    1  UNL1        0.0681
     47 N           5.8644   75.9193   21.9523 N.ar    1  UNL1       -0.3524
     48 C           4.9235   76.4159   22.7787 C.ar    1  UNL1        0.0546
     49 H           6.1234   76.2653   21.0020 H       1  UNL1        0.1660
     50 C           4.1387   78.3063   21.2813 C.3     1  UNL1        0.1701
     51 C           5.5538   78.5253   19.4787 C.3     1  UNL1        0.1746
     52 O           5.4881   78.4181   20.8828 O.3     1  UNL1       -0.3463
@<TRIPOS>BOND
     1    51    52    1
     2    52    50    1
     3    50    40    1
     4    40    41   ar
     5    41    42   ar
     6    42    43   ar
     7    43    44   ar
     8    44    45   ar
     9    45    39    1
    10    39    28    1
    11    28     1    1
    12     1     2   am
    13     2     3    2
    14     2     5    1
    15     5     6   ar
    16     6     7   ar
    17     7     8   ar
    18     8    12    1
    19    12    13    1
    20    13    14    1
    21    14    15    1
    22    15    18    1
    23    18    19   ar
    24    19    20   ar
    25    20    21   ar
    26    21    24    1
    27    24    25    1
    28    24    26    1
    29    24    27    1
    30    21    22   ar
    31    22    23   ar
    32    15    16    1
    33    16    17    1
    34     8     9   ar
    35     9    10   ar
    36    10    11    1
    37    28    29    1
    38    29    30    2
    39    29    31   am
    40    31    33    1
    41    33    34   ar
    42    34    35   ar
    43    35    36   ar
    44    36    37   ar
    45    37    38   ar
    46    45    46   ar
    47    46    47   ar
    48    47    48   ar
    49    48    40   ar
    50    48    44   ar
    51    10     5   ar
    52    38    33   ar
    53    17    12    1
    54    23    18   ar
    55     1     4    1
    56    31    32    1
    57    47    49    1
@<TRIPOS>MOLECULE
*****
 52 57 0 0 0
SMALL
GASTEIGER

@<TRIPOS>ATOM
      1 N           7.7805   75.2329   25.7729 N.am    1  UNL1       -0.2945
      2 C           8.8204   75.7790   26.6018 C.2     1  UNL1        0.2483
      3 O           9.0633   75.2589   27.7250 O.2     1  UNL1       -0.2701
      4 H           7.4166   75.8206   24.9904 H       1  UNL1        0.1501
      5 C           9.6040   76.9579   26.1565 C.ar    1  UNL1        0.0808
      6 C          10.9939   76.8575   25.9660 C.ar    1  UNL1        0.0080
      7 C          11.7376   77.9647   25.5517 C.ar    1  UNL1        0.0148
      8 C          11.1104   79.1974   25.3234 C.ar    1  UNL1        0.0502
      9 C           9.7244   79.3053   25.5163 C.ar    1  UNL1        0.0443
     10 C           8.9760   78.1998   25.9326 C.ar    1  UNL1        0.1457
     11 F           7.6358   78.3428   26.0938 F       1  UNL1       -0.2040
     12 N          11.8834   80.3333   24.8916 N.pl3   1  UNL1       -0.3040
     13 C          13.3493   80.2811   24.8867 C.3     1  UNL1        0.1123
     14 C          13.9292   81.6265   25.3319 C.3     1  UNL1        0.1136
     15 N          13.2653   82.7331   24.6276 N.pl3   1  UNL1       -0.2897
     16 C          11.7968   82.7673   24.6276 C.3     1  UNL1        0.1136
     17 C          11.2385   81.4262   24.1565 C.3     1  UNL1        0.1123
     18 C          14.0027   83.8974   24.2030 C.ar    1  UNL1        0.1318
     19 C          14.0529   85.0583   24.9918 C.ar    1  UNL1        0.0343
     20 C          14.7756   86.1653   24.5445 C.ar    1  UNL1        0.0083
     21 C          15.4290   86.1287   23.3036 C.ar    1  UNL1        0.0906
     22 C          15.3690   84.9440   22.5536 C.ar    1  UNL1        0.1041
     23 N          14.6612   83.8777   23.0111 N.ar    1  UNL1       -0.2292
     24 C          16.2537   87.2991   22.8317 C.3     1  UNL1        0.4200
     25 F          16.5208   87.1940   21.4776 F       1  UNL1       -0.1658
     26 F          17.4486   87.3232   23.5262 F       1  UNL1       -0.1658
     27 F          15.5812   88.4893   23.0493 F       1  UNL1       -0.1658
     28 C           7.0288   74.0246   26.1364 C.3     1  UNL1        0.1535
     29 C           6.1319   74.2873   27.3215 C.2     1  UNL1        0.2443
     30 O           5.5221   73.3312   27.8745 O.2     1  UNL1       -0.2730
     31 N           5.9704   75.6300   27.8060 N.am    1  UNL1       -0.2825
     32 H           6.2659   76.4108   27.1770 H       1  UNL1        0.1549
     33 C           5.3435   75.9720   29.0547 C.ar    1  UNL1        0.0535
     34 C           4.0542   76.5219   29.0481 C.ar    1  UNL1        0.0353
     35 C           3.4481   76.8802   30.2546 C.ar    1  UNL1        0.1002
     36 N           4.1128   76.7118   31.4280 N.ar    1  UNL1       -0.2422
     37 C           5.3711   76.1996   31.4658 C.ar    1  UNL1        0.1002
     38 C           6.0132   75.8267   30.2823 C.ar    1  UNL1        0.0353
     39 C           6.2329   73.4887   24.9292 C.3     1  UNL1        0.0569
     40 C           5.3748   76.0844   20.7833 C.ar    1  UNL1        0.0228
     41 C           5.7764   75.0841   19.8700 C.ar    1  UNL1       -0.0004
     42 C           6.2280   73.8286   20.3299 C.ar    1  UNL1       -0.0002
     43 C           6.2768   73.5480   21.7050 C.ar    1  UNL1        0.0011
     44 C           5.8688   74.5458   22.5894 C.ar    1  UNL1        0.0129
     45 C           5.8076   74.5671   23.9696 C.ar    1  UNL1       -0.0017
     46 C           5.3184   75.8248   24.3044 C.ar    1  UNL1        0.0681
     47 N           5.0865   76.5538   23.1899 N.ar    1  UNL1       -0.3524
     48 C           5.4277   75.7692   22.1493 C.ar    1  UNL1        0.0546
     49 H           4.7189   77.5304   23.1568 H       1  UNL1        0.1660
     50 C           4.8739   77.4169   20.3027 C.3     1  UNL1        0.1701
     51 C           6.6255   78.8994   20.1170 C.3     1  UNL1        0.1746
     52 O           5.8250   77.9718   19.4196 O.3     1  UNL1       -0.3463
@<TRIPOS>BOND
     1    51    52    1
     2    52    50    1
     3    50    40    1
     4    40    41   ar
     5    41    42   ar
     6    42    43   ar
     7    43    44   ar
     8    44    45   ar
     9    45    39    1
    10    39    28    1
    11    28     1    1
    12     1     2   am
    13     2     3    2
    14     2     5    1
    15     5     6   ar
    16     6     7   ar
    17     7     8   ar
    18     8    12    1
    19    12    13    1
    20    13    14    1
    21    14    15    1
    22    15    18    1
    23    18    19   ar
    24    19    20   ar
    25    20    21   ar
    26    21    24    1
    27    24    25    1
    28    24    26    1
    29    24    27    1
    30    21    22   ar
    31    22    23   ar
    32    15    16    1
    33    16    17    1
    34     8     9   ar
    35     9    10   ar
    36    10    11    1
    37    28    29    1
    38    29    30    2
    39    29    31   am
    40    31    33    1
    41    33    34   ar
    42    34    35   ar
    43    35    36   ar
    44    36    37   ar
    45    37    38   ar
    46    45    46   ar
    47    46    47   ar
    48    47    48   ar
    49    48    40   ar
    50    48    44   ar
    51    10     5   ar
    52    38    33   ar
    53    17    12    1
    54    23    18   ar
    55     1     4    1
    56    31    32    1
    57    47    49    1
@<TRIPOS>MOLECULE
*****
 52 57 0 0 0
SMALL
GASTEIGER

@<TRIPOS>ATOM
      1 N          10.0520   76.6222   26.0026 N.am    1  UNL1       -0.2945
      2 C          10.0164   75.8594   24.7846 C.2     1  UNL1        0.2483
      3 O          11.0910   75.4249   24.2867 O.2     1  UNL1       -0.2701
      4 H           9.2120   77.1906   26.2508 H       1  UNL1        0.1501
      5 C           8.7294   75.5879   24.0976 C.ar    1  UNL1        0.0808
      6 C           7.7387   76.5835   24.0237 C.ar    1  UNL1        0.0080
      7 C           6.5234   76.3325   23.3827 C.ar    1  UNL1        0.0148
      8 C           6.2690   75.0804   22.8060 C.ar    1  UNL1        0.0502
      9 C           7.2518   74.0812   22.8806 C.ar    1  UNL1        0.0443
     10 C           8.4695   74.3275   23.5227 C.ar    1  UNL1        0.1457
     11 F           9.3987   73.3387   23.5604 F       1  UNL1       -0.2040
     12 N           5.0154   74.8309   22.1425 N.pl3   1  UNL1       -0.3040
     13 C           4.8670   73.6926   21.2293 C.3     1  UNL1        0.1123
     14 C           4.0010   74.0851   20.0292 C.3     1  UNL1        0.1136
     15 N           2.7891   74.7880   20.4752 N.pl3   1  UNL1       -0.2897
     16 C           2.9491   75.9177   21.4004 C.3     1  UNL1        0.1136
     17 C           3.7935   75.4990   22.6020 C.3     1  UNL1        0.1123
     18 C           1.5220   74.5820   19.8183 C.ar    1  UNL1        0.1318
     19 C           0.8199   75.6489   19.2339 C.ar    1  UNL1        0.0343
     20 C          -0.4050   75.4087   18.6095 C.ar    1  UNL1        0.0083
     21 C          -0.9445   74.1140   18.5856 C.ar    1  UNL1        0.0906
     22 C          -0.2037   73.0725   19.1654 C.ar    1  UNL1        0.1041
     23 N           0.9884   73.3302   19.7654 N.ar    1  UNL1       -0.2292
     24 C          -2.2420   73.8325   17.8715 C.3     1  UNL1        0.4200
     25 F          -2.6887   72.5537   18.1562 F       1  UNL1       -0.1658
     26 F          -2.0454   73.9481   16.5081 F       1  UNL1       -0.1658
     27 F          -3.2198   74.7302   18.2640 F       1  UNL1       -0.1658
     28 C          11.2903   76.8538   26.7575 C.3     1  UNL1        0.1535
     29 C          12.1929   77.8163   26.0248 C.2     1  UNL1        0.2443
     30 O          12.0425   79.0600   26.1750 O.2     1  UNL1       -0.2730
     31 N          13.2131   77.3077   25.1506 N.am    1  UNL1       -0.2825
     32 H          13.1377   76.3104   24.8468 H       1  UNL1        0.1549
     33 C          14.2736   78.1031   24.5923 C.ar    1  UNL1        0.0535
     34 C          14.5099   79.3877   25.1012 C.ar    1  UNL1        0.0353
     35 C          15.5212   80.1764   24.5480 C.ar    1  UNL1        0.1002
     36 N          16.2614   79.7065   23.5095 N.ar    1  UNL1       -0.2422
     37 C          16.0437   78.4733   22.9812 C.ar    1  UNL1        0.1002
     38 C          15.0432   77.6514   23.5059 C.ar    1  UNL1        0.0353
     39 C          10.9793   77.3424   28.1867 C.3     1  UNL1        0.0569
     40 C           6.8045   76.4360   30.7189 C.ar    1  UNL1        0.0228
     41 C           6.5074   77.7786   31.0433 C.ar    1  UNL1       -0.0004
     42 C           7.3493   78.8265   30.6135 C.ar    1  UNL1       -0.0002
     43 C           8.4933   78.5533   29.8463 C.ar    1  UNL1        0.0011
     44 C           8.7646   77.2227   29.5303 C.ar    1  UNL1        0.0129
     45 C           9.7951   76.6522   28.8080 C.ar    1  UNL1       -0.0017
     46 C           9.5469   75.2842   28.8158 C.ar    1  UNL1        0.0681
     47 N           8.4186   75.0125   29.5091 N.ar    1  UNL1       -0.3524
     48 C           7.9498   76.1981   29.9444 C.ar    1  UNL1        0.0546
     49 H           8.0058   74.0672   29.6699 H       1  UNL1        0.1660
     50 C           5.9037   75.3154   31.1551 C.3     1  UNL1        0.1701
     51 C           4.5435   74.1194   29.7340 C.3     1  UNL1        0.1746
     52 O           5.8756   74.3310   30.1441 O.3     1  UNL1       -0.3463
@<TRIPOS>BOND
     1    51    52    1
     2    52    50    1
     3    50    40    1
     4    40    41   ar
     5    41    42   ar
     6    42    43   ar
     7    43    44   ar
     8    44    45   ar
     9    45    39    1
    10    39    28    1
    11    28     1    1
    12     1     2   am
    13     2     3    2
    14     2     5    1
    15     5     6   ar
    16     6     7   ar
    17     7     8   ar
    18     8    12    1
    19    12    13    1
    20    13    14    1
    21    14    15    1
    22    15    18    1
    23    18    19   ar
    24    19    20   ar
    25    20    21   ar
    26    21    24    1
    27    24    25    1
    28    24    26    1
    29    24    27    1
    30    21    22   ar
    31    22    23   ar
    32    15    16    1
    33    16    17    1
    34     8     9   ar
    35     9    10   ar
    36    10    11    1
    37    28    29    1
    38    29    30    2
    39    29    31   am
    40    31    33    1
    41    33    34   ar
    42    34    35   ar
    43    35    36   ar
    44    36    37   ar
    45    37    38   ar
    46    45    46   ar
    47    46    47   ar
    48    47    48   ar
    49    48    40   ar
    50    48    44   ar
    51    10     5   ar
    52    38    33   ar
    53    17    12    1
    54    23    18   ar
    55     1     4    1
    56    31    32    1
    57    47    49    1
@<TRIPOS>MOLECULE
*****
 52 57 0 0 0
SMALL
GASTEIGER

@<TRIPOS>ATOM
      1 N          13.3112   83.3774   24.0094 N.am    1  UNL1       -0.2945
      2 C          13.6642   82.0706   24.4934 C.2     1  UNL1        0.2483
      3 O          14.8784   81.7355   24.5617 O.2     1  UNL1       -0.2701
      4 H          12.3245   83.5400   23.7091 H       1  UNL1        0.1501
      5 C          12.6144   81.1044   24.9017 C.ar    1  UNL1        0.0808
      6 C          12.9055   79.7309   24.9852 C.ar    1  UNL1        0.0080
      7 C          11.9204   78.8162   25.3643 C.ar    1  UNL1        0.0148
      8 C          10.6223   79.2524   25.6632 C.ar    1  UNL1        0.0502
      9 C          10.3243   80.6212   25.5771 C.ar    1  UNL1        0.0443
     10 C          11.3069   81.5406   25.1965 C.ar    1  UNL1        0.1457
     11 F          10.9812   82.8571   25.1393 F       1  UNL1       -0.2040
     12 N           9.6133   78.3035   26.0581 N.pl3   1  UNL1       -0.3040
     13 C           8.2903   78.7594   26.4978 C.3     1  UNL1        0.1123
     14 C           7.7897   77.8939   27.6575 C.3     1  UNL1        0.1136
     15 N           7.9739   76.4673   27.3538 N.pl3   1  UNL1       -0.2897
     16 C           9.2995   76.0249   26.9012 C.3     1  UNL1        0.1136
     17 C           9.7694   76.8830   25.7286 C.3     1  UNL1        0.1123
     18 C           6.9968   75.4860   27.7561 C.ar    1  UNL1        0.1318
     19 C           6.8432   74.2781   27.0561 C.ar    1  UNL1        0.0343
     20 C           5.8842   73.3550   27.4758 C.ar    1  UNL1        0.0083
     21 C           5.0616   73.6406   28.5757 C.ar    1  UNL1        0.0906
     22 C           5.2585   74.8507   29.2586 C.ar    1  UNL1        0.1041
     23 N           6.2007   75.7331   28.8330 N.ar    1  UNL1       -0.2292
     24 C           4.0564   72.6313   29.0693 C.3     1  UNL1        0.4200
     25 F           4.0088   72.6259   30.4527 F       1  UNL1       -0.1658
     26 F           4.4194   71.3734   28.6259 F       1  UNL1       -0.1658
     27 F           2.7913   72.9297   28.5936 F       1  UNL1       -0.1658
     28 C          14.3144   84.3930   23.6640 C.3     1  UNL1        0.1535
     29 C          14.8163   84.1933   22.2547 C.2     1  UNL1        0.2443
     30 O          15.7433   83.3684   22.0268 O.2     1  UNL1       -0.2730
     31 N          14.2401   84.9544   21.1811 N.am    1  UNL1       -0.2825
     32 H          13.6795   85.7999   21.4332 H       1  UNL1        0.1549
     33 C          14.4622   84.6855   19.7857 C.ar    1  UNL1        0.0535
     34 C          15.6587   84.0745   19.3858 C.ar    1  UNL1        0.0353
     35 C          15.8934   83.8326   18.0302 C.ar    1  UNL1        0.1002
     36 N          14.9726   84.2038   17.1020 N.ar    1  UNL1       -0.2422
     37 C          13.8119   84.8157   17.4562 C.ar    1  UNL1        0.1002
     38 C          13.5369   85.0747   18.8013 C.ar    1  UNL1        0.0353
     39 C          13.7516   85.8137   23.8708 C.3     1  UNL1        0.0569
     40 C          16.1639   88.4794   27.2968 C.ar    1  UNL1        0.0228
     41 C          15.4866   87.9614   28.4234 C.ar    1  UNL1       -0.0004
     42 C          14.4815   86.9824   28.2720 C.ar    1  UNL1       -0.0002
     43 C          14.1435   86.4982   26.9979 C.ar    1  UNL1        0.0011
     44 C          14.8290   87.0165   25.9000 C.ar    1  UNL1        0.0129
     45 C          14.7193   86.7451   24.5496 C.ar    1  UNL1       -0.0017
     46 C          15.6592   87.5580   23.9257 C.ar    1  UNL1        0.0681
     47 N          16.3222   88.3013   24.8396 N.ar    1  UNL1       -0.3524
     48 C          15.8084   87.9685   26.0396 C.ar    1  UNL1        0.0546
     49 H          17.0779   88.9936   24.6408 H       1  UNL1        0.1660
     50 C          17.2490   89.5073   27.4497 C.3     1  UNL1        0.1701
     51 C          19.4471   89.4225   26.7702 C.3     1  UNL1        0.1746
     52 O          18.1074   89.4361   26.3315 O.3     1  UNL1       -0.3463
@<TRIPOS>BOND
     1    51    52    1
     2    52    50    1
     3    50    40    1
     4    40    41   ar
     5    41    42   ar
     6    42    43   ar
     7    43    44   ar
     8    44    45   ar
     9    45    39    1
    10    39    28    1
    11    28     1    1
    12     1     2   am
    13     2     3    2
    14     2     5    1
    15     5     6   ar
    16     6     7   ar
    17     7     8   ar
    18     8    12    1
    19    12    13    1
    20    13    14    1
    21    14    15    1
    22    15    18    1
    23    18    19   ar
    24    19    20   ar
    25    20    21   ar
    26    21    24    1
    27    24    25    1
    28    24    26    1
    29    24    27    1
    30    21    22   ar
    31    22    23   ar
    32    15    16    1
    33    16    17    1
    34     8     9   ar
    35     9    10   ar
    36    10    11    1
    37    28    29    1
    38    29    30    2
    39    29    31   am
    40    31    33    1
    41    33    34   ar
    42    34    35   ar
    43    35    36   ar
    44    36    37   ar
    45    37    38   ar
    46    45    46   ar
    47    46    47   ar
    48    47    48   ar
    49    48    40   ar
    50    48    44   ar
    51    10     5   ar
    52    38    33   ar
    53    17    12    1
    54    23    18   ar
    55     1     4    1
    56    31    32    1
    57    47    49    1
@<TRIPOS>MOLECULE
*****
 52 57 0 0 0
SMALL
GASTEIGER

@<TRIPOS>ATOM
      1 N          12.7089   84.5816   24.2723 N.am    1  UNL1       -0.2945
      2 C          13.2183   83.2374   24.2855 C.2     1  UNL1        0.2483
      3 O          14.3873   83.0071   23.8711 O.2     1  UNL1       -0.2701
      4 H          11.6772   84.7167   24.3590 H       1  UNL1        0.1501
      5 C          12.3789   82.1134   24.7694 C.ar    1  UNL1        0.0808
      6 C          11.0034   82.2996   24.9970 C.ar    1  UNL1        0.0080
      7 C          10.2091   81.2469   25.4570 C.ar    1  UNL1        0.0148
      8 C          10.7716   79.9871   25.7046 C.ar    1  UNL1        0.0502
      9 C          12.1445   79.7963   25.4840 C.ar    1  UNL1        0.0443
     10 C          12.9441   80.8478   25.0249 C.ar    1  UNL1        0.1457
     11 F          14.2647   80.6176   24.8109 F       1  UNL1       -0.2040
     12 N           9.9450   78.9054   26.1742 N.pl3   1  UNL1       -0.3040
     13 C           9.5305   77.8323   25.2640 C.3     1  UNL1        0.1123
     14 C           8.0876   77.4141   25.5596 C.3     1  UNL1        0.1136
     15 N           7.8914   77.2223   27.0039 N.pl3   1  UNL1       -0.2897
     16 C           8.3228   78.2979   27.9066 C.3     1  UNL1        0.1136
     17 C           9.7713   78.6826   27.6132 C.3     1  UNL1        0.1123
     18 C           7.0503   76.1656   27.5095 C.ar    1  UNL1        0.1318
     19 C           7.5619   75.1632   28.3499 C.ar    1  UNL1        0.0343
     20 C           6.7157   74.1561   28.8163 C.ar    1  UNL1        0.0083
     21 C           5.3674   74.1301   28.4298 C.ar    1  UNL1        0.0906
     22 C           4.8913   75.1595   27.6031 C.ar    1  UNL1        0.1041
     23 N           5.7336   76.1314   27.1636 N.ar    1  UNL1       -0.2292
     24 C           4.4318   73.0768   28.9661 C.3     1  UNL1        0.4200
     25 F           4.4576   73.0595   30.3500 F       1  UNL1       -0.1658
     26 F           4.8218   71.8381   28.4926 F       1  UNL1       -0.1658
     27 F           3.1321   73.3261   28.5603 F       1  UNL1       -0.1658
     28 C          13.5253   85.7353   23.8730 C.3     1  UNL1        0.1535
     29 C          14.2923   86.2831   25.0517 C.2     1  UNL1        0.2443
     30 O          14.4545   85.5741   26.0827 O.2     1  UNL1       -0.2730
     31 N          14.8246   87.6162   24.9951 N.am    1  UNL1       -0.2825
     32 H          14.4515   88.2559   24.2574 H       1  UNL1        0.1549
     33 C          15.7633   88.1559   25.9420 C.ar    1  UNL1        0.0535
     34 C          15.2941   88.6624   27.1619 C.ar    1  UNL1        0.0353
     35 C          16.1960   89.2112   28.0765 C.ar    1  UNL1        0.1002
     36 N          17.5205   89.2691   27.7772 N.ar    1  UNL1       -0.2422
     37 C          18.0037   88.8044   26.5949 C.ar    1  UNL1        0.1002
     38 C          17.1362   88.2462   25.6526 C.ar    1  UNL1        0.0353
     39 C          14.4637   85.3668   22.7061 C.3     1  UNL1        0.0569
     40 C          14.0678   86.7716   17.9593 C.ar    1  UNL1        0.0228
     41 C          14.3519   85.5124   17.3849 C.ar    1  UNL1       -0.0004
     42 C          14.6174   84.3921   18.2010 C.ar    1  UNL1       -0.0002
     43 C          14.5940   84.5074   19.6004 C.ar    1  UNL1        0.0011
     44 C          14.3038   85.7567   20.1474 C.ar    1  UNL1        0.0129
     45 C          14.2124   86.1743   21.4613 C.ar    1  UNL1       -0.0017
     46 C          13.8905   87.5257   21.4043 C.ar    1  UNL1        0.0681
     47 N          13.7872   87.9332   20.1196 N.ar    1  UNL1       -0.3524
     48 C          14.0439   86.8509   19.3597 C.ar    1  UNL1        0.0546
     49 H          13.5565   88.8983   19.7951 H       1  UNL1        0.1660
     50 C          13.7645   87.9654   17.0989 C.3     1  UNL1        0.1701
     51 C          14.7931   88.7322   15.1873 C.3     1  UNL1        0.1746
     52 O          14.0835   87.6566   15.7591 O.3     1  UNL1       -0.3463
@<TRIPOS>BOND
     1    51    52    1
     2    52    50    1
     3    50    40    1
     4    40    41   ar
     5    41    42   ar
     6    42    43   ar
     7    43    44   ar
     8    44    45   ar
     9    45    39    1
    10    39    28    1
    11    28     1    1
    12     1     2   am
    13     2     3    2
    14     2     5    1
    15     5     6   ar
    16     6     7   ar
    17     7     8   ar
    18     8    12    1
    19    12    13    1
    20    13    14    1
    21    14    15    1
    22    15    18    1
    23    18    19   ar
    24    19    20   ar
    25    20    21   ar
    26    21    24    1
    27    24    25    1
    28    24    26    1
    29    24    27    1
    30    21    22   ar
    31    22    23   ar
    32    15    16    1
    33    16    17    1
    34     8     9   ar
    35     9    10   ar
    36    10    11    1
    37    28    29    1
    38    29    30    2
    39    29    31   am
    40    31    33    1
    41    33    34   ar
    42    34    35   ar
    43    35    36   ar
    44    36    37   ar
    45    37    38   ar
    46    45    46   ar
    47    46    47   ar
    48    47    48   ar
    49    48    40   ar
    50    48    44   ar
    51    10     5   ar
    52    38    33   ar
    53    17    12    1
    54    23    18   ar
    55     1     4    1
    56    31    32    1
    57    47    49    1
@<TRIPOS>MOLECULE
*****
 52 57 0 0 0
SMALL
GASTEIGER

@<TRIPOS>ATOM
      1 N           7.8237   75.5314   26.5268 N.am    1  UNL1       -0.2945
      2 C           9.0880   75.9151   27.0935 C.2     1  UNL1        0.2483
      3 O           9.5633   75.2622   28.0625 O.2     1  UNL1       -0.2701
      4 H           7.3261   76.2227   25.9229 H       1  UNL1        0.1501
      5 C           9.8355   77.0805   26.5595 C.ar    1  UNL1        0.0808
      6 C          11.1696   76.9372   26.1378 C.ar    1  UNL1        0.0080
      7 C          11.8800   78.0314   25.6388 C.ar    1  UNL1        0.0148
      8 C          11.2753   79.2933   25.5547 C.ar    1  UNL1        0.0502
      9 C           9.9458   79.4437   25.9784 C.ar    1  UNL1        0.0443
     10 C           9.2311   78.3513   26.4801 C.ar    1  UNL1        0.1457
     11 F           7.9429   78.5364   26.8660 F       1  UNL1       -0.2040
     12 N          12.0128   80.4156   25.0345 N.pl3   1  UNL1       -0.3040
     13 C          13.4771   80.3765   24.9578 C.3     1  UNL1        0.1123
     14 C          14.0634   81.7456   25.3131 C.3     1  UNL1        0.1136
     15 N          13.3525   82.8135   24.5949 N.pl3   1  UNL1       -0.2897
     16 C          11.8856   82.8344   24.6677 C.3     1  UNL1        0.1136
     17 C          11.3196   81.4686   24.2853 C.3     1  UNL1        0.1123
     18 C          14.0546   83.9642   24.0825 C.ar    1  UNL1        0.1318
     19 C          14.1638   85.1471   24.8318 C.ar    1  UNL1        0.0343
     20 C          14.8495   86.2399   24.2994 C.ar    1  UNL1        0.0083
     21 C          15.4065   86.1672   23.0139 C.ar    1  UNL1        0.0906
     22 C          15.2905   84.9617   22.3047 C.ar    1  UNL1        0.1041
     23 N          14.6204   83.9098   22.8450 N.ar    1  UNL1       -0.2292
     24 C          16.1919   87.3225   22.4475 C.3     1  UNL1        0.4200
     25 F          17.3224   87.5644   23.2088 F       1  UNL1       -0.1658
     26 F          15.3988   88.4546   22.4459 F       1  UNL1       -0.1658
     27 F          16.5931   87.0509   21.1508 F       1  UNL1       -0.1658
     28 C           7.0831   74.3436   26.9712 C.3     1  UNL1        0.1535
     29 C           6.1147   74.6968   28.0736 C.2     1  UNL1        0.2443
     30 O           5.9232   73.8919   29.0262 O.2     1  UNL1       -0.2730
     31 N           5.4078   75.9464   28.0245 N.am    1  UNL1       -0.2825
     32 H           5.3854   76.4547   27.1114 H       1  UNL1        0.1549
     33 C           4.6520   76.4945   29.1187 C.ar    1  UNL1        0.0535
     34 C           4.9313   77.7941   29.5637 C.ar    1  UNL1        0.0353
     35 C           4.2193   78.3247   30.6420 C.ar    1  UNL1        0.1002
     36 N           3.2718   77.5776   31.2673 N.ar    1  UNL1       -0.2422
     37 C           2.9917   76.3077   30.8721 C.ar    1  UNL1        0.1002
     38 C           3.6793   75.7393   29.7969 C.ar    1  UNL1        0.0353
     39 C           6.3700   73.6648   25.7843 C.3     1  UNL1        0.0569
     40 C           7.5718   76.0266   21.5843 C.ar    1  UNL1        0.0228
     41 C           8.8454   75.4384   21.4167 C.ar    1  UNL1       -0.0004
     42 C           9.3286   74.4909   22.3444 C.ar    1  UNL1       -0.0002
     43 C           8.5466   74.1085   23.4463 C.ar    1  UNL1        0.0011
     44 C           7.2897   74.6948   23.5893 C.ar    1  UNL1        0.0129
     45 C           6.3127   74.5263   24.5517 C.ar    1  UNL1       -0.0017
     46 C           5.2696   75.3667   24.1791 C.ar    1  UNL1        0.0681
     47 N           5.5791   76.0285   23.0417 N.ar    1  UNL1       -0.3524
     48 C           6.8127   75.6167   22.6906 C.ar    1  UNL1        0.0546
     49 H           4.9742   76.7205   22.5465 H       1  UNL1        0.1660
     50 C           7.0406   77.0213   20.5913 C.3     1  UNL1        0.1701
     51 C           7.3155   79.2783   20.2304 C.3     1  UNL1        0.1746
     52 O           7.9877   78.0550   20.4280 O.3     1  UNL1       -0.3463
@<TRIPOS>BOND
     1    51    52    1
     2    52    50    1
     3    50    40    1
     4    40    41   ar
     5    41    42   ar
     6    42    43   ar
     7    43    44   ar
     8    44    45   ar
     9    45    39    1
    10    39    28    1
    11    28     1    1
    12     1     2   am
    13     2     3    2
    14     2     5    1
    15     5     6   ar
    16     6     7   ar
    17     7     8   ar
    18     8    12    1
    19    12    13    1
    20    13    14    1
    21    14    15    1
    22    15    18    1
    23    18    19   ar
    24    19    20   ar
    25    20    21   ar
    26    21    24    1
    27    24    25    1
    28    24    26    1
    29    24    27    1
    30    21    22   ar
    31    22    23   ar
    32    15    16    1
    33    16    17    1
    34     8     9   ar
    35     9    10   ar
    36    10    11    1
    37    28    29    1
    38    29    30    2
    39    29    31   am
    40    31    33    1
    41    33    34   ar
    42    34    35   ar
    43    35    36   ar
    44    36    37   ar
    45    37    38   ar
    46    45    46   ar
    47    46    47   ar
    48    47    48   ar
    49    48    40   ar
    50    48    44   ar
    51    10     5   ar
    52    38    33   ar
    53    17    12    1
    54    23    18   ar
    55     1     4    1
    56    31    32    1
    57    47    49    1
@<TRIPOS>MOLECULE
*****
 52 57 0 0 0
SMALL
GASTEIGER

@<TRIPOS>ATOM
      1 N           7.9087   75.3360   25.7725 N.am    1  UNL1       -0.2945
      2 C           8.9709   75.8545   26.5907 C.2     1  UNL1        0.2483
      3 O           9.2363   75.3042   27.6943 O.2     1  UNL1       -0.2701
      4 H           7.5307   75.9457   25.0138 H       1  UNL1        0.1501
      5 C           9.7517   77.0398   26.1576 C.ar    1  UNL1        0.0808
      6 C           9.4236   78.3211   26.6357 C.ar    1  UNL1        0.0080
      7 C          10.1517   79.4412   26.2280 C.ar    1  UNL1        0.0148
      8 C          11.2198   79.3068   25.3303 C.ar    1  UNL1        0.0502
      9 C          11.5491   78.0313   24.8458 C.ar    1  UNL1        0.0443
     10 C          10.8220   76.9072   25.2501 C.ar    1  UNL1        0.1457
     11 F          11.1820   75.6900   24.7690 F       1  UNL1       -0.2040
     12 N          11.9688   80.4658   24.9184 N.pl3   1  UNL1       -0.3040
     13 C          13.4355   80.4519   24.9342 C.3     1  UNL1        0.1123
     14 C          13.9736   81.8083   25.3982 C.3     1  UNL1        0.1136
     15 N          13.2910   82.9029   24.6930 N.pl3   1  UNL1       -0.2897
     16 C          11.8222   82.8988   24.6722 C.3     1  UNL1        0.1136
     17 C          11.3060   81.5475   24.1827 C.3     1  UNL1        0.1123
     18 C          14.0036   84.0895   24.2881 C.ar    1  UNL1        0.1318
     19 C          14.6363   84.1706   23.0369 C.ar    1  UNL1        0.0343
     20 C          15.3182   85.3359   22.6833 C.ar    1  UNL1        0.0083
     21 C          15.3923   86.4118   23.5805 C.ar    1  UNL1        0.0906
     22 C          14.7320   86.2976   24.8136 C.ar    1  UNL1        0.1041
     23 N          14.0718   85.1538   25.1349 N.ar    1  UNL1       -0.2292
     24 C          16.0829   87.6940   23.1914 C.3     1  UNL1        0.4200
     25 F          15.5432   88.2044   22.0234 F       1  UNL1       -0.1658
     26 F          17.4283   87.4447   22.9950 F       1  UNL1       -0.1658
     27 F          15.9410   88.6460   24.1862 F       1  UNL1       -0.1658
     28 C           7.1578   74.1232   26.1223 C.3     1  UNL1        0.1535
     29 C           6.2592   74.3726   27.3090 C.2     1  UNL1        0.2443
     30 O           5.6742   73.4061   27.8707 O.2     1  UNL1       -0.2730
     31 N           6.0676   75.7143   27.7852 N.am    1  UNL1       -0.2825
     32 H           6.3423   76.4977   27.1499 H       1  UNL1        0.1549
     33 C           5.4374   76.0498   29.0339 C.ar    1  UNL1        0.0535
     34 C           6.1102   75.7876   30.2353 C.ar    1  UNL1        0.0353
     35 C           5.4950   76.0870   31.4531 C.ar    1  UNL1        0.1002
     36 N           4.2426   76.6145   31.4729 N.ar    1  UNL1       -0.2422
     37 C           3.5566   76.8619   30.3260 C.ar    1  UNL1        0.1002
     38 C           4.1358   76.5787   29.0865 C.ar    1  UNL1        0.0353
     39 C           6.3638   73.5993   24.9086 C.3     1  UNL1        0.0569
     40 C           5.2287   76.1962   20.8306 C.ar    1  UNL1        0.0228
     41 C           5.4690   75.1624   19.8981 C.ar    1  UNL1       -0.0004
     42 C           5.8897   73.8864   20.3302 C.ar    1  UNL1       -0.0002
     43 C           6.0675   73.6190   21.6973 C.ar    1  UNL1        0.0011
     44 C           5.8175   74.6503   22.6017 C.ar    1  UNL1        0.0129
     45 C           5.9052   74.6912   23.9800 C.ar    1  UNL1       -0.0017
     46 C           5.5319   75.9807   24.3420 C.ar    1  UNL1        0.0681
     47 N           5.2274   76.7100   23.2453 N.ar    1  UNL1       -0.3524
     48 C           5.4074   75.8939   22.1888 C.ar    1  UNL1        0.0546
     49 H           4.9186   77.7072   23.2338 H       1  UNL1        0.1660
     50 C           4.7615   77.5518   20.3817 C.3     1  UNL1        0.1701
     51 C           2.6841   78.2803   21.0555 C.3     1  UNL1        0.1746
     52 O           4.0372   78.1569   21.4313 O.3     1  UNL1       -0.3463
@<TRIPOS>BOND
     1    51    52    1
     2    52    50    1
     3    50    40    1
     4    40    41   ar
     5    41    42   ar
     6    42    43   ar
     7    43    44   ar
     8    44    45   ar
     9    45    39    1
    10    39    28    1
    11    28     1    1
    12     1     2   am
    13     2     3    2
    14     2     5    1
    15     5     6   ar
    16     6     7   ar
    17     7     8   ar
    18     8    12    1
    19    12    13    1
    20    13    14    1
    21    14    15    1
    22    15    18    1
    23    18    19   ar
    24    19    20   ar
    25    20    21   ar
    26    21    24    1
    27    24    25    1
    28    24    26    1
    29    24    27    1
    30    21    22   ar
    31    22    23   ar
    32    15    16    1
    33    16    17    1
    34     8     9   ar
    35     9    10   ar
    36    10    11    1
    37    28    29    1
    38    29    30    2
    39    29    31   am
    40    31    33    1
    41    33    34   ar
    42    34    35   ar
    43    35    36   ar
    44    36    37   ar
    45    37    38   ar
    46    45    46   ar
    47    46    47   ar
    48    47    48   ar
    49    48    40   ar
    50    48    44   ar
    51    10     5   ar
    52    38    33   ar
    53    17    12    1
    54    23    18   ar
    55     1     4    1
    56    31    32    1
    57    47    49    1
@<TRIPOS>MOLECULE
*****
 52 57 0 0 0
SMALL
GASTEIGER

@<TRIPOS>ATOM
      1 N          10.2997   75.8951   25.8818 N.am    1  UNL1       -0.2945
      2 C          10.2683   75.3399   24.5561 C.2     1  UNL1        0.2483
      3 O          11.3384   74.9446   24.0177 O.2     1  UNL1       -0.2701
      4 H           9.4762   76.4523   26.2006 H       1  UNL1        0.1501
      5 C           8.9913   75.2384   23.8070 C.ar    1  UNL1        0.0808
      6 C           8.9680   75.4225   22.4128 C.ar    1  UNL1        0.0080
      7 C           7.7685   75.3330   21.7028 C.ar    1  UNL1        0.0148
      8 C           6.5657   75.0628   22.3700 C.ar    1  UNL1        0.0502
      9 C           6.5817   74.8828   23.7619 C.ar    1  UNL1        0.0443
     10 C           7.7800   74.9730   24.4771 C.ar    1  UNL1        0.1457
     11 F           7.7541   74.7784   25.8203 F       1  UNL1       -0.2040
     12 N           5.3338   74.9672   21.6302 N.pl3   1  UNL1       -0.3040
     13 C           4.4485   76.1295   21.4999 C.3     1  UNL1        0.1123
     14 C           2.9835   75.6921   21.5844 C.3     1  UNL1        0.1136
     15 N           2.7420   74.5273   20.7205 N.pl3   1  UNL1       -0.2897
     16 C           3.6434   73.3747   20.8503 C.3     1  UNL1        0.1136
     17 C           5.0975   73.8278   20.7378 C.3     1  UNL1        0.1123
     18 C           1.5098   74.3858   19.9849 C.ar    1  UNL1        0.1318
     19 C           0.9399   75.4704   19.2983 C.ar    1  UNL1        0.0343
     20 C          -0.2554   75.2932   18.5999 C.ar    1  UNL1        0.0083
     21 C          -0.8975   74.0459   18.6022 C.ar    1  UNL1        0.0906
     22 C          -0.2866   72.9833   19.2857 C.ar    1  UNL1        0.1041
     23 N           0.8791   73.1791   19.9567 N.ar    1  UNL1       -0.2292
     24 C          -2.1622   73.8285   17.8112 C.3     1  UNL1        0.4200
     25 F          -3.1455   74.7183   18.2079 F       1  UNL1       -0.1658
     26 F          -2.6122   72.5380   18.0182 F       1  UNL1       -0.1658
     27 F          -1.9302   74.0140   16.4592 F       1  UNL1       -0.1658
     28 C          11.5245   75.9485   26.6904 C.3     1  UNL1        0.1535
     29 C          12.3891   77.1147   26.2777 C.2     1  UNL1        0.2443
     30 O          12.6270   78.0440   27.0973 O.2     1  UNL1       -0.2730
     31 N          12.9280   77.1633   24.9470 N.am    1  UNL1       -0.2825
     32 H          12.5028   76.5338   24.2289 H       1  UNL1        0.1549
     33 C          13.9449   78.0851   24.5166 C.ar    1  UNL1        0.0535
     34 C          14.9556   77.6392   23.6537 C.ar    1  UNL1        0.0353
     35 C          15.9611   78.5212   23.2510 C.ar    1  UNL1        0.1002
     36 N          15.9686   79.8012   23.7077 N.ar    1  UNL1       -0.2422
     37 C          15.0140   80.2579   24.5606 C.ar    1  UNL1        0.1002
     38 C          13.9893   79.4093   24.9869 C.ar    1  UNL1        0.0353
     39 C          11.1881   75.9949   28.1947 C.3     1  UNL1        0.0569
     40 C           6.5709   77.6709   28.9260 C.ar    1  UNL1        0.0228
     41 C           6.8274   79.0224   28.6037 C.ar    1  UNL1       -0.0004
     42 C           8.1202   79.4381   28.2195 C.ar    1  UNL1       -0.0002
     43 C           9.1733   78.5125   28.1412 C.ar    1  UNL1        0.0011
     44 C           8.8976   77.1824   28.4557 C.ar    1  UNL1        0.0129
     45 C           9.7109   76.0655   28.4732 C.ar    1  UNL1       -0.0017
     46 C           8.8918   75.0105   28.8595 C.ar    1  UNL1        0.0681
     47 N           7.6301   75.4457   29.0740 N.ar    1  UNL1       -0.3524
     48 C           7.6424   76.7705   28.8296 C.ar    1  UNL1        0.0546
     49 H           6.8182   74.8612   29.3723 H       1  UNL1        0.1660
     50 C           5.1936   77.2151   29.3169 C.3     1  UNL1        0.1701
     51 C           4.5129   76.5157   27.2318 C.3     1  UNL1        0.1746
     52 O           4.8440   76.0930   28.5353 O.3     1  UNL1       -0.3463
@<TRIPOS>BOND
     1    51    52    1
     2    52    50    1
     3    50    40    1
     4    40    41   ar
     5    41    42   ar
     6    42    43   ar
     7    43    44   ar
     8    44    45   ar
     9    45    39    1
    10    39    28    1
    11    28     1    1
    12     1     2   am
    13     2     3    2
    14     2     5    1
    15     5     6   ar
    16     6     7   ar
    17     7     8   ar
    18     8    12    1
    19    12    13    1
    20    13    14    1
    21    14    15    1
    22    15    18    1
    23    18    19   ar
    24    19    20   ar
    25    20    21   ar
    26    21    24    1
    27    24    25    1
    28    24    26    1
    29    24    27    1
    30    21    22   ar
    31    22    23   ar
    32    15    16    1
    33    16    17    1
    34     8     9   ar
    35     9    10   ar
    36    10    11    1
    37    28    29    1
    38    29    30    2
    39    29    31   am
    40    31    33    1
    41    33    34   ar
    42    34    35   ar
    43    35    36   ar
    44    36    37   ar
    45    37    38   ar
    46    45    46   ar
    47    46    47   ar
    48    47    48   ar
    49    48    40   ar
    50    48    44   ar
    51    10     5   ar
    52    38    33   ar
    53    17    12    1
    54    23    18   ar
    55     1     4    1
    56    31    32    1
    57    47    49    1
