@<TRIPOS>MOLECULE
*****
 46 50 0 0 0
SMALL
GASTEIGER

@<TRIPOS>ATOM
      1 C          -8.0330  -11.3619   29.5125 C.3     1  UNL1        0.1562
      2 C          -8.6998  -12.4739   30.3309 C.3     1  UNL1        0.0622
      3 C          -9.0057  -11.8740   31.7267 C.3     1  UNL1        0.1294
      4 O          -8.0631  -12.3638   32.6578 O.3     1  UNL1       -0.3808
      5 C          -8.8279  -10.3463   31.5800 C.3     1  UNL1        0.1264
      6 N          -8.2516  -10.1296   30.2616 N.am    1  UNL1       -0.2544
      7 C          -7.8796   -8.8281   29.7662 C.2     1  UNL1        0.3081
      8 O          -7.0247   -8.7261   28.8464 O.2     1  UNL1       -0.2522
      9 N          -8.4375   -7.6339   30.3286 N.am    1  UNL1       -0.2681
     10 H          -7.1522  -12.1323   32.3365 H       1  UNL1        0.2107
     11 H          -7.7856   -6.8439   30.5360 H       1  UNL1        0.1564
     12 C         -10.4288  -12.2272   32.1867 C.ar    1  UNL1        0.0310
     13 C         -10.6654  -12.7530   33.4769 C.ar    1  UNL1        0.0026
     14 C         -11.9617  -13.0624   33.8976 C.ar    1  UNL1        0.0295
     15 C         -13.0454  -12.8540   33.0451 C.ar    1  UNL1        0.1424
     16 F         -14.3014  -13.1542   33.4582 F       1  UNL1       -0.2041
     17 C         -12.8358  -12.3367   31.7671 C.ar    1  UNL1        0.0590
     18 C         -11.5433  -12.0254   31.3348 C.ar    1  UNL1        0.1406
     19 F         -11.3860  -11.5272   30.0826 F       1  UNL1       -0.2044
     20 C          -9.8500   -7.4141   30.4777 C.ar    1  UNL1        0.0516
     21 C         -10.7846   -8.4179   30.1608 C.ar    1  UNL1        0.0156
     22 C         -12.1532   -8.1839   30.3225 C.ar    1  UNL1        0.0127
     23 C         -12.6026   -6.9439   30.7865 C.ar    1  UNL1        0.0578
     24 CL        -14.3201   -6.6539   30.9929 Cl      1  UNL1       -0.0822
     25 C         -11.6812   -5.9340   31.0815 C.ar    1  UNL1        0.0127
     26 C         -10.3115   -6.1661   30.9225 C.ar    1  UNL1        0.0156
     27 N          -6.0827  -12.9169   28.8717 N.am    1  UNL1       -0.2680
     28 C          -6.5538  -11.6428   29.3364 C.2     1  UNL1        0.2454
     29 O          -5.7111  -10.7938   29.7347 O.2     1  UNL1       -0.2730
     30 H          -5.1759  -13.2690   29.2530 H       1  UNL1        0.1563
     31 C          -8.2336  -15.4885   26.3058 C.ar    1  UNL1        0.2466
     32 C          -6.9107  -15.1481   25.9892 C.ar    1  UNL1        0.0736
     33 C          -6.1890  -14.2944   26.8240 C.ar    1  UNL1        0.0406
     34 C          -6.8020  -13.7685   27.9707 C.ar    1  UNL1        0.1346
     35 N          -8.0747  -14.1384   28.2785 N.ar    1  UNL1       -0.2228
     36 C          -8.7972  -14.9698   27.4815 C.ar    1  UNL1        0.1691
     37 N         -10.4582  -19.8021   25.4784 N.pl3   1  UNL1       -0.3496
     38 C         -10.0738  -18.4914   25.0461 C.2     1  UNL1        0.1495
     39 C         -10.4248  -18.0510   23.7667 C.2     1  UNL1        0.0301
     40 C         -10.0595  -16.7765   23.3450 C.2     1  UNL1        0.0770
     41 C          -9.3392  -15.9486   24.2049 C.2     1  UNL1        0.2906
     42 N          -8.9875  -16.3768   25.4558 N.am    1  UNL1       -0.0831
     43 C          -9.3496  -17.6292   25.8909 C.2     1  UNL1        0.4356
     44 O          -9.0488  -18.0100   27.0565 O.2     1  UNL1       -0.2121
     45 H         -10.2089  -20.1565   26.4284 H       1  UNL1        0.1426
     46 H         -10.9981  -20.4341   24.8460 H       1  UNL1        0.1426
@<TRIPOS>BOND
     1    37    38    1
     2    38    39    2
     3    39    40    1
     4    40    41    2
     5    41    42    1
     6    42    31    1
     7    31    32   ar
     8    32    33   ar
     9    33    34   ar
    10    34    27    1
    11    27    28   am
    12    28    29    2
    13    28     1    1
    14     1     2    1
    15     2     3    1
    16     3     4    1
    17     3    12    1
    18    12    13   ar
    19    13    14   ar
    20    14    15   ar
    21    15    16    1
    22    15    17   ar
    23    17    18   ar
    24    18    19    1
    25     3     5    1
    26     5     6    1
    27     6     7   am
    28     7     8    2
    29     7     9   am
    30     9    20    1
    31    20    21   ar
    32    21    22   ar
    33    22    23   ar
    34    23    24    1
    35    23    25   ar
    36    25    26   ar
    37    34    35   ar
    38    35    36   ar
    39    42    43    1
    40    43    44    2
    41    43    38    1
    42    36    31   ar
    43     6     1    1
    44    26    20   ar
    45    18    12   ar
    46    37    45    1
    47    37    46    1
    48    27    30    1
    49     4    10    1
    50     9    11    1
@<TRIPOS>MOLECULE
*****
 46 50 0 0 0
SMALL
GASTEIGER

@<TRIPOS>ATOM
      1 C          -8.0467  -11.3547   29.5196 C.3     1  UNL1        0.1562
      2 C          -8.7348  -12.4641   30.3236 C.3     1  UNL1        0.0622
      3 C          -9.0518  -11.8686   31.7188 C.3     1  UNL1        0.1294
      4 O          -8.1259  -12.3731   32.6588 O.3     1  UNL1       -0.3808
      5 C          -8.8565  -10.3421   31.5827 C.3     1  UNL1        0.1264
      6 N          -8.2619  -10.1243   30.2726 N.am    1  UNL1       -0.2544
      7 C          -7.8704   -8.8240   29.7891 C.2     1  UNL1        0.3081
      8 O          -7.0033   -8.7259   28.8804 O.2     1  UNL1       -0.2522
      9 N          -8.4230   -7.6271   30.3511 N.am    1  UNL1       -0.2681
     10 H          -7.2087  -12.1493   32.3499 H       1  UNL1        0.2107
     11 H          -7.7657   -6.8451   30.5709 H       1  UNL1        0.1564
     12 C         -10.4840  -12.2097   32.1594 C.ar    1  UNL1        0.0310
     13 C         -11.5742  -12.0454   31.2754 C.ar    1  UNL1        0.0026
     14 C         -12.8744  -12.3676   31.6741 C.ar    1  UNL1        0.0295
     15 C         -13.1143  -12.8591   32.9568 C.ar    1  UNL1        0.1424
     16 F         -14.3771  -13.1717   33.3386 F       1  UNL1       -0.2041
     17 C         -12.0539  -13.0287   33.8465 C.ar    1  UNL1        0.0590
     18 C         -10.7494  -12.7081   33.4593 C.ar    1  UNL1        0.1406
     19 F          -9.7490  -12.8861   34.3584 F       1  UNL1       -0.2044
     20 C          -9.8349   -7.3937   30.4841 C.ar    1  UNL1        0.0516
     21 C         -10.3495   -6.0943   30.6522 C.ar    1  UNL1        0.0156
     22 C         -11.7275   -5.8912   30.7705 C.ar    1  UNL1        0.0127
     23 C         -12.6024   -6.9813   30.7377 C.ar    1  UNL1        0.0578
     24 CL        -14.3313   -6.7238   30.8819 Cl      1  UNL1       -0.0822
     25 C         -12.0967   -8.2773   30.5941 C.ar    1  UNL1        0.0127
     26 C         -10.7189   -8.4831   30.4736 C.ar    1  UNL1        0.0156
     27 N          -6.1042  -12.9296   28.9037 N.am    1  UNL1       -0.2680
     28 C          -6.5684  -11.6499   29.3602 C.2     1  UNL1        0.2454
     29 O          -5.7220  -10.8077   29.7653 O.2     1  UNL1       -0.2730
     30 H          -5.2049  -13.2891   29.2957 H       1  UNL1        0.1563
     31 C          -8.2500  -15.4888   26.3213 C.ar    1  UNL1        0.2466
     32 C          -6.9270  -15.1454   26.0080 C.ar    1  UNL1        0.0736
     33 C          -6.2070  -14.2957   26.8483 C.ar    1  UNL1        0.0406
     34 C          -6.8217  -13.7768   27.9973 C.ar    1  UNL1        0.1346
     35 N          -8.0945  -14.1496   28.3016 N.ar    1  UNL1       -0.2228
     36 C          -8.8153  -14.9771   27.4992 C.ar    1  UNL1        0.1691
     37 N         -10.4647  -19.8019   25.4652 N.pl3   1  UNL1       -0.3496
     38 C         -10.0836  -18.4873   25.0417 C.2     1  UNL1        0.1495
     39 C         -10.4362  -18.0391   23.7656 C.2     1  UNL1        0.0301
     40 C         -10.0741  -16.7608   23.3524 C.2     1  UNL1        0.0770
     41 C          -9.3554  -15.9372   24.2177 C.2     1  UNL1        0.2906
     42 N          -9.0022  -16.3731   25.4655 N.am    1  UNL1       -0.0831
     43 C          -9.3611  -17.6293   25.8922 C.2     1  UNL1        0.4356
     44 O          -9.0589  -18.0173   27.0550 O.2     1  UNL1       -0.2121
     45 H         -10.2142  -20.1622   26.4127 H       1  UNL1        0.1426
     46 H         -11.0034  -20.4309   24.8287 H       1  UNL1        0.1426
@<TRIPOS>BOND
     1    37    38    1
     2    38    39    2
     3    39    40    1
     4    40    41    2
     5    41    42    1
     6    42    31    1
     7    31    32   ar
     8    32    33   ar
     9    33    34   ar
    10    34    27    1
    11    27    28   am
    12    28    29    2
    13    28     1    1
    14     1     2    1
    15     2     3    1
    16     3     4    1
    17     3    12    1
    18    12    13   ar
    19    13    14   ar
    20    14    15   ar
    21    15    16    1
    22    15    17   ar
    23    17    18   ar
    24    18    19    1
    25     3     5    1
    26     5     6    1
    27     6     7   am
    28     7     8    2
    29     7     9   am
    30     9    20    1
    31    20    21   ar
    32    21    22   ar
    33    22    23   ar
    34    23    24    1
    35    23    25   ar
    36    25    26   ar
    37    34    35   ar
    38    35    36   ar
    39    42    43    1
    40    43    44    2
    41    43    38    1
    42    36    31   ar
    43     6     1    1
    44    26    20   ar
    45    18    12   ar
    46    37    45    1
    47    37    46    1
    48    27    30    1
    49     4    10    1
    50     9    11    1
@<TRIPOS>MOLECULE
*****
 46 50 0 0 0
SMALL
GASTEIGER

@<TRIPOS>ATOM
      1 C          -7.9080  -11.2552   29.5541 C.3     1  UNL1        0.1562
      2 C          -8.5097  -12.3603   30.4303 C.3     1  UNL1        0.0622
      3 C          -8.7947  -11.7228   31.8137 C.3     1  UNL1        0.1294
      4 O          -7.8077  -12.1467   32.7310 O.3     1  UNL1       -0.3808
      5 C          -8.6760  -10.1959   31.6098 C.3     1  UNL1        0.1264
      6 N          -8.1478  -10.0058   30.2673 N.am    1  UNL1       -0.2544
      7 C          -7.8375   -8.7103   29.7167 C.2     1  UNL1        0.3081
      8 O          -7.0149   -8.6110   28.7676 O.2     1  UNL1       -0.2522
      9 N          -8.4205   -7.5171   30.2553 N.am    1  UNL1       -0.2681
     10 H          -6.9157  -11.8952   32.3737 H       1  UNL1        0.2107
     11 H          -7.7914   -6.6983   30.4154 H       1  UNL1        0.1564
     12 C         -10.1898  -12.1088   32.3298 C.ar    1  UNL1        0.0310
     13 C         -10.3618  -12.6458   33.6256 C.ar    1  UNL1        0.0026
     14 C         -11.6328  -12.9850   34.0974 C.ar    1  UNL1        0.0295
     15 C         -12.7549  -12.7959   33.2913 C.ar    1  UNL1        0.1424
     16 F         -13.9861  -13.1250   33.7539 F       1  UNL1       -0.2041
     17 C         -12.6092  -12.2681   32.0087 C.ar    1  UNL1        0.0590
     18 C         -11.3425  -11.9269   31.5255 C.ar    1  UNL1        0.1406
     19 F         -11.2475  -11.4195   30.2707 F       1  UNL1       -0.2044
     20 C          -9.8349   -7.3414   30.4411 C.ar    1  UNL1        0.0516
     21 C         -10.7485   -8.3613   30.1145 C.ar    1  UNL1        0.0156
     22 C         -12.1191   -8.1703   30.3123 C.ar    1  UNL1        0.0127
     23 C         -12.5918   -6.9574   30.8223 C.ar    1  UNL1        0.0578
     24 CL        -14.3116   -6.7216   31.0738 Cl      1  UNL1       -0.0822
     25 C         -11.6920   -5.9312   31.1274 C.ar    1  UNL1        0.0127
     26 C         -10.3204   -6.1202   30.9323 C.ar    1  UNL1        0.0156
     27 N          -5.9244  -12.7601   28.8957 N.am    1  UNL1       -0.2680
     28 C          -6.4256  -11.4907   29.3415 C.2     1  UNL1        0.2454
     29 O          -5.6016  -10.6035   29.6927 O.2     1  UNL1       -0.2730
     30 H          -4.9955  -13.0711   29.2588 H       1  UNL1        0.1563
     31 C          -8.0620  -15.4675   26.4618 C.ar    1  UNL1        0.2466
     32 C          -6.7442  -15.1288   26.1227 C.ar    1  UNL1        0.0736
     33 C          -6.0270  -14.2307   26.9136 C.ar    1  UNL1        0.0406
     34 C          -6.6396  -13.6591   28.0385 C.ar    1  UNL1        0.1346
     35 N          -7.9069  -14.0271   28.3698 N.ar    1  UNL1       -0.2228
     36 C          -8.6250  -14.9011   27.6156 C.ar    1  UNL1        0.1691
     37 N         -10.1932  -16.7505   22.2129 N.pl3   1  UNL1       -0.3496
     38 C          -9.8605  -17.0299   23.5782 C.2     1  UNL1        0.1495
     39 C         -10.2727  -18.2313   24.1618 C.2     1  UNL1        0.0301
     40 C          -9.9462  -18.5099   25.4853 C.2     1  UNL1        0.0770
     41 C          -9.2117  -17.5814   26.2216 C.2     1  UNL1        0.2906
     42 N          -8.8112  -16.4012   25.6573 N.am    1  UNL1       -0.0831
     43 C          -9.1170  -16.1156   24.3482 C.2     1  UNL1        0.4356
     44 O          -8.7206  -15.0385   23.8221 O.2     1  UNL1       -0.2121
     45 H          -9.8985  -15.8610   21.7523 H       1  UNL1        0.1426
     46 H         -10.7428  -17.4359   21.6481 H       1  UNL1        0.1426
@<TRIPOS>BOND
     1    37    38    1
     2    38    39    2
     3    39    40    1
     4    40    41    2
     5    41    42    1
     6    42    31    1
     7    31    32   ar
     8    32    33   ar
     9    33    34   ar
    10    34    27    1
    11    27    28   am
    12    28    29    2
    13    28     1    1
    14     1     2    1
    15     2     3    1
    16     3     4    1
    17     3    12    1
    18    12    13   ar
    19    13    14   ar
    20    14    15   ar
    21    15    16    1
    22    15    17   ar
    23    17    18   ar
    24    18    19    1
    25     3     5    1
    26     5     6    1
    27     6     7   am
    28     7     8    2
    29     7     9   am
    30     9    20    1
    31    20    21   ar
    32    21    22   ar
    33    22    23   ar
    34    23    24    1
    35    23    25   ar
    36    25    26   ar
    37    34    35   ar
    38    35    36   ar
    39    42    43    1
    40    43    44    2
    41    43    38    1
    42    36    31   ar
    43     6     1    1
    44    26    20   ar
    45    18    12   ar
    46    37    45    1
    47    37    46    1
    48    27    30    1
    49     4    10    1
    50     9    11    1
@<TRIPOS>MOLECULE
*****
 46 50 0 0 0
SMALL
GASTEIGER

@<TRIPOS>ATOM
      1 C          -7.9838  -11.1700   29.5856 C.3     1  UNL1        0.1562
      2 C          -8.6613  -12.3161   30.3461 C.3     1  UNL1        0.0622
      3 C          -9.0114  -11.7683   31.7529 C.3     1  UNL1        0.1294
      4 O          -8.0897  -12.2818   32.6922 O.3     1  UNL1       -0.3808
      5 C          -8.8451  -10.2349   31.6644 C.3     1  UNL1        0.1264
      6 N          -8.2353   -9.9668   30.3708 N.am    1  UNL1       -0.2544
      7 C          -7.8631   -8.6454   29.9315 C.2     1  UNL1        0.3081
      8 O          -6.9845   -8.5033   29.0397 O.2     1  UNL1       -0.2522
      9 N          -8.4482   -7.4768   30.5194 N.am    1  UNL1       -0.2681
     10 H          -7.1727  -12.0308   32.4044 H       1  UNL1        0.2107
     11 H          -7.8103   -6.6886   30.7722 H       1  UNL1        0.1564
     12 C         -10.4429  -12.1506   32.1608 C.ar    1  UNL1        0.0310
     13 C         -11.5213  -11.9905   31.2618 C.ar    1  UNL1        0.0026
     14 C         -12.8205  -12.3500   31.6306 C.ar    1  UNL1        0.0295
     15 C         -13.0711  -12.8754   32.8978 C.ar    1  UNL1        0.1424
     16 F         -14.3329  -13.2242   33.2505 F       1  UNL1       -0.2041
     17 C         -12.0223  -13.0416   33.8018 C.ar    1  UNL1        0.0590
     18 C         -10.7189  -12.6838   33.4446 C.ar    1  UNL1        0.1406
     19 F          -9.7302  -12.8599   34.3569 F       1  UNL1       -0.2044
     20 C          -9.8664   -7.2754   30.6369 C.ar    1  UNL1        0.0516
     21 C         -10.3997   -6.0317   31.0248 C.ar    1  UNL1        0.0156
     22 C         -11.7832   -5.8574   31.1237 C.ar    1  UNL1        0.0127
     23 C         -12.6456   -6.9238   30.8519 C.ar    1  UNL1        0.0578
     24 CL        -14.3812   -6.7016   30.9723 Cl      1  UNL1       -0.0822
     25 C         -12.1222   -8.1687   30.4885 C.ar    1  UNL1        0.0127
     26 C         -10.7389   -8.3453   30.3870 C.ar    1  UNL1        0.0156
     27 N          -5.9978  -12.7123   29.0287 N.am    1  UNL1       -0.2680
     28 C          -6.4975  -11.4310   29.4409 C.2     1  UNL1        0.2454
     29 O          -5.6754  -10.5537   29.8206 O.2     1  UNL1       -0.2730
     30 H          -5.0910  -13.0346   29.4354 H       1  UNL1        0.1563
     31 C          -8.0666  -15.4103   26.5259 C.ar    1  UNL1        0.2466
     32 C          -6.7427  -15.0637   26.2202 C.ar    1  UNL1        0.0736
     33 C          -6.0480  -14.1686   27.0341 C.ar    1  UNL1        0.0406
     34 C          -6.6890  -13.6078   28.1486 C.ar    1  UNL1        0.1346
     35 N          -7.9621  -13.9835   28.4475 N.ar    1  UNL1       -0.2228
     36 C          -8.6587  -14.8548   27.6704 C.ar    1  UNL1        0.1691
     37 N         -10.0969  -16.6684   22.2206 N.pl3   1  UNL1       -0.3496
     38 C          -9.7928  -16.9576   23.5905 C.2     1  UNL1        0.1495
     39 C         -10.2111  -18.1660   24.1549 C.2     1  UNL1        0.0301
     40 C          -9.9122  -18.4542   25.4829 C.2     1  UNL1        0.0770
     41 C          -9.1992  -17.5281   26.2428 C.2     1  UNL1        0.2906
     42 N          -8.7928  -16.3410   25.6974 N.am    1  UNL1       -0.0831
     43 C          -9.0713  -16.0460   24.3843 C.2     1  UNL1        0.4356
     44 O          -8.6693  -14.9625   23.8760 O.2     1  UNL1       -0.2121
     45 H          -9.7971  -15.7735   21.7740 H       1  UNL1        0.1426
     46 H         -10.6302  -17.3519   21.6381 H       1  UNL1        0.1426
@<TRIPOS>BOND
     1    37    38    1
     2    38    39    2
     3    39    40    1
     4    40    41    2
     5    41    42    1
     6    42    31    1
     7    31    32   ar
     8    32    33   ar
     9    33    34   ar
    10    34    27    1
    11    27    28   am
    12    28    29    2
    13    28     1    1
    14     1     2    1
    15     2     3    1
    16     3     4    1
    17     3    12    1
    18    12    13   ar
    19    13    14   ar
    20    14    15   ar
    21    15    16    1
    22    15    17   ar
    23    17    18   ar
    24    18    19    1
    25     3     5    1
    26     5     6    1
    27     6     7   am
    28     7     8    2
    29     7     9   am
    30     9    20    1
    31    20    21   ar
    32    21    22   ar
    33    22    23   ar
    34    23    24    1
    35    23    25   ar
    36    25    26   ar
    37    34    35   ar
    38    35    36   ar
    39    42    43    1
    40    43    44    2
    41    43    38    1
    42    36    31   ar
    43     6     1    1
    44    26    20   ar
    45    18    12   ar
    46    37    45    1
    47    37    46    1
    48    27    30    1
    49     4    10    1
    50     9    11    1
@<TRIPOS>MOLECULE
*****
 46 50 0 0 0
SMALL
GASTEIGER

@<TRIPOS>ATOM
      1 C          -9.4913  -10.9323   30.4313 C.3     1  UNL1        0.1562
      2 C         -10.4905   -9.8275   30.0682 C.3     1  UNL1        0.0622
      3 C         -10.3988   -8.7614   31.1892 C.3     1  UNL1        0.1294
      4 O         -11.5215   -8.8840   32.0377 O.3     1  UNL1       -0.3808
      5 C          -9.1195   -9.0952   31.9885 C.3     1  UNL1        0.1264
      6 N          -8.6525  -10.3796   31.4888 N.am    1  UNL1       -0.2544
      7 C          -7.5049  -11.0665   32.0264 C.2     1  UNL1        0.3081
      8 O          -7.3912  -12.3124   31.8780 O.2     1  UNL1       -0.2522
      9 N          -6.4995  -10.3627   32.7664 N.am    1  UNL1       -0.2681
     10 H         -11.5470   -9.8102   32.3958 H       1  UNL1        0.2107
     11 H          -6.1566  -10.7958   33.6534 H       1  UNL1        0.1564
     12 C         -10.3360   -7.3411   30.6056 C.ar    1  UNL1        0.0310
     13 C         -11.4017   -6.4319   30.7914 C.ar    1  UNL1        0.0026
     14 C         -11.3373   -5.1368   30.2701 C.ar    1  UNL1        0.0295
     15 C         -10.2136   -4.7220   29.5562 C.ar    1  UNL1        0.1424
     16 F         -10.1550   -3.4641   29.0536 F       1  UNL1       -0.2041
     17 C          -9.1501   -5.6025   29.3597 C.ar    1  UNL1        0.0590
     18 C          -9.2041   -6.9009   29.8750 C.ar    1  UNL1        0.1406
     19 F          -8.1480   -7.7243   29.6571 F       1  UNL1       -0.2044
     20 C          -5.8385   -9.1831   32.2793 C.ar    1  UNL1        0.0516
     21 C          -5.5442   -8.1033   33.1332 C.ar    1  UNL1        0.0156
     22 C          -4.8926   -6.9700   32.6382 C.ar    1  UNL1        0.0127
     23 C          -4.5426   -6.8965   31.2866 C.ar    1  UNL1        0.0578
     24 CL         -3.7211   -5.4753   30.6687 Cl      1  UNL1       -0.0822
     25 C          -4.8524   -7.9556   30.4275 C.ar    1  UNL1        0.0127
     26 C          -5.5024   -9.0913   30.9203 C.ar    1  UNL1        0.0156
     27 N         -10.3532  -13.3301   30.0567 N.am    1  UNL1       -0.2680
     28 C         -10.2190  -12.1765   30.9008 C.2     1  UNL1        0.2454
     29 O         -10.8386  -12.1536   31.9986 O.2     1  UNL1       -0.2730
     30 H         -11.2315  -13.8905   30.1348 H       1  UNL1        0.1563
     31 C          -7.5496  -14.6110   27.1719 C.ar    1  UNL1        0.2466
     32 C          -7.1908  -13.6077   28.0834 C.ar    1  UNL1        0.0736
     33 C          -8.1084  -13.1694   29.0385 C.ar    1  UNL1        0.0406
     34 C          -9.3945  -13.7283   29.0685 C.ar    1  UNL1        0.1346
     35 N          -9.7115  -14.7247   28.1979 N.ar    1  UNL1       -0.2228
     36 C          -8.8340  -15.1693   27.2595 C.ar    1  UNL1        0.1691
     37 N          -6.1588  -15.2087   22.4869 N.pl3   1  UNL1       -0.3496
     38 C          -5.9262  -15.3776   23.8905 C.2     1  UNL1        0.1495
     39 C          -4.7638  -16.0175   24.3300 C.2     1  UNL1        0.0301
     40 C          -4.5304  -16.1778   25.6923 C.2     1  UNL1        0.0770
     41 C          -5.4650  -15.7005   26.6100 C.2     1  UNL1        0.2906
     42 N          -6.6074  -15.0790   26.1852 N.am    1  UNL1       -0.0831
     43 C          -6.8477  -14.9039   24.8434 C.2     1  UNL1        0.4356
     44 O          -7.8888  -14.3039   24.4559 O.2     1  UNL1       -0.2121
     45 H          -7.0185  -14.7349   22.1311 H       1  UNL1        0.1426
     46 H          -5.4682  -15.5607   21.7868 H       1  UNL1        0.1426
@<TRIPOS>BOND
     1    37    38    1
     2    38    39    2
     3    39    40    1
     4    40    41    2
     5    41    42    1
     6    42    31    1
     7    31    32   ar
     8    32    33   ar
     9    33    34   ar
    10    34    27    1
    11    27    28   am
    12    28    29    2
    13    28     1    1
    14     1     2    1
    15     2     3    1
    16     3     4    1
    17     3    12    1
    18    12    13   ar
    19    13    14   ar
    20    14    15   ar
    21    15    16    1
    22    15    17   ar
    23    17    18   ar
    24    18    19    1
    25     3     5    1
    26     5     6    1
    27     6     7   am
    28     7     8    2
    29     7     9   am
    30     9    20    1
    31    20    21   ar
    32    21    22   ar
    33    22    23   ar
    34    23    24    1
    35    23    25   ar
    36    25    26   ar
    37    34    35   ar
    38    35    36   ar
    39    42    43    1
    40    43    44    2
    41    43    38    1
    42    36    31   ar
    43     6     1    1
    44    26    20   ar
    45    18    12   ar
    46    37    45    1
    47    37    46    1
    48    27    30    1
    49     4    10    1
    50     9    11    1
@<TRIPOS>MOLECULE
*****
 46 50 0 0 0
SMALL
GASTEIGER

@<TRIPOS>ATOM
      1 C          -7.0558  -11.2676   29.3747 C.3     1  UNL1        0.1562
      2 C          -8.2346  -12.0445   29.9726 C.3     1  UNL1        0.0622
      3 C          -8.6244  -11.3176   31.2846 C.3     1  UNL1        0.1294
      4 O          -8.1494  -12.0638   32.3860 O.3     1  UNL1       -0.3808
      5 C          -7.9000   -9.9536   31.2451 C.3     1  UNL1        0.1264
      6 N          -6.9992  -10.0055   30.1035 N.am    1  UNL1       -0.2544
      7 C          -6.0966   -8.9353   29.7601 C.2     1  UNL1        0.3081
      8 O          -5.0732   -9.1744   29.0653 O.2     1  UNL1       -0.2522
      9 N          -6.3192   -7.5992   30.2281 N.am    1  UNL1       -0.2681
     10 H          -7.1669  -12.1757   32.2914 H       1  UNL1        0.2107
     11 H          -5.5000   -7.0758   30.6114 H       1  UNL1        0.1564
     12 C         -10.1467  -11.1367   31.3919 C.ar    1  UNL1        0.0310
     13 C         -10.7130   -9.8595   31.6037 C.ar    1  UNL1        0.0026
     14 C         -12.0983   -9.6954   31.6889 C.ar    1  UNL1        0.0295
     15 C         -12.9450  -10.7964   31.5643 C.ar    1  UNL1        0.1424
     16 F         -14.2883  -10.6321   31.6462 F       1  UNL1       -0.2041
     17 C         -12.4085  -12.0666   31.3556 C.ar    1  UNL1        0.0590
     18 C         -11.0242  -12.2430   31.2705 C.ar    1  UNL1        0.1406
     19 F         -10.5463  -13.4969   31.0698 F       1  UNL1       -0.2044
     20 C          -7.5624   -6.8981   30.0588 C.ar    1  UNL1        0.0516
     21 C          -8.7287   -7.5661   29.6405 C.ar    1  UNL1        0.0156
     22 C          -9.9285   -6.8644   29.4914 C.ar    1  UNL1        0.0127
     23 C          -9.9728   -5.4898   29.7430 C.ar    1  UNL1        0.0578
     24 CL        -11.4803   -4.6121   29.5595 Cl      1  UNL1       -0.0822
     25 C          -8.8128   -4.8151   30.1366 C.ar    1  UNL1        0.0127
     26 C          -7.6118   -5.5149   30.2883 C.ar    1  UNL1        0.0156
     27 N          -5.6639  -13.4177   29.1049 N.am    1  UNL1       -0.2680
     28 C          -5.7669  -12.0504   29.5305 C.2     1  UNL1        0.2454
     29 O          -4.8072  -11.5410   30.1702 O.2     1  UNL1       -0.2730
     30 H          -5.0540  -14.0564   29.6631 H       1  UNL1        0.1563
     31 C          -7.8384  -15.1654   25.9362 C.ar    1  UNL1        0.2466
     32 C          -6.5110  -14.7669   25.7234 C.ar    1  UNL1        0.0736
     33 C          -5.7814  -14.1821   26.7589 C.ar    1  UNL1        0.0406
     34 C          -6.3909  -13.9824   28.0063 C.ar    1  UNL1        0.1346
     35 N          -7.6685  -14.4075   28.2025 N.ar    1  UNL1       -0.2228
     36 C          -8.3987  -14.9810   27.2094 C.ar    1  UNL1        0.1691
     37 N          -9.3083  -15.3562   21.2411 N.pl3   1  UNL1       -0.3496
     38 C          -9.3262  -15.8715   22.5779 C.2     1  UNL1        0.1495
     39 C         -10.1040  -16.9929   22.8797 C.2     1  UNL1        0.0301
     40 C         -10.1193  -17.5010   24.1750 C.2     1  UNL1        0.0770
     41 C          -9.3587  -16.8806   25.1650 C.2     1  UNL1        0.2906
     42 N          -8.6005  -15.7789   24.8766 N.am    1  UNL1       -0.0831
     43 C          -8.5668  -15.2711   23.5999 C.2     1  UNL1        0.4356
     44 O          -7.8432  -14.2721   23.3309 O.2     1  UNL1       -0.2121
     45 H          -8.7366  -14.5198   20.9881 H       1  UNL1        0.1426
     46 H          -9.8725  -15.8098   20.4883 H       1  UNL1        0.1426
@<TRIPOS>BOND
     1    37    38    1
     2    38    39    2
     3    39    40    1
     4    40    41    2
     5    41    42    1
     6    42    31    1
     7    31    32   ar
     8    32    33   ar
     9    33    34   ar
    10    34    27    1
    11    27    28   am
    12    28    29    2
    13    28     1    1
    14     1     2    1
    15     2     3    1
    16     3     4    1
    17     3    12    1
    18    12    13   ar
    19    13    14   ar
    20    14    15   ar
    21    15    16    1
    22    15    17   ar
    23    17    18   ar
    24    18    19    1
    25     3     5    1
    26     5     6    1
    27     6     7   am
    28     7     8    2
    29     7     9   am
    30     9    20    1
    31    20    21   ar
    32    21    22   ar
    33    22    23   ar
    34    23    24    1
    35    23    25   ar
    36    25    26   ar
    37    34    35   ar
    38    35    36   ar
    39    42    43    1
    40    43    44    2
    41    43    38    1
    42    36    31   ar
    43     6     1    1
    44    26    20   ar
    45    18    12   ar
    46    37    45    1
    47    37    46    1
    48    27    30    1
    49     4    10    1
    50     9    11    1
