@<TRIPOS>MOLECULE
*****
 52 58 0 0 0
SMALL
GASTEIGER

@<TRIPOS>ATOM
      1 C          57.8392   84.2763    9.0276 C.ar    1  UNL1        0.1388
      2 C          58.8745   84.9186    8.3394 C.ar    1  UNL1        0.0382
      3 C          59.7338   85.7965    9.0054 C.ar    1  UNL1        0.0176
      4 C          59.5637   86.0537   10.3739 C.ar    1  UNL1        0.0481
      5 C          58.5106   85.4288   11.0606 C.ar    1  UNL1        0.0176
      6 C          57.6522   84.5501   10.3939 C.ar    1  UNL1        0.0382
      7 N          60.4554   86.9541   11.0579 N.pl3   1  UNL1       -0.3041
      8 C          60.9810   86.5959   12.3808 C.3     1  UNL1        0.1122
      9 C          62.4294   87.0632   12.5097 C.3     1  UNL1        0.1122
     10 N          62.5393   88.4677   12.0985 N.pl3   1  UNL1       -0.3041
     11 C          62.0133   88.8383   10.7792 C.3     1  UNL1        0.1122
     12 C          60.5687   88.3544   10.6313 C.3     1  UNL1        0.1122
     13 C          63.4083   89.3630   12.8174 C.ar    1  UNL1        0.0480
     14 C          64.0396   88.9516   14.0031 C.ar    1  UNL1        0.0160
     15 C          64.8837   89.8251   14.6942 C.ar    1  UNL1        0.0190
     16 C          65.1074   91.1241   14.2142 C.ar    1  UNL1        0.0702
     17 C          64.4889   91.5311   13.0224 C.ar    1  UNL1        0.0190
     18 C          63.6434   90.6587   12.3314 C.ar    1  UNL1        0.0160
     19 N          65.9832   92.0203   14.9173 N.ar    1  UNL1       -0.2378
     20 C          65.7741   92.6722   16.0863 C.ar    1  UNL1        0.1998
     21 I          63.9893   92.6442   17.2183 I       1  UNL1        0.0018
     22 N          66.8360   93.4371   16.4227 N.ar    1  UNL1       -0.1415
     23 N          67.7349   93.2719   15.4629 N.ar    1  UNL1       -0.2021
     24 C          67.2166   92.4219   14.5590 C.ar    1  UNL1        0.3525
     25 O          67.8179   92.0339   13.5207 O.2     1  UNL1       -0.2444
     26 C          69.0565   93.9080   15.4392 C.3     1  UNL1        0.1099
     27 C          69.1805   94.8872   16.6095 C.3     1  UNL1        0.0265
     28 C          70.1701   92.8458   15.4959 C.3     1  UNL1        0.0245
     29 C          70.1356   92.0519   16.8011 C.3     1  UNL1        0.0021
     30 O          57.0196   83.3884    8.3144 O.3     1  UNL1       -0.4727
     31 C          57.4394   82.1561    7.7252 C.3     1  UNL1        0.2374
     32 C          60.1496   80.6941    9.5079 C.3     1  UNL1        0.2296
     33 O          60.3356   80.0533    8.2597 O.3     1  UNL1       -0.3267
     34 C          59.4414   80.6496    7.3722 C.3     1  UNL1        0.1783
     35 C          58.9056   81.8627    8.0762 C.3     1  UNL1        0.1909
     36 O          59.0504   81.5819    9.4319 O.3     1  UNL1       -0.3255
     37 C          61.4194   81.4607    9.8949 C.ar    1  UNL1        0.0409
     38 C          61.3166   82.8026   10.3258 C.ar    1  UNL1        0.0022
     39 C          62.4489   83.5237   10.7077 C.ar    1  UNL1        0.0113
     40 C          63.7044   82.9187   10.6884 C.ar    1  UNL1        0.0585
     41 CL         65.1245   83.8278   11.1722 Cl      1  UNL1       -0.0822
     42 C          63.8275   81.5844   10.2992 C.ar    1  UNL1        0.0226
     43 C          62.7010   80.8465    9.9140 C.ar    1  UNL1        0.0591
     44 CL         62.9598   79.1533    9.4981 Cl      1  UNL1       -0.0824
     45 C          59.8601   79.6301   10.5872 C.3     1  UNL1        0.1679
     46 C          60.3794   80.3356   12.9706 C.ar    1  UNL1        0.1205
     47 N          59.7717   80.9466   14.0126 N.ar    1  UNL1       -0.2293
     48 C          58.5464   81.2630   13.5491 C.ar    1  UNL1        0.1188
     49 C          58.4185   80.8286   12.2504 C.ar    1  UNL1        0.0979
     50 N          59.5744   80.2471   11.8866 N.ar    1  UNL1       -0.3084
     51 C          62.7562   80.6175   13.7739 C.3     1  UNL1        0.0084
     52 C          61.7510   79.7175   13.0578 C.3     1  UNL1        0.0640
@<TRIPOS>BOND
     1    51    52    1
     2    52    46    1
     3    46    47   ar
     4    47    48   ar
     5    48    49   ar
     6    49    50   ar
     7    50    45    1
     8    32    45    1
     9    32    37    1
    10    37    38   ar
    11    38    39   ar
    12    39    40   ar
    13    40    41    1
    14    40    42   ar
    15    42    43   ar
    16    43    44    1
    17    32    33    1
    18    33    34    1
    19    34    35    1
    20    35    31    1
    21    31    30    1
    22    30     1    1
    23     1     2   ar
    24     2     3   ar
    25     3     4   ar
    26     4     7    1
    27     7     8    1
    28     8     9    1
    29     9    10    1
    30    10    13    1
    31    13    14   ar
    32    14    15   ar
    33    15    16   ar
    34    16    19    1
    35    19    20   ar
    36    20    21    1
    37    20    22   ar
    38    22    23   ar
    39    23    26    1
    40    26    27    1
    41    26    28    1
    42    28    29    1
    43    23    24   ar
    44    24    25    2
    45    16    17   ar
    46    17    18   ar
    47    10    11    1
    48    11    12    1
    49     4     5   ar
    50     5     6   ar
    51    35    36    1
    52    50    46   ar
    53    36    32    1
    54    43    37   ar
    55     6     1   ar
    56    12     7    1
    57    18    13   ar
    58    24    19   ar
@<TRIPOS>MOLECULE
*****
 52 58 0 0 0
SMALL
GASTEIGER

@<TRIPOS>ATOM
      1 C          58.3033   85.8317   12.0595 C.ar    1  UNL1        0.1388
      2 C          59.0662   86.9921   12.2309 C.ar    1  UNL1        0.0382
      3 C          59.4604   87.7536   11.1275 C.ar    1  UNL1        0.0176
      4 C          59.1038   87.3587    9.8295 C.ar    1  UNL1        0.0481
      5 C          58.3590   86.1816    9.6539 C.ar    1  UNL1        0.0176
      6 C          57.9644   85.4211   10.7583 C.ar    1  UNL1        0.0382
      7 N          59.5065   88.1497    8.6955 N.pl3   1  UNL1       -0.3041
      8 C          59.0882   87.7552    7.3449 C.3     1  UNL1        0.1122
      9 C          58.7760   88.9973    6.5128 C.3     1  UNL1        0.1122
     10 N          59.8770   89.9615    6.6227 N.pl3   1  UNL1       -0.3041
     11 C          60.3066   90.3602    7.9685 C.3     1  UNL1        0.1122
     12 C          60.6004   89.1214    8.8180 C.3     1  UNL1        0.1122
     13 C          60.2907   90.7173    5.4688 C.ar    1  UNL1        0.0480
     14 C          59.4364   91.6726    4.8933 C.ar    1  UNL1        0.0160
     15 C          59.8456   92.4041    3.7749 C.ar    1  UNL1        0.0190
     16 C          61.1124   92.1902    3.2117 C.ar    1  UNL1        0.0702
     17 C          61.9718   91.2466    3.7945 C.ar    1  UNL1        0.0190
     18 C          61.5630   90.5136    4.9119 C.ar    1  UNL1        0.0160
     19 N          61.5393   92.9487    2.0684 N.ar    1  UNL1       -0.2378
     20 C          60.8347   93.2923    0.9636 C.ar    1  UNL1        0.1998
     21 I          58.8507   92.7077    0.5279 I       1  UNL1        0.0018
     22 N          61.5889   94.0051    0.0981 N.ar    1  UNL1       -0.1415
     23 N          62.7862   94.1221    0.6540 N.ar    1  UNL1       -0.2021
     24 C          62.7524   93.4830    1.8366 C.ar    1  UNL1        0.3525
     25 O          63.7256   93.4128    2.6354 O.2     1  UNL1       -0.2444
     26 C          63.9152   94.8454    0.0589 C.3     1  UNL1        0.1099
     27 C          65.2310   94.1797    0.4706 C.3     1  UNL1        0.0265
     28 C          63.7824   94.8895   -1.4747 C.3     1  UNL1        0.0245
     29 C          63.5562   93.4996   -2.0683 C.3     1  UNL1        0.0021
     30 O          57.9167   85.1172   13.2035 O.3     1  UNL1       -0.4727
     31 C          58.5473   83.9357   13.7017 C.3     1  UNL1        0.2374
     32 C          60.2984   82.2717   11.0890 C.3     1  UNL1        0.2296
     33 O          60.2058   81.2005   12.0095 O.3     1  UNL1       -0.3267
     34 C          59.3826   81.6393   13.0452 C.3     1  UNL1        0.1783
     35 C          58.7650   82.9221   12.5684 C.3     1  UNL1        0.1909
     36 O          59.6546   83.4153   11.6182 O.3     1  UNL1       -0.3255
     37 C          59.6518   81.8727    9.7577 C.ar    1  UNL1        0.0409
     38 C          58.4669   82.5190    9.3395 C.ar    1  UNL1        0.0022
     39 C          57.8636   82.1975    8.1227 C.ar    1  UNL1        0.0113
     40 C          58.4377   81.2409    7.2872 C.ar    1  UNL1        0.0585
     41 CL         57.6779   80.8419    5.7573 Cl      1  UNL1       -0.0822
     42 C          59.6260   80.6131    7.6623 C.ar    1  UNL1        0.0226
     43 C          60.2446   80.9252    8.8796 C.ar    1  UNL1        0.0591
     44 CL         61.7722   80.1181    9.2287 Cl      1  UNL1       -0.0824
     45 C          61.7851   82.6031   10.8429 C.3     1  UNL1        0.1679
     46 C          62.1449   84.7985    9.6186 C.ar    1  UNL1        0.1205
     47 N          62.3641   86.1029    9.8993 N.ar    1  UNL1       -0.2293
     48 C          62.3406   86.1660   11.2454 C.ar    1  UNL1        0.1188
     49 C          62.1279   84.9093   11.7620 C.ar    1  UNL1        0.0979
     50 N          62.0024   84.0495   10.7365 N.ar    1  UNL1       -0.3084
     51 C          60.9207   84.5609    7.4235 C.3     1  UNL1        0.0084
     52 C          62.1813   84.2341    8.2218 C.3     1  UNL1        0.0640
@<TRIPOS>BOND
     1    51    52    1
     2    52    46    1
     3    46    47   ar
     4    47    48   ar
     5    48    49   ar
     6    49    50   ar
     7    50    45    1
     8    32    45    1
     9    32    37    1
    10    37    38   ar
    11    38    39   ar
    12    39    40   ar
    13    40    41    1
    14    40    42   ar
    15    42    43   ar
    16    43    44    1
    17    32    33    1
    18    33    34    1
    19    34    35    1
    20    35    31    1
    21    31    30    1
    22    30     1    1
    23     1     2   ar
    24     2     3   ar
    25     3     4   ar
    26     4     7    1
    27     7     8    1
    28     8     9    1
    29     9    10    1
    30    10    13    1
    31    13    14   ar
    32    14    15   ar
    33    15    16   ar
    34    16    19    1
    35    19    20   ar
    36    20    21    1
    37    20    22   ar
    38    22    23   ar
    39    23    26    1
    40    26    27    1
    41    26    28    1
    42    28    29    1
    43    23    24   ar
    44    24    25    2
    45    16    17   ar
    46    17    18   ar
    47    10    11    1
    48    11    12    1
    49     4     5   ar
    50     5     6   ar
    51    35    36    1
    52    50    46   ar
    53    36    32    1
    54    43    37   ar
    55     6     1   ar
    56    12     7    1
    57    18    13   ar
    58    24    19   ar
@<TRIPOS>MOLECULE
*****
 52 58 0 0 0
SMALL
GASTEIGER

@<TRIPOS>ATOM
      1 C          58.1082   85.5004   11.9132 C.ar    1  UNL1        0.1388
      2 C          57.8948   85.0944   10.5912 C.ar    1  UNL1        0.0382
      3 C          58.3009   85.9013    9.5250 C.ar    1  UNL1        0.0176
      4 C          58.9208   87.1364    9.7663 C.ar    1  UNL1        0.0481
      5 C          59.1138   87.5563   11.0920 C.ar    1  UNL1        0.0176
      6 C          58.7082   86.7482   12.1578 C.ar    1  UNL1        0.0382
      7 N          59.3436   87.9619    8.6648 N.pl3   1  UNL1       -0.3041
      8 C          58.8944   87.6482    7.3031 C.3     1  UNL1        0.1122
      9 C          58.6252   88.9395    6.5330 C.3     1  UNL1        0.1122
     10 N          59.7665   89.8514    6.6729 N.pl3   1  UNL1       -0.3041
     11 C          60.2271   90.1691    8.0300 C.3     1  UNL1        0.1122
     12 C          60.4783   88.8811    8.8178 C.3     1  UNL1        0.1122
     13 C          60.1986   90.6423    5.5498 C.ar    1  UNL1        0.0480
     14 C          61.4746   90.4583    4.9916 C.ar    1  UNL1        0.0160
     15 C          61.8863   91.2280    3.9001 C.ar    1  UNL1        0.0190
     16 C          61.0316   92.1958    3.3516 C.ar    1  UNL1        0.0702
     17 C          59.7517   92.3703    3.8992 C.ar    1  UNL1        0.0190
     18 C          59.3398   91.6022    4.9917 C.ar    1  UNL1        0.0160
     19 N          61.4487   92.9807    2.2227 N.ar    1  UNL1       -0.2378
     20 C          60.7274   93.3715    1.1446 C.ar    1  UNL1        0.1998
     21 I          58.7234   92.8387    0.7354 I       1  UNL1        0.0018
     22 N          61.4768   94.0960    0.2846 N.ar    1  UNL1       -0.1415
     23 N          62.6879   94.1730    0.8171 N.ar    1  UNL1       -0.2021
     24 C          62.6669   93.4986    1.9803 C.ar    1  UNL1        0.3525
     25 O          63.6555   93.3853    2.7549 O.2     1  UNL1       -0.2444
     26 C          63.8179   94.8924    0.2194 C.3     1  UNL1        0.1099
     27 C          65.1353   94.2961    0.7223 C.3     1  UNL1        0.0265
     28 C          63.7446   94.8350   -1.3178 C.3     1  UNL1        0.0245
     29 C          63.7629   93.3979   -1.8368 C.3     1  UNL1        0.0021
     30 O          57.7000   84.6415   12.9449 O.3     1  UNL1       -0.4727
     31 C          58.3848   83.4606   13.3670 C.3     1  UNL1        0.2374
     32 C          61.8174   83.7798   12.4857 C.3     1  UNL1        0.2296
     33 O          61.7922   82.3947   12.7760 O.3     1  UNL1       -0.3267
     34 C          60.4553   82.0581   12.9813 C.3     1  UNL1        0.1783
     35 C          59.6551   83.2459   12.5305 C.3     1  UNL1        0.1909
     36 O          60.5231   84.3275   12.6499 O.3     1  UNL1       -0.3255
     37 C          62.3049   84.0029   11.0497 C.ar    1  UNL1        0.0409
     38 C          61.5496   84.8199   10.1786 C.ar    1  UNL1        0.0022
     39 C          61.9752   85.0635    8.8719 C.ar    1  UNL1        0.0113
     40 C          63.1713   84.5163    8.4110 C.ar    1  UNL1        0.0585
     41 CL         63.7041   84.8276    6.7689 Cl      1  UNL1       -0.0822
     42 C          63.9519   83.7340    9.2628 C.ar    1  UNL1        0.0226
     43 C          63.5396   83.4807   10.5773 C.ar    1  UNL1        0.0591
     44 CL         64.6284   82.5306   11.5864 Cl      1  UNL1       -0.0824
     45 C          62.7864   84.4851   13.4575 C.3     1  UNL1        0.1679
     46 C          62.2545   86.8893   14.0781 C.ar    1  UNL1        0.1205
     47 N          61.4967   87.5738   14.9644 N.ar    1  UNL1       -0.2293
     48 C          60.8486   86.6192   15.6609 C.ar    1  UNL1        0.1188
     49 C          61.2300   85.3782   15.2069 C.ar    1  UNL1        0.0979
     50 N          62.1134   85.5498   14.2085 N.ar    1  UNL1       -0.3084
     51 C          62.5689   88.0680   11.8678 C.3     1  UNL1        0.0084
     52 C          63.2335   87.5490   13.1415 C.3     1  UNL1        0.0640
@<TRIPOS>BOND
     1    51    52    1
     2    52    46    1
     3    46    47   ar
     4    47    48   ar
     5    48    49   ar
     6    49    50   ar
     7    50    45    1
     8    32    45    1
     9    32    37    1
    10    37    38   ar
    11    38    39   ar
    12    39    40   ar
    13    40    41    1
    14    40    42   ar
    15    42    43   ar
    16    43    44    1
    17    32    33    1
    18    33    34    1
    19    34    35    1
    20    35    31    1
    21    31    30    1
    22    30     1    1
    23     1     2   ar
    24     2     3   ar
    25     3     4   ar
    26     4     7    1
    27     7     8    1
    28     8     9    1
    29     9    10    1
    30    10    13    1
    31    13    14   ar
    32    14    15   ar
    33    15    16   ar
    34    16    19    1
    35    19    20   ar
    36    20    21    1
    37    20    22   ar
    38    22    23   ar
    39    23    26    1
    40    26    27    1
    41    26    28    1
    42    28    29    1
    43    23    24   ar
    44    24    25    2
    45    16    17   ar
    46    17    18   ar
    47    10    11    1
    48    11    12    1
    49     4     5   ar
    50     5     6   ar
    51    35    36    1
    52    50    46   ar
    53    36    32    1
    54    43    37   ar
    55     6     1   ar
    56    12     7    1
    57    18    13   ar
    58    24    19   ar
@<TRIPOS>MOLECULE
*****
 52 58 0 0 0
SMALL
GASTEIGER

@<TRIPOS>ATOM
      1 C          60.3289   86.5202   13.2818 C.ar    1  UNL1        0.1388
      2 C          61.5535   86.8525   12.6920 C.ar    1  UNL1        0.0382
      3 C          61.5943   87.5045   11.4566 C.ar    1  UNL1        0.0176
      4 C          60.4055   87.8268   10.7853 C.ar    1  UNL1        0.0481
      5 C          59.1765   87.4725   11.3641 C.ar    1  UNL1        0.0176
      6 C          59.1366   86.8212   12.6002 C.ar    1  UNL1        0.0382
      7 N          60.4517   88.5044    9.5155 N.pl3   1  UNL1       -0.3041
      8 C          60.0050   87.8109    8.3014 C.3     1  UNL1        0.1122
      9 C          59.2804   88.7895    7.3793 C.3     1  UNL1        0.1122
     10 N          60.0884   90.0020    7.2042 N.pl3   1  UNL1       -0.3041
     11 C          60.5441   90.7017    8.4115 C.3     1  UNL1        0.1122
     12 C          61.2523   89.7245    9.3529 C.3     1  UNL1        0.1122
     13 C          60.1523   90.6456    5.9177 C.ar    1  UNL1        0.0480
     14 C          61.3436   90.6437    5.1731 C.ar    1  UNL1        0.0160
     15 C          61.3975   91.2683    3.9241 C.ar    1  UNL1        0.0190
     16 C          60.2638   91.9078    3.4010 C.ar    1  UNL1        0.0702
     17 C          59.0696   91.8979    4.1373 C.ar    1  UNL1        0.0190
     18 C          59.0151   91.2748    5.3871 C.ar    1  UNL1        0.0160
     19 N          60.3139   92.5414    2.1123 N.ar    1  UNL1       -0.2378
     20 C          61.3917   92.9948    1.4281 C.ar    1  UNL1        0.1998
     21 I          63.3883   92.9972    2.1217 I       1  UNL1        0.0018
     22 N          61.0325   93.5419    0.2458 N.ar    1  UNL1       -0.1415
     23 N          59.7136   93.4356    0.1700 N.ar    1  UNL1       -0.2021
     24 C          59.2861   92.8364    1.2953 C.ar    1  UNL1        0.3525
     25 O          58.0796   92.5659    1.5430 O.2     1  UNL1       -0.2444
     26 C          58.9043   93.8878   -0.9668 C.3     1  UNL1        0.1099
     27 C          59.7260   94.8384   -1.8414 C.3     1  UNL1        0.0265
     28 C          58.4044   92.6850   -1.7884 C.3     1  UNL1        0.0245
     29 C          56.8869   92.5270   -1.7036 C.3     1  UNL1        0.0021
     30 O          60.3460   85.8856   14.5330 O.3     1  UNL1       -0.4727
     31 C          61.3866   85.0388   15.0247 C.3     1  UNL1        0.2374
     32 C          61.7265   82.9838   12.1397 C.3     1  UNL1        0.2296
     33 O          62.9006   82.5942   12.8275 O.3     1  UNL1       -0.3267
     34 C          62.8386   83.1917   14.0852 C.3     1  UNL1        0.1783
     35 C          61.4443   83.7324   14.2189 C.3     1  UNL1        0.1909
     36 O          61.0110   83.9302   12.9109 O.3     1  UNL1       -0.3255
     37 C          60.8499   81.7561   11.8675 C.ar    1  UNL1        0.0409
     38 C          59.5567   81.6866   12.4330 C.ar    1  UNL1        0.0022
     39 C          58.7226   80.5948   12.1877 C.ar    1  UNL1        0.0113
     40 C          59.1496   79.5592   11.3583 C.ar    1  UNL1        0.0585
     41 CL         58.0968   78.1903   11.0502 Cl      1  UNL1       -0.0822
     42 C          60.4091   79.6210   10.7609 C.ar    1  UNL1        0.0226
     43 C          61.2579   80.7101   10.9960 C.ar    1  UNL1        0.0591
     44 CL         62.8016   80.7172   10.1453 Cl      1  UNL1       -0.0824
     45 C          62.1166   83.6277   10.7929 C.3     1  UNL1        0.1679
     46 C          60.8745   84.2250    8.6601 C.ar    1  UNL1        0.1205
     47 N          59.6121   84.4800    8.2482 N.ar    1  UNL1       -0.2293
     48 C          58.8584   84.3194    9.3539 C.ar    1  UNL1        0.1188
     49 C          59.6653   83.9901   10.4179 C.ar    1  UNL1        0.0979
     50 N          60.9342   83.9285    9.9791 N.ar    1  UNL1       -0.3084
     51 C          61.7213   84.4030    6.2885 C.3     1  UNL1        0.0084
     52 C          62.0825   84.3779    7.7724 C.3     1  UNL1        0.0640
@<TRIPOS>BOND
     1    51    52    1
     2    52    46    1
     3    46    47   ar
     4    47    48   ar
     5    48    49   ar
     6    49    50   ar
     7    50    45    1
     8    32    45    1
     9    32    37    1
    10    37    38   ar
    11    38    39   ar
    12    39    40   ar
    13    40    41    1
    14    40    42   ar
    15    42    43   ar
    16    43    44    1
    17    32    33    1
    18    33    34    1
    19    34    35    1
    20    35    31    1
    21    31    30    1
    22    30     1    1
    23     1     2   ar
    24     2     3   ar
    25     3     4   ar
    26     4     7    1
    27     7     8    1
    28     8     9    1
    29     9    10    1
    30    10    13    1
    31    13    14   ar
    32    14    15   ar
    33    15    16   ar
    34    16    19    1
    35    19    20   ar
    36    20    21    1
    37    20    22   ar
    38    22    23   ar
    39    23    26    1
    40    26    27    1
    41    26    28    1
    42    28    29    1
    43    23    24   ar
    44    24    25    2
    45    16    17   ar
    46    17    18   ar
    47    10    11    1
    48    11    12    1
    49     4     5   ar
    50     5     6   ar
    51    35    36    1
    52    50    46   ar
    53    36    32    1
    54    43    37   ar
    55     6     1   ar
    56    12     7    1
    57    18    13   ar
    58    24    19   ar
@<TRIPOS>MOLECULE
*****
 52 58 0 0 0
SMALL
GASTEIGER

@<TRIPOS>ATOM
      1 C          58.5511   81.7719   12.0324 C.ar    1  UNL1        0.1388
      2 C          58.0749   83.0844   11.9387 C.ar    1  UNL1        0.0382
      3 C          58.8659   84.1593   12.3531 C.ar    1  UNL1        0.0176
      4 C          60.1471   83.9357   12.8789 C.ar    1  UNL1        0.0481
      5 C          60.6170   82.6179   12.9962 C.ar    1  UNL1        0.0176
      6 C          59.8255   81.5435   12.5805 C.ar    1  UNL1        0.0382
      7 N          60.9616   85.0465   13.2988 N.pl3   1  UNL1       -0.3041
      8 C          62.3293   85.1844   12.7842 C.3     1  UNL1        0.1122
      9 C          62.6507   86.6588   12.5481 C.3     1  UNL1        0.1122
     10 N          62.2953   87.4437   13.7362 N.pl3   1  UNL1       -0.3041
     11 C          60.9314   87.3107   14.2621 C.3     1  UNL1        0.1122
     12 C          60.5912   85.8345   14.4811 C.3     1  UNL1        0.1122
     13 C          63.1414   88.5280   14.1629 C.ar    1  UNL1        0.0480
     14 C          63.3183   88.8048   15.5288 C.ar    1  UNL1        0.0160
     15 C          64.1430   89.8573   15.9356 C.ar    1  UNL1        0.0190
     16 C          64.8005   90.6519   14.9848 C.ar    1  UNL1        0.0702
     17 C          64.6359   90.3672   13.6209 C.ar    1  UNL1        0.0190
     18 C          63.8103   89.3159   13.2130 C.ar    1  UNL1        0.0160
     19 N          65.6573   91.7277   15.4011 N.ar    1  UNL1       -0.2378
     20 C          65.4288   92.6871   16.3299 C.ar    1  UNL1        0.1998
     21 I          63.6353   92.9593   17.4147 I       1  UNL1        0.0018
     22 N          66.4766   93.5341   16.4339 N.ar    1  UNL1       -0.1415
     23 N          67.3858   93.1124   15.5667 N.ar    1  UNL1       -0.2021
     24 C          66.8875   92.0284   14.9462 C.ar    1  UNL1        0.3525
     25 O          67.5031   91.3660   14.0674 O.2     1  UNL1       -0.2444
     26 C          68.6980   93.7359   15.3644 C.3     1  UNL1        0.1099
     27 C          68.9575   94.7651   16.4677 C.3     1  UNL1        0.0265
     28 C          69.8075   92.6682   15.3422 C.3     1  UNL1        0.0245
     29 C          69.9216   91.9358   16.6785 C.3     1  UNL1        0.0021
     30 O          57.7235   80.7324   11.5817 O.3     1  UNL1       -0.4727
     31 C          57.6094   80.2835   10.2299 C.3     1  UNL1        0.2374
     32 C          59.7325   82.3130    8.2213 C.3     1  UNL1        0.2296
     33 O          58.9898   81.6855    7.1927 O.3     1  UNL1       -0.3267
     34 C          57.9749   80.9656    7.8209 C.3     1  UNL1        0.1783
     35 C          57.9767   81.4118    9.2545 C.3     1  UNL1        0.1909
     36 O          59.2702   81.8719    9.4838 O.3     1  UNL1       -0.3255
     37 C          59.5915   83.8355    8.1118 C.ar    1  UNL1        0.0409
     38 C          58.6897   84.5127    8.9633 C.ar    1  UNL1        0.0022
     39 C          58.5524   85.9004    8.9072 C.ar    1  UNL1        0.0113
     40 C          59.3241   86.6455    8.0172 C.ar    1  UNL1        0.0585
     41 CL         59.1506   88.3898    7.9521 Cl      1  UNL1       -0.0822
     42 C          60.2461   86.0033    7.1899 C.ar    1  UNL1        0.0226
     43 C          60.3968   84.6114    7.2346 C.ar    1  UNL1        0.0591
     44 CL         61.6307   83.9082    6.1907 Cl      1  UNL1       -0.0824
     45 C          61.2218   81.9374    8.0743 C.3     1  UNL1        0.1679
     46 C          62.5419   81.6139   10.2193 C.ar    1  UNL1        0.1205
     47 N          62.7991   80.6448   11.1264 N.ar    1  UNL1       -0.2293
     48 C          62.0804   79.5868   10.7015 C.ar    1  UNL1        0.1188
     49 C          61.4163   79.9160    9.5430 C.ar    1  UNL1        0.0979
     50 N          61.7058   81.1936    9.2419 N.ar    1  UNL1       -0.3084
     51 C          64.6148   82.9148   10.8392 C.3     1  UNL1        0.0084
     52 C          63.2124   82.9634   10.2359 C.3     1  UNL1        0.0640
@<TRIPOS>BOND
     1    51    52    1
     2    52    46    1
     3    46    47   ar
     4    47    48   ar
     5    48    49   ar
     6    49    50   ar
     7    50    45    1
     8    32    45    1
     9    32    37    1
    10    37    38   ar
    11    38    39   ar
    12    39    40   ar
    13    40    41    1
    14    40    42   ar
    15    42    43   ar
    16    43    44    1
    17    32    33    1
    18    33    34    1
    19    34    35    1
    20    35    31    1
    21    31    30    1
    22    30     1    1
    23     1     2   ar
    24     2     3   ar
    25     3     4   ar
    26     4     7    1
    27     7     8    1
    28     8     9    1
    29     9    10    1
    30    10    13    1
    31    13    14   ar
    32    14    15   ar
    33    15    16   ar
    34    16    19    1
    35    19    20   ar
    36    20    21    1
    37    20    22   ar
    38    22    23   ar
    39    23    26    1
    40    26    27    1
    41    26    28    1
    42    28    29    1
    43    23    24   ar
    44    24    25    2
    45    16    17   ar
    46    17    18   ar
    47    10    11    1
    48    11    12    1
    49     4     5   ar
    50     5     6   ar
    51    35    36    1
    52    50    46   ar
    53    36    32    1
    54    43    37   ar
    55     6     1   ar
    56    12     7    1
    57    18    13   ar
    58    24    19   ar
@<TRIPOS>MOLECULE
*****
 52 58 0 0 0
SMALL
GASTEIGER

@<TRIPOS>ATOM
      1 C          59.4676   86.8795   13.9464 C.ar    1  UNL1        0.1388
      2 C          59.8763   88.2115   13.8163 C.ar    1  UNL1        0.0382
      3 C          59.9219   88.8221   12.5601 C.ar    1  UNL1        0.0176
      4 C          59.5669   88.1032   11.4090 C.ar    1  UNL1        0.0481
      5 C          59.1800   86.7595   11.5349 C.ar    1  UNL1        0.0176
      6 C          59.1337   86.1500   12.7919 C.ar    1  UNL1        0.0382
      7 N          59.6091   88.7379   10.1171 N.pl3   1  UNL1       -0.3041
      8 C          59.9897   90.1516   10.0105 C.3     1  UNL1        0.1122
      9 C          60.8274   90.3720    8.7525 C.3     1  UNL1        0.1122
     10 N          60.1596   89.7647    7.5953 N.pl3   1  UNL1       -0.3041
     11 C          59.7707   88.3526    7.6921 C.3     1  UNL1        0.1122
     12 C          58.9494   88.1165    8.9619 C.3     1  UNL1        0.1122
     13 C          60.1807   90.4319    6.3194 C.ar    1  UNL1        0.0480
     14 C          61.3571   90.4765    5.5527 C.ar    1  UNL1        0.0160
     15 C          61.3694   91.1238    4.3142 C.ar    1  UNL1        0.0190
     16 C          60.2084   91.7398    3.8238 C.ar    1  UNL1        0.0702
     17 C          59.0293   91.6833    4.5821 C.ar    1  UNL1        0.0190
     18 C          59.0164   91.0376    5.8214 C.ar    1  UNL1        0.0160
     19 N          60.2160   92.3966    2.5458 N.ar    1  UNL1       -0.2378
     20 C          61.2744   92.7828    1.7936 C.ar    1  UNL1        0.1998
     21 I          63.3093   92.6191    2.3415 I       1  UNL1        0.0018
     22 N          60.8758   93.3818    0.6498 N.ar    1  UNL1       -0.1415
     23 N          59.5506   93.3770    0.6674 N.ar    1  UNL1       -0.2021
     24 C          59.1588   92.7866    1.8102 C.ar    1  UNL1        0.3525
     25 O          57.9556   92.6022    2.1396 O.2     1  UNL1       -0.2444
     26 C          58.7002   93.9143   -0.4002 C.3     1  UNL1        0.1099
     27 C          59.5090   94.8817   -1.2686 C.3     1  UNL1        0.0265
     28 C          58.1158   92.7732   -1.2535 C.3     1  UNL1        0.0245
     29 C          56.6408   93.0026   -1.5803 C.3     1  UNL1        0.0021
     30 O          59.4198   86.3232   15.2336 O.3     1  UNL1       -0.4727
     31 C          60.5327   86.1648   16.1157 C.3     1  UNL1        0.2374
     32 C          63.5790   85.8701   14.3008 C.3     1  UNL1        0.2296
     33 O          63.9935   85.2890   15.5231 O.3     1  UNL1       -0.3267
     34 C          62.8501   85.1679   16.3109 C.3     1  UNL1        0.1783
     35 C          61.6887   85.4486   15.4016 C.3     1  UNL1        0.1909
     36 O          62.2152   86.2380   14.3832 O.3     1  UNL1       -0.3255
     37 C          63.7873   84.8753   13.1533 C.ar    1  UNL1        0.0409
     38 C          64.3824   83.6217   13.4201 C.ar    1  UNL1        0.0022
     39 C          64.5665   82.6825   12.4042 C.ar    1  UNL1        0.0113
     40 C          64.1439   82.9627   11.1059 C.ar    1  UNL1        0.0585
     41 CL         64.3743   81.7783    9.8327 Cl      1  UNL1       -0.0822
     42 C          63.5227   84.1801   10.8243 C.ar    1  UNL1        0.0226
     43 C          63.3296   85.1329   11.8326 C.ar    1  UNL1        0.0591
     44 CL         62.4819   86.6112   11.3822 Cl      1  UNL1       -0.0824
     45 C          64.4225   87.1327   14.0266 C.3     1  UNL1        0.1679
     46 C          63.3949   89.4532   14.1147 C.ar    1  UNL1        0.1205
     47 N          62.9652   90.3480   15.0329 N.ar    1  UNL1       -0.2293
     48 C          63.1487   89.7301   16.2165 C.ar    1  UNL1        0.1188
     49 C          63.6991   88.4872   16.0072 C.ar    1  UNL1        0.0979
     50 N          63.8512   88.3131   14.6831 N.ar    1  UNL1       -0.3084
     51 C          64.0284   91.1412   12.3476 C.3     1  UNL1        0.0084
     52 C          63.4683   89.7504   12.6392 C.3     1  UNL1        0.0640
@<TRIPOS>BOND
     1    51    52    1
     2    52    46    1
     3    46    47   ar
     4    47    48   ar
     5    48    49   ar
     6    49    50   ar
     7    50    45    1
     8    32    45    1
     9    32    37    1
    10    37    38   ar
    11    38    39   ar
    12    39    40   ar
    13    40    41    1
    14    40    42   ar
    15    42    43   ar
    16    43    44    1
    17    32    33    1
    18    33    34    1
    19    34    35    1
    20    35    31    1
    21    31    30    1
    22    30     1    1
    23     1     2   ar
    24     2     3   ar
    25     3     4   ar
    26     4     7    1
    27     7     8    1
    28     8     9    1
    29     9    10    1
    30    10    13    1
    31    13    14   ar
    32    14    15   ar
    33    15    16   ar
    34    16    19    1
    35    19    20   ar
    36    20    21    1
    37    20    22   ar
    38    22    23   ar
    39    23    26    1
    40    26    27    1
    41    26    28    1
    42    28    29    1
    43    23    24   ar
    44    24    25    2
    45    16    17   ar
    46    17    18   ar
    47    10    11    1
    48    11    12    1
    49     4     5   ar
    50     5     6   ar
    51    35    36    1
    52    50    46   ar
    53    36    32    1
    54    43    37   ar
    55     6     1   ar
    56    12     7    1
    57    18    13   ar
    58    24    19   ar
@<TRIPOS>MOLECULE
*****
 52 58 0 0 0
SMALL
GASTEIGER

@<TRIPOS>ATOM
      1 C          60.7651   86.5442   13.4288 C.ar    1  UNL1        0.1388
      2 C          61.9572   86.8775   12.7762 C.ar    1  UNL1        0.0382
      3 C          61.9332   87.5302   11.5407 C.ar    1  UNL1        0.0176
      4 C          60.7109   87.8522   10.9324 C.ar    1  UNL1        0.0481
      5 C          59.5139   87.4969   11.5742 C.ar    1  UNL1        0.0176
      6 C          59.5388   86.8449   12.8103 C.ar    1  UNL1        0.0382
      7 N          60.6906   88.5306    9.6623 N.pl3   1  UNL1       -0.3041
      8 C          60.3832   87.7801    8.4388 C.3     1  UNL1        0.1122
      9 C          59.5472   88.6423    7.4952 C.3     1  UNL1        0.1122
     10 N          60.1723   89.9608    7.3380 N.pl3   1  UNL1       -0.3041
     11 C          60.4880   90.7186    8.5548 C.3     1  UNL1        0.1122
     12 C          61.3070   89.8553    9.5174 C.3     1  UNL1        0.1122
     13 C          60.1749   90.6081    6.0517 C.ar    1  UNL1        0.0480
     14 C          61.3393   90.6381    5.2663 C.ar    1  UNL1        0.0160
     15 C          61.3337   91.2662    4.0177 C.ar    1  UNL1        0.0190
     16 C          60.1665   91.8772    3.5360 C.ar    1  UNL1        0.0702
     17 C          58.9992   91.8352    4.3133 C.ar    1  UNL1        0.0190
     18 C          59.0042   91.2088    5.5626 C.ar    1  UNL1        0.0160
     19 N          60.1555   92.5141    2.2480 N.ar    1  UNL1       -0.2378
     20 C          61.1992   92.9745    1.5173 C.ar    1  UNL1        0.1998
     21 I          63.2250   92.9852    2.1205 I       1  UNL1        0.0018
     22 N          60.7845   93.5227    0.3539 N.ar    1  UNL1       -0.1415
     23 N          59.4641   93.4101    0.3371 N.ar    1  UNL1       -0.2021
     24 C          59.0906   92.8061    1.4789 C.ar    1  UNL1        0.3525
     25 O          57.8978   92.5289    1.7799 O.2     1  UNL1       -0.2444
     26 C          58.6023   93.8610   -0.7609 C.3     1  UNL1        0.1099
     27 C          59.3719   94.8360   -1.6559 C.3     1  UNL1        0.0265
     28 C          58.0907   92.6591   -1.5767 C.3     1  UNL1        0.0245
     29 C          56.5712   92.6832   -1.7366 C.3     1  UNL1        0.0021
     30 O          60.8477   85.9089   14.6770 O.3     1  UNL1       -0.4727
     31 C          61.6643   84.7775   14.9848 C.3     1  UNL1        0.2374
     32 C          60.8178   83.4176   11.8074 C.3     1  UNL1        0.2296
     33 O          62.2236   83.2651   11.7451 O.3     1  UNL1       -0.3267
     34 C          62.7139   83.6005   13.0060 C.3     1  UNL1        0.1783
     35 C          61.5150   83.6954   13.9049 C.3     1  UNL1        0.1909
     36 O          60.4515   83.9799   13.0532 O.3     1  UNL1       -0.3255
     37 C          60.1370   82.0566   11.6239 C.ar    1  UNL1        0.0409
     38 C          60.9290   80.8893   11.5399 C.ar    1  UNL1        0.0022
     39 C          60.3421   79.6312   11.3958 C.ar    1  UNL1        0.0113
     40 C          58.9546   79.5060   11.3530 C.ar    1  UNL1        0.0585
     41 CL         58.2211   77.9226   11.1749 Cl      1  UNL1       -0.0822
     42 C          58.1501   80.6403   11.4681 C.ar    1  UNL1        0.0226
     43 C          58.7233   81.9100   11.6142 C.ar    1  UNL1        0.0591
     44 CL         57.6165   83.2676   11.8108 Cl      1  UNL1       -0.0824
     45 C          60.3585   84.3624   10.6773 C.3     1  UNL1        0.1679
     46 C          61.0889   83.9676    8.2775 C.ar    1  UNL1        0.1205
     47 N          62.2023   84.0682    7.5169 N.ar    1  UNL1       -0.2293
     48 C          63.1394   84.5545    8.3547 C.ar    1  UNL1        0.1188
     49 C          62.5951   84.7245    9.6062 C.ar    1  UNL1        0.0979
     50 N          61.3032   84.3569    9.5556 N.ar    1  UNL1       -0.3084
     51 C          59.7403   81.8566    7.9636 C.3     1  UNL1        0.0084
     52 C          59.7970   83.3720    7.7805 C.3     1  UNL1        0.0640
@<TRIPOS>BOND
     1    51    52    1
     2    52    46    1
     3    46    47   ar
     4    47    48   ar
     5    48    49   ar
     6    49    50   ar
     7    50    45    1
     8    32    45    1
     9    32    37    1
    10    37    38   ar
    11    38    39   ar
    12    39    40   ar
    13    40    41    1
    14    40    42   ar
    15    42    43   ar
    16    43    44    1
    17    32    33    1
    18    33    34    1
    19    34    35    1
    20    35    31    1
    21    31    30    1
    22    30     1    1
    23     1     2   ar
    24     2     3   ar
    25     3     4   ar
    26     4     7    1
    27     7     8    1
    28     8     9    1
    29     9    10    1
    30    10    13    1
    31    13    14   ar
    32    14    15   ar
    33    15    16   ar
    34    16    19    1
    35    19    20   ar
    36    20    21    1
    37    20    22   ar
    38    22    23   ar
    39    23    26    1
    40    26    27    1
    41    26    28    1
    42    28    29    1
    43    23    24   ar
    44    24    25    2
    45    16    17   ar
    46    17    18   ar
    47    10    11    1
    48    11    12    1
    49     4     5   ar
    50     5     6   ar
    51    35    36    1
    52    50    46   ar
    53    36    32    1
    54    43    37   ar
    55     6     1   ar
    56    12     7    1
    57    18    13   ar
    58    24    19   ar
@<TRIPOS>MOLECULE
*****
 52 58 0 0 0
SMALL
GASTEIGER

@<TRIPOS>ATOM
      1 C          57.9150   84.4748    8.6903 C.ar    1  UNL1        0.1388
      2 C          59.0697   84.8597    7.9998 C.ar    1  UNL1        0.0382
      3 C          59.9850   85.7415    8.5806 C.ar    1  UNL1        0.0176
      4 C          59.7533   86.2614    9.8627 C.ar    1  UNL1        0.0481
      5 C          58.5834   85.8953   10.5471 C.ar    1  UNL1        0.0176
      6 C          57.6689   85.0125    9.9658 C.ar    1  UNL1        0.0382
      7 N          60.7022   87.1648   10.4603 N.pl3   1  UNL1       -0.3041
      8 C          61.9338   87.5106    9.7405 C.3     1  UNL1        0.1122
      9 C          62.2829   88.9780    9.9807 C.3     1  UNL1        0.1122
     10 N          62.2363   89.2736   11.4175 N.pl3   1  UNL1       -0.3041
     11 C          61.0111   88.9283   12.1484 C.3     1  UNL1        0.1122
     12 C          60.6399   87.4650   11.8962 C.3     1  UNL1        0.1122
     13 C          63.2160   90.1505   12.0047 C.ar    1  UNL1        0.0480
     14 C          63.8697   91.1197   11.2256 C.ar    1  UNL1        0.0160
     15 C          64.8176   91.9689   11.8029 C.ar    1  UNL1        0.0190
     16 C          65.1303   91.8610   13.1662 C.ar    1  UNL1        0.0702
     17 C          64.4676   90.9031   13.9483 C.ar    1  UNL1        0.0190
     18 C          63.5205   90.0524   13.3715 C.ar    1  UNL1        0.0160
     19 N          66.0968   92.7402   13.7641 N.ar    1  UNL1       -0.2378
     20 C          66.5887   93.9111   13.2927 C.ar    1  UNL1        0.1998
     21 I          66.1399   94.7783   11.4181 I       1  UNL1        0.0018
     22 N          67.4940   94.4448   14.1422 N.ar    1  UNL1       -0.1415
     23 N          67.5810   93.6107   15.1684 N.ar    1  UNL1       -0.2021
     24 C          66.7417   92.5863   14.9352 C.ar    1  UNL1        0.3525
     25 O          66.5653   91.6176   15.7230 O.2     1  UNL1       -0.2444
     26 C          68.4396   93.8160   16.3398 C.3     1  UNL1        0.1099
     27 C          69.1011   92.4929   16.7348 C.3     1  UNL1        0.0265
     28 C          69.5023   94.8924   16.0506 C.3     1  UNL1        0.0245
     29 C          70.7416   94.3045   15.3771 C.3     1  UNL1        0.0021
     30 O          57.0411   83.5702    8.0686 O.3     1  UNL1       -0.4727
     31 C          57.3738   82.2471    7.6436 C.3     1  UNL1        0.2374
     32 C          59.9779   80.7457    9.5478 C.3     1  UNL1        0.2296
     33 O          60.1547   80.0372    8.3353 O.3     1  UNL1       -0.3267
     34 C          59.3064   80.6317    7.4028 C.3     1  UNL1        0.1783
     35 C          58.8177   81.9015    8.0376 C.3     1  UNL1        0.1909
     36 O          58.9245   81.6800    9.4076 O.3     1  UNL1       -0.3255
     37 C          61.2762   81.4688    9.9233 C.ar    1  UNL1        0.0409
     38 C          61.2240   82.8168   10.3441 C.ar    1  UNL1        0.0022
     39 C          62.3833   83.4994   10.7155 C.ar    1  UNL1        0.0113
     40 C          63.6160   82.8493   10.6958 C.ar    1  UNL1        0.0585
     41 CL         65.0702   83.7101   11.1664 Cl      1  UNL1       -0.0822
     42 C          63.6890   81.5084   10.3166 C.ar    1  UNL1        0.0226
     43 C          62.5349   80.8088    9.9420 C.ar    1  UNL1        0.0591
     44 CL         62.7304   79.1042    9.5385 Cl      1  UNL1       -0.0824
     45 C          59.6180   79.7501   10.6703 C.3     1  UNL1        0.1679
     46 C          59.5132   81.1504   12.7860 C.ar    1  UNL1        0.1205
     47 N          60.2358   81.3640   13.9087 N.ar    1  UNL1       -0.2293
     48 C          61.2850   80.5254   13.7983 C.ar    1  UNL1        0.1188
     49 C          61.1985   79.8324   12.6135 C.ar    1  UNL1        0.0979
     50 N          60.0809   80.2251   11.9782 N.ar    1  UNL1       -0.3084
     51 C          58.3630   83.3945   12.9062 C.3     1  UNL1        0.0084
     52 C          58.2848   81.9462   12.4273 C.3     1  UNL1        0.0640
@<TRIPOS>BOND
     1    51    52    1
     2    52    46    1
     3    46    47   ar
     4    47    48   ar
     5    48    49   ar
     6    49    50   ar
     7    50    45    1
     8    32    45    1
     9    32    37    1
    10    37    38   ar
    11    38    39   ar
    12    39    40   ar
    13    40    41    1
    14    40    42   ar
    15    42    43   ar
    16    43    44    1
    17    32    33    1
    18    33    34    1
    19    34    35    1
    20    35    31    1
    21    31    30    1
    22    30     1    1
    23     1     2   ar
    24     2     3   ar
    25     3     4   ar
    26     4     7    1
    27     7     8    1
    28     8     9    1
    29     9    10    1
    30    10    13    1
    31    13    14   ar
    32    14    15   ar
    33    15    16   ar
    34    16    19    1
    35    19    20   ar
    36    20    21    1
    37    20    22   ar
    38    22    23   ar
    39    23    26    1
    40    26    27    1
    41    26    28    1
    42    28    29    1
    43    23    24   ar
    44    24    25    2
    45    16    17   ar
    46    17    18   ar
    47    10    11    1
    48    11    12    1
    49     4     5   ar
    50     5     6   ar
    51    35    36    1
    52    50    46   ar
    53    36    32    1
    54    43    37   ar
    55     6     1   ar
    56    12     7    1
    57    18    13   ar
    58    24    19   ar
@<TRIPOS>MOLECULE
*****
 52 58 0 0 0
SMALL
GASTEIGER

@<TRIPOS>ATOM
      1 C          57.9887   84.0041    8.6421 C.ar    1  UNL1        0.1388
      2 C          59.1648   84.3427    7.9637 C.ar    1  UNL1        0.0382
      3 C          60.0579   85.2698    8.5076 C.ar    1  UNL1        0.0176
      4 C          59.7819   85.8820    9.7392 C.ar    1  UNL1        0.0481
      5 C          58.5907   85.5617   10.4096 C.ar    1  UNL1        0.0176
      6 C          57.6985   84.6335    9.8653 C.ar    1  UNL1        0.0382
      7 N          60.7079   86.8320   10.2993 N.pl3   1  UNL1       -0.3041
      8 C          61.8761   87.2591    9.5199 C.3     1  UNL1        0.1122
      9 C          62.1518   88.7414    9.7645 C.3     1  UNL1        0.1122
     10 N          62.1667   89.0151   11.2063 N.pl3   1  UNL1       -0.3041
     11 C          61.0055   88.5888   11.9965 C.3     1  UNL1        0.1122
     12 C          60.7069   87.1095   11.7411 C.3     1  UNL1        0.1122
     13 C          63.1243   89.9406   11.7540 C.ar    1  UNL1        0.0480
     14 C          63.6730   90.9599   10.9579 C.ar    1  UNL1        0.0160
     15 C          64.6001   91.8561   11.4969 C.ar    1  UNL1        0.0190
     16 C          64.9966   91.7459   12.8380 C.ar    1  UNL1        0.0702
     17 C          64.4384   90.7373   13.6378 C.ar    1  UNL1        0.0190
     18 C          63.5124   89.8397   13.0992 C.ar    1  UNL1        0.0160
     19 N          65.9415   92.6728   13.3971 N.ar    1  UNL1       -0.2378
     20 C          66.3819   93.8493   12.8900 C.ar    1  UNL1        0.1998
     21 I          65.8672   94.6561   11.0054 I       1  UNL1        0.0018
     22 N          67.2828   94.4346   13.7096 N.ar    1  UNL1       -0.1415
     23 N          67.4190   93.6281   14.7525 N.ar    1  UNL1       -0.2021
     24 C          66.6132   92.5692   14.5586 C.ar    1  UNL1        0.3525
     25 O          66.4866   91.6134   15.3713 O.2     1  UNL1       -0.2444
     26 C          68.2913   93.8911   15.9021 C.3     1  UNL1        0.1099
     27 C          68.0024   92.8782   17.0132 C.3     1  UNL1        0.0265
     28 C          69.7720   93.8338   15.4829 C.3     1  UNL1        0.0245
     29 C          70.0990   92.5530   14.7162 C.3     1  UNL1        0.0021
     30 O          57.1385   83.0514    8.0606 O.3     1  UNL1       -0.4727
     31 C          57.5422   81.7902    7.5239 C.3     1  UNL1        0.2374
     32 C          59.7648   81.2768   10.2548 C.3     1  UNL1        0.2296
     33 O          58.5637   80.8399   10.8630 O.3     1  UNL1       -0.3267
     34 C          57.5982   80.8148    9.8579 C.3     1  UNL1        0.1783
     35 C          58.3410   80.9922    8.5653 C.3     1  UNL1        0.1909
     36 O          59.5132   81.6564    8.9151 O.3     1  UNL1       -0.3255
     37 C          60.8086   80.1550   10.2967 C.ar    1  UNL1        0.0409
     38 C          61.6697   79.9656    9.1924 C.ar    1  UNL1        0.0022
     39 C          62.6468   78.9692    9.2054 C.ar    1  UNL1        0.0113
     40 C          62.8013   78.1537   10.3252 C.ar    1  UNL1        0.0585
     41 CL         64.0328   76.9046   10.3384 Cl      1  UNL1       -0.0822
     42 C          61.9857   78.3433   11.4413 C.ar    1  UNL1        0.0226
     43 C          61.0010   79.3395   11.4448 C.ar    1  UNL1        0.0591
     44 CL         60.0666   79.5330   12.9268 Cl      1  UNL1       -0.0824
     45 C          60.3108   82.4962   11.0266 C.3     1  UNL1        0.1679
     46 C          62.7506   82.5020   11.7304 C.ar    1  UNL1        0.1205
     47 N          63.9677   82.7620   11.2017 N.ar    1  UNL1       -0.2293
     48 C          63.7160   83.0736    9.9149 C.ar    1  UNL1        0.1188
     49 C          62.3614   83.0179    9.6836 C.ar    1  UNL1        0.0979
     50 N          61.7549   82.6554   10.8270 N.ar    1  UNL1       -0.3084
     51 C          63.4827   81.1296   13.7188 C.3     1  UNL1        0.0084
     52 C          62.5288   82.1987   13.1898 C.3     1  UNL1        0.0640
@<TRIPOS>BOND
     1    51    52    1
     2    52    46    1
     3    46    47   ar
     4    47    48   ar
     5    48    49   ar
     6    49    50   ar
     7    50    45    1
     8    32    45    1
     9    32    37    1
    10    37    38   ar
    11    38    39   ar
    12    39    40   ar
    13    40    41    1
    14    40    42   ar
    15    42    43   ar
    16    43    44    1
    17    32    33    1
    18    33    34    1
    19    34    35    1
    20    35    31    1
    21    31    30    1
    22    30     1    1
    23     1     2   ar
    24     2     3   ar
    25     3     4   ar
    26     4     7    1
    27     7     8    1
    28     8     9    1
    29     9    10    1
    30    10    13    1
    31    13    14   ar
    32    14    15   ar
    33    15    16   ar
    34    16    19    1
    35    19    20   ar
    36    20    21    1
    37    20    22   ar
    38    22    23   ar
    39    23    26    1
    40    26    27    1
    41    26    28    1
    42    28    29    1
    43    23    24   ar
    44    24    25    2
    45    16    17   ar
    46    17    18   ar
    47    10    11    1
    48    11    12    1
    49     4     5   ar
    50     5     6   ar
    51    35    36    1
    52    50    46   ar
    53    36    32    1
    54    43    37   ar
    55     6     1   ar
    56    12     7    1
    57    18    13   ar
    58    24    19   ar
