@<TRIPOS>MOLECULE
*****
 37 41 0 0 0
SMALL
GASTEIGER

@<TRIPOS>ATOM
      1 C         -22.2745   -9.3338  -11.9600 C.2     1  UNL1        0.2506
      2 O         -22.0596   -8.5714  -12.9420 O.2     1  UNL1       -0.2699
      3 N         -23.6284   -9.7129  -11.6311 N.am    1  UNL1       -0.2680
      4 C         -23.9818  -10.0941  -10.2559 C.3     1  UNL1        0.1412
      5 C         -25.3786   -9.6056   -9.8618 C.3     1  UNL1        0.2268
      6 O         -25.5281   -8.2093  -10.1079 O.3     1  UNL1       -0.4739
      7 C         -25.6651   -7.6015  -11.3689 C.ar    1  UNL1        0.1362
      8 C         -26.1759   -6.2995  -11.3900 C.ar    1  UNL1        0.0366
      9 C         -26.3665   -5.6215  -12.5937 C.ar    1  UNL1        0.0031
     10 C         -26.0456   -6.2341  -13.8134 C.ar    1  UNL1       -0.0000
     11 C         -25.5154   -7.5348  -13.8022 C.ar    1  UNL1        0.0004
     12 C         -25.3035   -8.2234  -12.5939 C.ar    1  UNL1        0.0317
     13 C         -24.6775   -9.5945  -12.6488 C.3     1  UNL1        0.1236
     14 C         -26.2544   -5.5154  -15.0959 C.ar    1  UNL1        0.0015
     15 C         -25.3316   -5.6727  -16.1679 C.ar    1  UNL1        0.0016
     16 C         -25.5194   -4.9947  -17.3870 C.ar    1  UNL1        0.0206
     17 C         -26.6330   -4.1704  -17.5051 C.ar    1  UNL1        0.0985
     18 N         -27.0034   -3.4332  -18.5676 N.ar    1  UNL1       -0.2241
     19 C         -28.1449   -2.8344  -18.1363 C.ar    1  UNL1        0.1750
     20 N         -28.4857   -3.1698  -16.8687 N.ar    1  UNL1       -0.3349
     21 C         -27.5209   -4.0143  -16.4864 C.ar    1  UNL1        0.0757
     22 C         -27.3746   -4.6652  -15.2646 C.ar    1  UNL1        0.0185
     23 H         -29.3116   -2.8427  -16.3198 H       1  UNL1        0.1675
     24 C         -20.2611   -8.9695  -10.4731 C.ar    1  UNL1        0.0503
     25 C         -19.1427   -9.5077   -9.8065 C.ar    1  UNL1        0.0328
     26 C         -18.8807  -10.8821   -9.8387 C.ar    1  UNL1        0.1069
     27 C         -19.7334  -11.7337  -10.5462 C.ar    1  UNL1        0.0186
     28 C         -20.8444  -11.2181  -11.2125 C.ar    1  UNL1        0.0071
     29 C         -21.1207   -9.8420  -11.1847 C.ar    1  UNL1        0.0667
     30 S         -17.4645  -11.5244   -9.0127 S.O2    1  UNL1        0.0105
     31 C         -17.5630  -11.1274   -7.2823 C.3     1  UNL1        0.1816
     32 O         -17.4116  -13.0163   -9.1872 O.2     1  UNL1       -0.1686
     33 O         -16.2132  -10.9259   -9.5920 O.2     1  UNL1       -0.1686
     34 N         -20.5598   -7.5597  -10.3850 N.pl3   1  UNL1       -0.3325
     35 H         -20.2144   -6.9209  -11.1362 H       1  UNL1        0.1468
     36 C         -21.7248   -5.5193   -9.6510 C.3     1  UNL1        0.0229
     37 C         -21.3129   -6.9434   -9.2914 C.3     1  UNL1        0.0871
@<TRIPOS>BOND
     1    36    37    1
     2    37    34    1
     3    34    24    1
     4    24    25   ar
     5    25    26   ar
     6    26    30    1
     7    30    31    1
     8    30    32    2
     9    30    33    2
    10    26    27   ar
    11    27    28   ar
    12    28    29   ar
    13    29     1    1
    14     1     2    2
    15     1     3   am
    16     3     4    1
    17     4     5    1
    18     5     6    1
    19     6     7    1
    20     7     8   ar
    21     8     9   ar
    22     9    10   ar
    23    10    14    1
    24    14    15   ar
    25    15    16   ar
    26    16    17   ar
    27    17    18   ar
    28    18    19   ar
    29    19    20   ar
    30    20    21   ar
    31    21    22   ar
    32    10    11   ar
    33    11    12   ar
    34    12    13    1
    35    29    24   ar
    36    13     3    1
    37    12     7   ar
    38    22    14   ar
    39    21    17   ar
    40    34    35    1
    41    20    23    1
@<TRIPOS>MOLECULE
*****
 37 41 0 0 0
SMALL
GASTEIGER

@<TRIPOS>ATOM
      1 C         -22.2572   -9.3708  -12.1886 C.2     1  UNL1        0.2506
      2 O         -22.0642   -8.6265  -13.1889 O.2     1  UNL1       -0.2699
      3 N         -23.6058   -9.6982  -11.7897 N.am    1  UNL1       -0.2680
      4 C         -23.9044  -10.0527  -10.3944 C.3     1  UNL1        0.1412
      5 C         -25.2621   -9.5108   -9.9385 C.3     1  UNL1        0.2268
      6 O         -25.3744   -8.1126  -10.1936 O.3     1  UNL1       -0.4739
      7 C         -25.5518   -7.5130  -11.4535 C.ar    1  UNL1        0.1362
      8 C         -26.0171   -6.1939  -11.4651 C.ar    1  UNL1        0.0366
      9 C         -26.2426   -5.5217  -12.6659 C.ar    1  UNL1        0.0031
     10 C         -26.0038   -6.1577  -13.8925 C.ar    1  UNL1       -0.0000
     11 C         -25.5196   -7.4763  -13.8918 C.ar    1  UNL1        0.0004
     12 C         -25.2729   -8.1598  -12.6872 C.ar    1  UNL1        0.0317
     13 C         -24.6989   -9.5527  -12.7564 C.3     1  UNL1        0.1236
     14 C         -26.2500   -5.4449  -15.1718 C.ar    1  UNL1        0.0015
     15 C         -25.3529   -5.5988  -16.2659 C.ar    1  UNL1        0.0016
     16 C         -25.5762   -4.9265  -17.4821 C.ar    1  UNL1        0.0206
     17 C         -26.6988   -4.1111  -17.5751 C.ar    1  UNL1        0.0985
     18 N         -27.1013   -3.3804  -18.6303 N.ar    1  UNL1       -0.2241
     19 C         -28.2363   -2.7889  -18.1727 C.ar    1  UNL1        0.1750
     20 N         -28.5428   -3.1226  -16.8960 N.ar    1  UNL1       -0.3349
     21 C         -27.5623   -3.9584  -16.5351 C.ar    1  UNL1        0.0757
     22 C         -27.3806   -4.6039  -15.3152 C.ar    1  UNL1        0.0185
     23 H         -29.3573   -2.8000  -16.3277 H       1  UNL1        0.1675
     24 C         -20.7829  -11.2959  -11.4690 C.ar    1  UNL1        0.0503
     25 C         -19.6907  -11.7579  -10.7084 C.ar    1  UNL1        0.0328
     26 C         -18.9097  -10.8693   -9.9608 C.ar    1  UNL1        0.1069
     27 C         -19.2185   -9.5064   -9.9608 C.ar    1  UNL1        0.0186
     28 C         -20.2964   -9.0319  -10.7071 C.ar    1  UNL1        0.0071
     29 C         -21.0853   -9.9120  -11.4645 C.ar    1  UNL1        0.0667
     30 S         -17.5625  -11.4775   -9.0038 S.O2    1  UNL1        0.0105
     31 C         -17.7487  -10.9407   -7.3190 C.3     1  UNL1        0.1816
     32 O         -17.5430  -12.9794   -9.0569 O.2     1  UNL1       -0.1686
     33 O         -16.2631  -10.9581   -9.5528 O.2     1  UNL1       -0.1686
     34 N         -21.5467  -12.2088  -12.2862 N.pl3   1  UNL1       -0.3325
     35 H         -22.5083  -12.4794  -11.9799 H       1  UNL1        0.1468
     36 C         -21.8553  -12.2984  -14.7267 C.3     1  UNL1        0.0229
     37 C         -21.0587  -12.8078  -13.5296 C.3     1  UNL1        0.0871
@<TRIPOS>BOND
     1    36    37    1
     2    37    34    1
     3    34    24    1
     4    24    25   ar
     5    25    26   ar
     6    26    30    1
     7    30    31    1
     8    30    32    2
     9    30    33    2
    10    26    27   ar
    11    27    28   ar
    12    28    29   ar
    13    29     1    1
    14     1     2    2
    15     1     3   am
    16     3     4    1
    17     4     5    1
    18     5     6    1
    19     6     7    1
    20     7     8   ar
    21     8     9   ar
    22     9    10   ar
    23    10    14    1
    24    14    15   ar
    25    15    16   ar
    26    16    17   ar
    27    17    18   ar
    28    18    19   ar
    29    19    20   ar
    30    20    21   ar
    31    21    22   ar
    32    10    11   ar
    33    11    12   ar
    34    12    13    1
    35    29    24   ar
    36    13     3    1
    37    12     7   ar
    38    22    14   ar
    39    21    17   ar
    40    34    35    1
    41    20    23    1
@<TRIPOS>MOLECULE
*****
 37 41 0 0 0
SMALL
GASTEIGER

@<TRIPOS>ATOM
      1 C         -24.2247   -7.8749  -13.3573 C.2     1  UNL1        0.2506
      2 O         -23.1300   -7.5302  -12.8333 O.2     1  UNL1       -0.2699
      3 N         -24.7818   -9.1740  -13.0624 N.am    1  UNL1       -0.2680
      4 C         -25.6865   -9.8306  -14.0173 C.3     1  UNL1        0.1412
      5 C         -25.4732  -11.3461  -14.0669 C.3     1  UNL1        0.2268
      6 O         -24.1022  -11.6699  -14.2866 O.3     1  UNL1       -0.4739
      7 C         -23.0626  -11.5485  -13.3471 C.ar    1  UNL1        0.1362
      8 C         -21.8871  -12.2594  -13.6108 C.ar    1  UNL1        0.0366
      9 C         -20.8083  -12.2176  -12.7281 C.ar    1  UNL1        0.0031
     10 C         -20.8801  -11.4558  -11.5531 C.ar    1  UNL1       -0.0000
     11 C         -22.0493  -10.7240  -11.2877 C.ar    1  UNL1        0.0004
     12 C         -23.1384  -10.7452  -12.1779 C.ar    1  UNL1        0.0317
     13 C         -24.3410   -9.8916  -11.8619 C.3     1  UNL1        0.1236
     14 C         -19.7343  -11.4159  -10.6093 C.ar    1  UNL1        0.0015
     15 C         -19.4119  -10.2141   -9.9187 C.ar    1  UNL1        0.0016
     16 C         -18.3270  -10.1652   -9.0233 C.ar    1  UNL1        0.0206
     17 C         -17.5861  -11.3274   -8.8391 C.ar    1  UNL1        0.0985
     18 N         -16.5176  -11.5056   -8.0416 N.ar    1  UNL1       -0.2241
     19 C         -16.1984  -12.8100   -8.2516 C.ar    1  UNL1        0.1750
     20 N         -17.0168  -13.4315   -9.1344 N.ar    1  UNL1       -0.3349
     21 C         -17.8870  -12.4811   -9.4941 C.ar    1  UNL1        0.0757
     22 C         -18.9504  -12.5746  -10.3877 C.ar    1  UNL1        0.0185
     23 H         -16.9751  -14.4237   -9.4572 H       1  UNL1        0.1675
     24 C         -24.6035   -6.8108  -15.6204 C.ar    1  UNL1        0.0503
     25 C         -25.2597   -5.8373  -16.3991 C.ar    1  UNL1        0.0328
     26 C         -26.2171   -4.9893  -15.8308 C.ar    1  UNL1        0.1069
     27 C         -26.5234   -5.1020  -14.4721 C.ar    1  UNL1        0.0186
     28 C         -25.8831   -6.0593  -13.6862 C.ar    1  UNL1        0.0071
     29 C         -24.9239   -6.9188  -14.2447 C.ar    1  UNL1        0.0667
     30 S         -27.0071   -3.7686  -16.8239 S.O2    1  UNL1        0.0105
     31 C         -28.7374   -3.7108  -16.4186 C.3     1  UNL1        0.1816
     32 O         -26.3822   -2.4262  -16.5663 O.2     1  UNL1       -0.1686
     33 O         -26.8462   -4.1044  -18.2802 O.2     1  UNL1       -0.1686
     34 N         -23.6622   -7.7228  -16.2258 N.pl3   1  UNL1       -0.3325
     35 H         -23.9458   -8.7169  -16.3771 H       1  UNL1        0.1468
     36 C         -21.2842   -8.3435  -16.0870 C.3     1  UNL1        0.0229
     37 C         -22.3067   -7.3547  -16.6384 C.3     1  UNL1        0.0871
@<TRIPOS>BOND
     1    36    37    1
     2    37    34    1
     3    34    24    1
     4    24    25   ar
     5    25    26   ar
     6    26    30    1
     7    30    31    1
     8    30    32    2
     9    30    33    2
    10    26    27   ar
    11    27    28   ar
    12    28    29   ar
    13    29     1    1
    14     1     2    2
    15     1     3   am
    16     3     4    1
    17     4     5    1
    18     5     6    1
    19     6     7    1
    20     7     8   ar
    21     8     9   ar
    22     9    10   ar
    23    10    14    1
    24    14    15   ar
    25    15    16   ar
    26    16    17   ar
    27    17    18   ar
    28    18    19   ar
    29    19    20   ar
    30    20    21   ar
    31    21    22   ar
    32    10    11   ar
    33    11    12   ar
    34    12    13    1
    35    29    24   ar
    36    13     3    1
    37    12     7   ar
    38    22    14   ar
    39    21    17   ar
    40    34    35    1
    41    20    23    1
@<TRIPOS>MOLECULE
*****
 37 41 0 0 0
SMALL
GASTEIGER

@<TRIPOS>ATOM
      1 C         -22.2922   -8.1255  -10.9375 C.2     1  UNL1        0.2506
      2 O         -22.1427   -7.1973  -11.7790 O.2     1  UNL1       -0.2699
      3 N         -23.4303   -9.0082  -11.0401 N.am    1  UNL1       -0.2680
      4 C         -23.9507   -9.6939   -9.8482 C.3     1  UNL1        0.1412
      5 C         -25.4780   -9.8021   -9.8646 C.3     1  UNL1        0.2268
      6 O         -26.0855   -8.5311  -10.0849 O.3     1  UNL1       -0.4739
      7 C         -26.1164   -7.8290  -11.3032 C.ar    1  UNL1        0.1362
      8 C         -27.0655   -6.8080  -11.4196 C.ar    1  UNL1        0.0366
      9 C         -27.1857   -6.0689  -12.5960 C.ar    1  UNL1        0.0031
     10 C         -26.3511   -6.3345  -13.6910 C.ar    1  UNL1       -0.0000
     11 C         -25.3827   -7.3457  -13.5782 C.ar    1  UNL1        0.0004
     12 C         -25.2407   -8.0877  -12.3915 C.ar    1  UNL1        0.0317
     13 C         -24.1434   -9.1196  -12.3166 C.3     1  UNL1        0.1236
     14 C         -26.4829   -5.5524  -14.9464 C.ar    1  UNL1        0.0015
     15 C         -25.4684   -5.6137  -15.9427 C.ar    1  UNL1        0.0016
     16 C         -25.5828   -4.8751  -17.1354 C.ar    1  UNL1        0.0206
     17 C         -26.7167   -4.0879  -17.3038 C.ar    1  UNL1        0.0985
     18 N         -27.0284   -3.3060  -18.3530 N.ar    1  UNL1       -0.2241
     19 C         -28.2261   -2.7760  -17.9892 C.ar    1  UNL1        0.1750
     20 N         -28.6564   -3.1955  -16.7750 N.ar    1  UNL1       -0.3349
     21 C         -27.6919   -4.0235  -16.3576 C.ar    1  UNL1        0.0757
     22 C         -27.6202   -4.7367  -15.1643 C.ar    1  UNL1        0.0185
     23 H         -29.5381   -2.9314  -16.2819 H       1  UNL1        0.1675
     24 C         -20.3099   -9.3358   -9.9361 C.ar    1  UNL1        0.0503
     25 C         -19.4072   -9.4888   -8.8653 C.ar    1  UNL1        0.0328
     26 C         -19.4529   -8.6317   -7.7599 C.ar    1  UNL1        0.1069
     27 C         -20.4097   -7.6144   -7.7110 C.ar    1  UNL1        0.0186
     28 C         -21.3116   -7.4491   -8.7614 C.ar    1  UNL1        0.0071
     29 C         -21.2737   -8.2993   -9.8778 C.ar    1  UNL1        0.0667
     30 S         -18.3249   -8.8587   -6.4271 S.O2    1  UNL1        0.0105
     31 C         -19.2365   -9.0777   -4.9163 C.3     1  UNL1        0.1816
     32 O         -17.4754  -10.0714   -6.6855 O.2     1  UNL1       -0.1686
     33 O         -17.4279   -7.6592   -6.2998 O.2     1  UNL1       -0.1686
     34 N         -20.2177  -10.1842  -11.1007 N.pl3   1  UNL1       -0.3325
     35 H         -19.8618   -9.7791  -11.9955 H       1  UNL1        0.1468
     36 C         -21.3104  -11.9405  -12.4351 C.3     1  UNL1        0.0229
     37 C         -20.6080  -11.5950  -11.1258 C.3     1  UNL1        0.0871
@<TRIPOS>BOND
     1    36    37    1
     2    37    34    1
     3    34    24    1
     4    24    25   ar
     5    25    26   ar
     6    26    30    1
     7    30    31    1
     8    30    32    2
     9    30    33    2
    10    26    27   ar
    11    27    28   ar
    12    28    29   ar
    13    29     1    1
    14     1     2    2
    15     1     3   am
    16     3     4    1
    17     4     5    1
    18     5     6    1
    19     6     7    1
    20     7     8   ar
    21     8     9   ar
    22     9    10   ar
    23    10    14    1
    24    14    15   ar
    25    15    16   ar
    26    16    17   ar
    27    17    18   ar
    28    18    19   ar
    29    19    20   ar
    30    20    21   ar
    31    21    22   ar
    32    10    11   ar
    33    11    12   ar
    34    12    13    1
    35    29    24   ar
    36    13     3    1
    37    12     7   ar
    38    22    14   ar
    39    21    17   ar
    40    34    35    1
    41    20    23    1
@<TRIPOS>MOLECULE
*****
 37 41 0 0 0
SMALL
GASTEIGER

@<TRIPOS>ATOM
      1 C         -21.9871   -7.7964  -10.0406 C.2     1  UNL1        0.2506
      2 O         -22.8923   -6.9176  -10.0307 O.2     1  UNL1       -0.2699
      3 N         -21.6818   -8.4958  -11.2664 N.am    1  UNL1       -0.2680
      4 C         -21.0909   -9.8415  -11.2287 C.3     1  UNL1        0.1412
      5 C         -21.6271  -10.7394  -12.3472 C.3     1  UNL1        0.2268
      6 O         -23.0527  -10.7579  -12.3589 O.3     1  UNL1       -0.4739
      7 C         -23.8901   -9.7128  -12.7887 C.ar    1  UNL1        0.1362
      8 C         -25.2159  -10.0470  -13.0840 C.ar    1  UNL1        0.0366
      9 C         -26.1166   -9.0831  -13.5360 C.ar    1  UNL1        0.0031
     10 C         -25.7094   -7.7517  -13.7021 C.ar    1  UNL1       -0.0000
     11 C         -24.3849   -7.4021  -13.3914 C.ar    1  UNL1        0.0004
     12 C         -23.4709   -8.3618  -12.9195 C.ar    1  UNL1        0.0317
     13 C         -22.0807   -7.9088  -12.5497 C.3     1  UNL1        0.1236
     14 C         -26.6660   -6.7260  -14.1897 C.ar    1  UNL1        0.0015
     15 C         -26.1933   -5.4786  -14.6858 C.ar    1  UNL1        0.0016
     16 C         -27.0917   -4.4990  -15.1488 C.ar    1  UNL1        0.0206
     17 C         -28.4502   -4.7928  -15.1042 C.ar    1  UNL1        0.0985
     18 N         -29.4752   -4.0112  -15.4887 N.ar    1  UNL1       -0.2241
     19 C         -30.5607   -4.7855  -15.2249 C.ar    1  UNL1        0.1750
     20 N         -30.2476   -5.9949  -14.7007 N.ar    1  UNL1       -0.3349
     21 C         -28.9114   -5.9825  -14.6325 C.ar    1  UNL1        0.0757
     22 C         -28.0594   -6.9792  -14.1652 C.ar    1  UNL1        0.0185
     23 H         -30.9010   -6.7583  -14.4167 H       1  UNL1        0.1675
     24 C         -21.8851   -8.5746   -7.6362 C.ar    1  UNL1        0.0503
     25 C         -21.1331   -8.7512   -6.4580 C.ar    1  UNL1        0.0328
     26 C         -19.7698   -8.4364   -6.4227 C.ar    1  UNL1        0.1069
     27 C         -19.1449   -7.9334   -7.5669 C.ar    1  UNL1        0.0186
     28 C         -19.8741   -7.7514   -8.7413 C.ar    1  UNL1        0.0071
     29 C         -21.2411   -8.0671   -8.7913 C.ar    1  UNL1        0.0667
     30 S         -18.8592   -8.6488   -4.9307 S.O2    1  UNL1        0.0105
     31 C         -17.4986   -7.5044   -4.9045 C.3     1  UNL1        0.1816
     32 O         -19.7560   -8.3954   -3.7514 O.2     1  UNL1       -0.1686
     33 O         -18.3320  -10.0537   -4.8431 O.2     1  UNL1       -0.1686
     34 N         -23.2760   -8.9588   -7.6835 N.pl3   1  UNL1       -0.3325
     35 H         -23.9786   -8.3818   -7.1687 H       1  UNL1        0.1468
     36 C         -25.0422   -9.7786   -9.1895 C.3     1  UNL1        0.0229
     37 C         -23.7840  -10.1292   -8.4013 C.3     1  UNL1        0.0871
@<TRIPOS>BOND
     1    36    37    1
     2    37    34    1
     3    34    24    1
     4    24    25   ar
     5    25    26   ar
     6    26    30    1
     7    30    31    1
     8    30    32    2
     9    30    33    2
    10    26    27   ar
    11    27    28   ar
    12    28    29   ar
    13    29     1    1
    14     1     2    2
    15     1     3   am
    16     3     4    1
    17     4     5    1
    18     5     6    1
    19     6     7    1
    20     7     8   ar
    21     8     9   ar
    22     9    10   ar
    23    10    14    1
    24    14    15   ar
    25    15    16   ar
    26    16    17   ar
    27    17    18   ar
    28    18    19   ar
    29    19    20   ar
    30    20    21   ar
    31    21    22   ar
    32    10    11   ar
    33    11    12   ar
    34    12    13    1
    35    29    24   ar
    36    13     3    1
    37    12     7   ar
    38    22    14   ar
    39    21    17   ar
    40    34    35    1
    41    20    23    1
@<TRIPOS>MOLECULE
*****
 37 41 0 0 0
SMALL
GASTEIGER

@<TRIPOS>ATOM
      1 C         -20.6562   -9.2309   -9.3128 C.2     1  UNL1        0.2506
      2 O         -20.7441  -10.3763   -9.8345 O.2     1  UNL1       -0.2699
      3 N         -21.4928   -8.1580   -9.7963 N.am    1  UNL1       -0.2680
      4 C         -21.0677   -6.7582   -9.6497 C.3     1  UNL1        0.1412
      5 C         -21.4685   -5.9034  -10.8553 C.3     1  UNL1        0.2268
      6 O         -21.0304   -6.4928  -12.0774 O.3     1  UNL1       -0.4739
      7 C         -21.5839   -7.6301  -12.6926 C.ar    1  UNL1        0.1362
      8 C         -21.2826   -7.8264  -14.0443 C.ar    1  UNL1        0.0366
      9 C         -21.8008   -8.9147  -14.7457 C.ar    1  UNL1        0.0031
     10 C         -22.6370   -9.8403  -14.1054 C.ar    1  UNL1       -0.0000
     11 C         -22.9314   -9.6622  -12.7435 C.ar    1  UNL1        0.0004
     12 C         -22.4022   -8.5774  -12.0209 C.ar    1  UNL1        0.0317
     13 C         -22.7109   -8.4766  -10.5481 C.3     1  UNL1        0.1236
     14 C         -23.1945  -10.9958  -14.8531 C.ar    1  UNL1        0.0015
     15 C         -23.1431  -11.0256  -16.2751 C.ar    1  UNL1        0.0016
     16 C         -23.6701  -12.1153  -16.9935 C.ar    1  UNL1        0.0206
     17 C         -24.2394  -13.1556  -16.2673 C.ar    1  UNL1        0.0985
     18 N         -24.7996  -14.2823  -16.7429 N.ar    1  UNL1       -0.2241
     19 C         -25.1867  -14.9280  -15.6112 C.ar    1  UNL1        0.1750
     20 N         -24.8907  -14.2520  -14.4751 N.ar    1  UNL1       -0.3349
     21 C         -24.2924  -13.1364  -14.9081 C.ar    1  UNL1        0.0757
     22 C         -23.7837  -12.0800  -14.1578 C.ar    1  UNL1        0.0185
     23 H         -25.0859  -14.5387  -13.4901 H       1  UNL1        0.1675
     24 C         -18.5644   -9.8448   -8.0302 C.ar    1  UNL1        0.0503
     25 C         -17.7357   -9.6420   -6.9091 C.ar    1  UNL1        0.0328
     26 C         -18.0300   -8.6474   -5.9695 C.ar    1  UNL1        0.1069
     27 C         -19.1636   -7.8480   -6.1385 C.ar    1  UNL1        0.0186
     28 C         -19.9954   -8.0355   -7.2417 C.ar    1  UNL1        0.0071
     29 C         -19.7093   -9.0268   -8.1936 C.ar    1  UNL1        0.0667
     30 S         -16.9871   -8.4294   -4.5675 S.O2    1  UNL1        0.0105
     31 C         -17.9344   -8.6860   -3.0848 C.3     1  UNL1        0.1816
     32 O         -15.8552   -9.4168   -4.6218 O.2     1  UNL1       -0.1686
     33 O         -16.4152   -7.0393   -4.5606 O.2     1  UNL1       -0.1686
     34 N         -18.2217  -10.8310   -9.0274 N.pl3   1  UNL1       -0.3325
     35 H         -18.4485  -10.6385  -10.0290 H       1  UNL1        0.1468
     36 C         -16.0885  -12.0592   -9.0446 C.3     1  UNL1        0.0229
     37 C         -17.5807  -12.1136   -8.7322 C.3     1  UNL1        0.0871
@<TRIPOS>BOND
     1    36    37    1
     2    37    34    1
     3    34    24    1
     4    24    25   ar
     5    25    26   ar
     6    26    30    1
     7    30    31    1
     8    30    32    2
     9    30    33    2
    10    26    27   ar
    11    27    28   ar
    12    28    29   ar
    13    29     1    1
    14     1     2    2
    15     1     3   am
    16     3     4    1
    17     4     5    1
    18     5     6    1
    19     6     7    1
    20     7     8   ar
    21     8     9   ar
    22     9    10   ar
    23    10    14    1
    24    14    15   ar
    25    15    16   ar
    26    16    17   ar
    27    17    18   ar
    28    18    19   ar
    29    19    20   ar
    30    20    21   ar
    31    21    22   ar
    32    10    11   ar
    33    11    12   ar
    34    12    13    1
    35    29    24   ar
    36    13     3    1
    37    12     7   ar
    38    22    14   ar
    39    21    17   ar
    40    34    35    1
    41    20    23    1
@<TRIPOS>MOLECULE
*****
 37 41 0 0 0
SMALL
GASTEIGER

@<TRIPOS>ATOM
      1 C         -24.3478   -7.7408  -13.2598 C.2     1  UNL1        0.2506
      2 O         -23.2644   -7.4076  -12.7056 O.2     1  UNL1       -0.2699
      3 N         -24.8800   -9.0668  -13.0517 N.am    1  UNL1       -0.2680
      4 C         -25.7637   -9.6804  -14.0538 C.3     1  UNL1        0.1412
      5 C         -25.5187  -11.1852  -14.1961 C.3     1  UNL1        0.2268
      6 O         -24.1396  -11.4668  -14.4234 O.3     1  UNL1       -0.4739
      7 C         -23.1100  -11.3837  -13.4689 C.ar    1  UNL1        0.1362
      8 C         -21.9180  -12.0528  -13.7660 C.ar    1  UNL1        0.0366
      9 C         -20.8471  -12.0446  -12.8728 C.ar    1  UNL1        0.0031
     10 C         -20.9436  -11.3595  -11.6532 C.ar    1  UNL1       -0.0000
     11 C         -22.1297  -10.6695  -11.3530 C.ar    1  UNL1        0.0004
     12 C         -23.2113  -10.6568  -12.2525 C.ar    1  UNL1        0.0317
     13 C         -24.4337   -9.8492  -11.8945 C.3     1  UNL1        0.1236
     14 C         -19.8062  -11.3558  -10.6987 C.ar    1  UNL1        0.0015
     15 C         -19.4531  -10.1648  -10.0041 C.ar    1  UNL1        0.0016
     16 C         -18.3757  -10.1502   -9.0984 C.ar    1  UNL1        0.0206
     17 C         -17.6730  -11.3350   -8.9082 C.ar    1  UNL1        0.0985
     18 N         -16.6183  -11.5467   -8.1007 N.ar    1  UNL1       -0.2241
     19 C         -16.3377  -12.8603   -8.3087 C.ar    1  UNL1        0.1750
     20 N         -17.1667  -13.4556   -9.1997 N.ar    1  UNL1       -0.3349
     21 C         -18.0035  -12.4784   -9.5669 C.ar    1  UNL1        0.0757
     22 C         -19.0607  -12.5384  -10.4705 C.ar    1  UNL1        0.0185
     23 H         -17.1528  -14.4485   -9.5228 H       1  UNL1        0.1675
     24 C         -26.1983   -6.0529  -13.6114 C.ar    1  UNL1        0.0503
     25 C         -26.8706   -5.1644  -14.4738 C.ar    1  UNL1        0.0328
     26 C         -26.4243   -4.9607  -15.7845 C.ar    1  UNL1        0.1069
     27 C         -25.3020   -5.6512  -16.2496 C.ar    1  UNL1        0.0186
     28 C         -24.6250   -6.5350  -15.4101 C.ar    1  UNL1        0.0071
     29 C         -25.0598   -6.7452  -14.0920 C.ar    1  UNL1        0.0667
     30 S         -27.2959   -3.8591  -16.8463 S.O2    1  UNL1        0.0105
     31 C         -29.0081   -3.8141  -16.3689 C.3     1  UNL1        0.1816
     32 O         -26.7046   -2.4814  -16.7395 O.2     1  UNL1       -0.1686
     33 O         -27.1869   -4.3220  -18.2722 O.2     1  UNL1       -0.1686
     34 N         -26.6271   -6.2121  -12.2421 N.pl3   1  UNL1       -0.3325
     35 H         -26.2025   -5.6059  -11.5046 H       1  UNL1        0.1468
     36 C         -27.1911   -7.8475  -10.4909 C.3     1  UNL1        0.0229
     37 C         -27.6220   -7.1900  -11.7982 C.3     1  UNL1        0.0871
@<TRIPOS>BOND
     1    36    37    1
     2    37    34    1
     3    34    24    1
     4    24    25   ar
     5    25    26   ar
     6    26    30    1
     7    30    31    1
     8    30    32    2
     9    30    33    2
    10    26    27   ar
    11    27    28   ar
    12    28    29   ar
    13    29     1    1
    14     1     2    2
    15     1     3   am
    16     3     4    1
    17     4     5    1
    18     5     6    1
    19     6     7    1
    20     7     8   ar
    21     8     9   ar
    22     9    10   ar
    23    10    14    1
    24    14    15   ar
    25    15    16   ar
    26    16    17   ar
    27    17    18   ar
    28    18    19   ar
    29    19    20   ar
    30    20    21   ar
    31    21    22   ar
    32    10    11   ar
    33    11    12   ar
    34    12    13    1
    35    29    24   ar
    36    13     3    1
    37    12     7   ar
    38    22    14   ar
    39    21    17   ar
    40    34    35    1
    41    20    23    1
@<TRIPOS>MOLECULE
*****
 37 41 0 0 0
SMALL
GASTEIGER

@<TRIPOS>ATOM
      1 C         -20.8068   -9.0807   -9.0188 C.2     1  UNL1        0.2506
      2 O         -20.9877  -10.2685   -9.4039 O.2     1  UNL1       -0.2699
      3 N         -21.5853   -8.0131   -9.6010 N.am    1  UNL1       -0.2680
      4 C         -21.0634   -6.6388   -9.6259 C.3     1  UNL1        0.1412
      5 C         -21.4453   -5.8990  -10.9110 C.3     1  UNL1        0.2268
      6 O         -21.0874   -6.6511  -12.0682 O.3     1  UNL1       -0.4739
      7 C         -21.7351   -7.8088  -12.5354 C.ar    1  UNL1        0.1362
      8 C         -21.4916   -8.1763  -13.8629 C.ar    1  UNL1        0.0366
      9 C         -22.1037   -9.2976  -14.4223 C.ar    1  UNL1        0.0031
     10 C         -22.9785  -10.0847  -13.6599 C.ar    1  UNL1       -0.0000
     11 C         -23.2160   -9.7346  -12.3205 C.ar    1  UNL1        0.0004
     12 C         -22.5925   -8.6152  -11.7398 C.ar    1  UNL1        0.0317
     13 C         -22.8457   -8.3282  -10.2810 C.3     1  UNL1        0.1236
     14 C         -23.6358  -11.2750  -14.2567 C.ar    1  UNL1        0.0015
     15 C         -25.0329  -11.2658  -14.5278 C.ar    1  UNL1        0.0016
     16 C         -25.6659  -12.3894  -15.0918 C.ar    1  UNL1        0.0206
     17 C         -24.8809  -13.5022  -15.3729 C.ar    1  UNL1        0.0985
     18 N         -25.2728  -14.6736  -15.9055 N.ar    1  UNL1       -0.2241
     19 C         -24.1157  -15.3851  -15.9546 C.ar    1  UNL1        0.1750
     20 N         -23.0434  -14.7067  -15.4798 N.ar    1  UNL1       -0.3349
     21 C         -23.5448  -13.5202  -15.1180 C.ar    1  UNL1        0.0757
     22 C         -22.8780  -12.4322  -14.5616 C.ar    1  UNL1        0.0185
     23 H         -22.0550  -15.0369  -15.4131 H       1  UNL1        0.1675
     24 C         -18.6512   -9.6169   -7.8092 C.ar    1  UNL1        0.0503
     25 C         -17.7748   -9.3575   -6.7370 C.ar    1  UNL1        0.0328
     26 C         -18.0385   -8.3269   -5.8277 C.ar    1  UNL1        0.1069
     27 C         -19.1887   -7.5476   -5.9779 C.ar    1  UNL1        0.0186
     28 C         -20.0675   -7.7909   -7.0327 C.ar    1  UNL1        0.0071
     29 C         -19.8125   -8.8189   -7.9541 C.ar    1  UNL1        0.0667
     30 S         -16.9357   -8.0381   -4.4857 S.O2    1  UNL1        0.0105
     31 C         -15.7640   -9.3720   -4.3903 C.3     1  UNL1        0.1816
     32 O         -16.2084   -6.7403   -4.7001 O.2     1  UNL1       -0.1686
     33 O         -17.7029   -7.9540   -3.1958 O.2     1  UNL1       -0.1686
     34 N         -18.3419  -10.6411   -8.7786 N.pl3   1  UNL1       -0.3325
     35 H         -18.9425  -10.7319   -9.6287 H       1  UNL1        0.1468
     36 C         -17.4889  -12.8369   -9.4931 C.3     1  UNL1        0.0229
     37 C         -17.2358  -11.5914   -8.6494 C.3     1  UNL1        0.0871
@<TRIPOS>BOND
     1    36    37    1
     2    37    34    1
     3    34    24    1
     4    24    25   ar
     5    25    26   ar
     6    26    30    1
     7    30    31    1
     8    30    32    2
     9    30    33    2
    10    26    27   ar
    11    27    28   ar
    12    28    29   ar
    13    29     1    1
    14     1     2    2
    15     1     3   am
    16     3     4    1
    17     4     5    1
    18     5     6    1
    19     6     7    1
    20     7     8   ar
    21     8     9   ar
    22     9    10   ar
    23    10    14    1
    24    14    15   ar
    25    15    16   ar
    26    16    17   ar
    27    17    18   ar
    28    18    19   ar
    29    19    20   ar
    30    20    21   ar
    31    21    22   ar
    32    10    11   ar
    33    11    12   ar
    34    12    13    1
    35    29    24   ar
    36    13     3    1
    37    12     7   ar
    38    22    14   ar
    39    21    17   ar
    40    34    35    1
    41    20    23    1
@<TRIPOS>MOLECULE
*****
 37 41 0 0 0
SMALL
GASTEIGER

@<TRIPOS>ATOM
      1 C         -23.9145   -7.3435  -11.4647 C.2     1  UNL1        0.2506
      2 O         -23.1590   -6.6319  -10.7472 O.2     1  UNL1       -0.2699
      3 N         -24.0215   -8.7600  -11.2059 N.am    1  UNL1       -0.2680
      4 C         -24.3983   -9.6874  -12.2827 C.3     1  UNL1        0.1412
      5 C         -23.6529  -11.0213  -12.1836 C.3     1  UNL1        0.2268
      6 O         -22.2443  -10.8223  -12.0883 O.3     1  UNL1       -0.4739
      7 C         -21.5506  -10.3444  -10.9619 C.ar    1  UNL1        0.1362
      8 C         -20.1717  -10.5765  -10.9243 C.ar    1  UNL1        0.0366
      9 C         -19.4016  -10.1577   -9.8398 C.ar    1  UNL1        0.0031
     10 C         -19.9973   -9.4897   -8.7604 C.ar    1  UNL1       -0.0000
     11 C         -21.3783   -9.2359   -8.7965 C.ar    1  UNL1        0.0004
     12 C         -22.1635   -9.6391   -9.8919 C.ar    1  UNL1        0.0317
     13 C         -23.6295   -9.2846   -9.8939 C.3     1  UNL1        0.1236
     14 C         -19.1790   -9.0493   -7.6021 C.ar    1  UNL1        0.0015
     15 C         -19.2667   -7.7109   -7.1261 C.ar    1  UNL1        0.0016
     16 C         -18.4943   -7.2829   -6.0301 C.ar    1  UNL1        0.0206
     17 C         -17.6474   -8.2100   -5.4327 C.ar    1  UNL1        0.0985
     18 N         -16.8254   -8.0199   -4.3851 N.ar    1  UNL1       -0.2241
     19 C         -16.2452   -9.2394   -4.2314 C.ar    1  UNL1        0.1750
     20 N         -16.6722  -10.1584   -5.1306 N.ar    1  UNL1       -0.3349
     21 C         -17.5574   -9.4915   -5.8801 C.ar    1  UNL1        0.0757
     22 C         -18.3024   -9.9576   -6.9598 C.ar    1  UNL1        0.0185
     23 H         -16.3765  -11.1562   -5.2160 H       1  UNL1        0.1675
     24 C         -24.3247   -6.8145  -13.9038 C.ar    1  UNL1        0.0503
     25 C         -25.0706   -6.1210  -14.8772 C.ar    1  UNL1        0.0328
     26 C         -26.1642   -5.3274  -14.5125 C.ar    1  UNL1        0.1069
     27 C         -26.5193   -5.2135  -13.1658 C.ar    1  UNL1        0.0186
     28 C         -25.7916   -5.8921  -12.1891 C.ar    1  UNL1        0.0071
     29 C         -24.6951   -6.6946  -12.5418 C.ar    1  UNL1        0.0667
     30 S         -27.0664   -4.4563  -15.7486 S.O2    1  UNL1        0.0105
     31 C         -28.8086   -4.6640  -15.4606 C.3     1  UNL1        0.1816
     32 O         -26.7154   -2.9959  -15.6948 O.2     1  UNL1       -0.1686
     33 O         -26.7187   -4.9865  -17.1115 O.2     1  UNL1       -0.1686
     34 N         -23.2361   -7.6797  -14.2923 N.pl3   1  UNL1       -0.3325
     35 H         -22.5824   -8.0323  -13.5574 H       1  UNL1        0.1468
     36 C         -21.4640   -8.1591  -15.9321 C.3     1  UNL1        0.0229
     37 C         -22.9653   -8.0964  -15.6693 C.3     1  UNL1        0.0871
@<TRIPOS>BOND
     1    36    37    1
     2    37    34    1
     3    34    24    1
     4    24    25   ar
     5    25    26   ar
     6    26    30    1
     7    30    31    1
     8    30    32    2
     9    30    33    2
    10    26    27   ar
    11    27    28   ar
    12    28    29   ar
    13    29     1    1
    14     1     2    2
    15     1     3   am
    16     3     4    1
    17     4     5    1
    18     5     6    1
    19     6     7    1
    20     7     8   ar
    21     8     9   ar
    22     9    10   ar
    23    10    14    1
    24    14    15   ar
    25    15    16   ar
    26    16    17   ar
    27    17    18   ar
    28    18    19   ar
    29    19    20   ar
    30    20    21   ar
    31    21    22   ar
    32    10    11   ar
    33    11    12   ar
    34    12    13    1
    35    29    24   ar
    36    13     3    1
    37    12     7   ar
    38    22    14   ar
    39    21    17   ar
    40    34    35    1
    41    20    23    1
