@<TRIPOS>MOLECULE
*****
 50 55 0 0 0
SMALL
GASTEIGER

@<TRIPOS>ATOM
      1 C         -30.2929   47.3194   -0.7768 C.3     1  UNL1        0.1535
      2 N         -29.4940   48.0927   -1.7397 N.am    1  UNL1       -0.2945
      3 C         -28.3374   47.5436   -2.3896 C.2     1  UNL1        0.2483
      4 O         -27.7948   46.5058   -1.9202 O.2     1  UNL1       -0.2701
      5 H         -29.7216   49.0974   -1.9118 H       1  UNL1        0.1501
      6 C         -27.7580   48.1849   -3.5961 C.ar    1  UNL1        0.0808
      7 C         -27.3167   49.5180   -3.5250 C.ar    1  UNL1        0.0080
      8 C         -26.7452   50.1403   -4.6373 C.ar    1  UNL1        0.0148
      9 C         -26.5917   49.4388   -5.8422 C.ar    1  UNL1        0.0502
     10 C         -27.0263   48.1084   -5.9185 C.ar    1  UNL1        0.0443
     11 C         -27.5995   47.4808   -4.8089 C.ar    1  UNL1        0.1457
     12 F         -27.9480   46.1748   -4.9192 F       1  UNL1       -0.2040
     13 N         -25.9658   50.0600   -6.9795 N.pl3   1  UNL1       -0.3040
     14 C         -24.6386   49.6207   -7.4266 C.3     1  UNL1        0.1122
     15 C         -23.8371   50.8166   -7.9417 C.3     1  UNL1        0.1123
     16 N         -24.6504   51.6028   -8.8758 N.pl3   1  UNL1       -0.3023
     17 C         -25.9745   52.0464   -8.4269 C.3     1  UNL1        0.1123
     18 C         -26.7779   50.8521   -7.9119 C.3     1  UNL1        0.1122
     19 C         -24.0303   52.2178  -10.0188 C.ar    1  UNL1        0.0759
     20 C         -23.1939   53.3360   -9.8586 C.ar    1  UNL1        0.0191
     21 C         -22.5907   53.9308  -10.9708 C.ar    1  UNL1        0.0311
     22 C         -22.8198   53.4175  -12.2502 C.ar    1  UNL1        0.1425
     23 F         -22.2349   53.9963  -13.3277 F       1  UNL1       -0.2041
     24 C         -23.6551   52.3096  -12.4193 C.ar    1  UNL1        0.0605
     25 C         -24.2605   51.7100  -11.3098 C.ar    1  UNL1        0.1556
     26 F         -25.0926   50.6544  -11.4953 F       1  UNL1       -0.2028
     27 C         -30.6154   48.1352    0.4540 C.2     1  UNL1        0.2443
     28 O         -31.0415   49.3168    0.3355 O.2     1  UNL1       -0.2730
     29 N         -30.5310   47.5240    1.7513 N.am    1  UNL1       -0.2825
     30 H         -30.4766   46.4810    1.7948 H       1  UNL1        0.1549
     31 C         -30.6378   48.2456    2.9903 C.ar    1  UNL1        0.0535
     32 C         -31.3770   47.6955    4.0465 C.ar    1  UNL1        0.0353
     33 C         -31.4662   48.3821    5.2598 C.ar    1  UNL1        0.1002
     34 N         -30.8250   49.5698    5.4198 N.ar    1  UNL1       -0.2422
     35 C         -30.0845   50.1191    4.4211 C.ar    1  UNL1        0.1002
     36 C         -29.9702   49.4658    3.1913 C.ar    1  UNL1        0.0353
     37 C         -31.5818   46.7631   -1.4233 C.3     1  UNL1        0.0569
     38 C         -31.1747   48.2733   -5.7828 C.ar    1  UNL1       -0.0224
     39 C         -31.0129   47.2019   -6.7033 C.ar    1  UNL1       -0.0028
     40 C         -30.9605   45.8701   -6.2571 C.ar    1  UNL1        0.0166
     41 C         -31.0756   45.6335   -4.8904 C.ar    1  UNL1        0.0563
     42 N         -31.0462   44.4433   -4.2666 N.ar    1  UNL1       -0.3523
     43 C         -31.2021   44.7067   -2.9498 C.ar    1  UNL1        0.0681
     44 C         -31.3363   46.0762   -2.7403 C.ar    1  UNL1       -0.0017
     45 C         -31.2446   46.6554   -3.9938 C.ar    1  UNL1        0.0128
     46 C         -31.2918   47.9890   -4.4026 C.ar    1  UNL1       -0.0031
     47 H         -30.9289   43.5033   -4.7061 H       1  UNL1        0.1660
     48 C         -30.5571   50.6445   -5.2233 C.3     1  UNL1        0.0047
     49 C         -31.1984   49.7136   -6.2585 C.3     1  UNL1        0.0224
     50 C         -30.5205   49.8603   -7.6251 C.3     1  UNL1        0.0047
@<TRIPOS>BOND
     1    48    49    1
     2    49    50    1
     3    49    38    1
     4    38    39   ar
     5    39    40   ar
     6    40    41   ar
     7    41    42   ar
     8    42    43   ar
     9    43    44   ar
    10    44    37    1
    11    37     1    1
    12     1     2    1
    13     2     3   am
    14     3     4    2
    15     3     6    1
    16     6     7   ar
    17     7     8   ar
    18     8     9   ar
    19     9    13    1
    20    13    14    1
    21    14    15    1
    22    15    16    1
    23    16    19    1
    24    19    20   ar
    25    20    21   ar
    26    21    22   ar
    27    22    23    1
    28    22    24   ar
    29    24    25   ar
    30    25    26    1
    31    16    17    1
    32    17    18    1
    33     9    10   ar
    34    10    11   ar
    35    11    12    1
    36     1    27    1
    37    27    28    2
    38    27    29   am
    39    29    31    1
    40    31    32   ar
    41    32    33   ar
    42    33    34   ar
    43    34    35   ar
    44    35    36   ar
    45    44    45   ar
    46    45    46   ar
    47    46    38   ar
    48    45    41   ar
    49    11     6   ar
    50    36    31   ar
    51    18    13    1
    52    25    19   ar
    53    42    47    1
    54     2     5    1
    55    29    30    1
@<TRIPOS>MOLECULE
*****
 50 55 0 0 0
SMALL
GASTEIGER

@<TRIPOS>ATOM
      1 C         -30.2102   47.1317   -2.0378 C.3     1  UNL1        0.1535
      2 N         -29.1300   47.7036   -2.8560 N.am    1  UNL1       -0.2945
      3 C         -28.7755   47.1655   -4.1391 C.2     1  UNL1        0.2483
      4 O         -29.1618   46.0069   -4.4554 O.2     1  UNL1       -0.2701
      5 H         -28.5469   48.4809   -2.4729 H       1  UNL1        0.1501
      6 C         -27.9480   47.9425   -5.0953 C.ar    1  UNL1        0.0808
      7 C         -27.8369   49.3354   -4.9390 C.ar    1  UNL1        0.0080
      8 C         -27.0462   50.0898   -5.8089 C.ar    1  UNL1        0.0148
      9 C         -26.3396   49.4657   -6.8474 C.ar    1  UNL1        0.0502
     10 C         -26.4433   48.0769   -7.0064 C.ar    1  UNL1        0.0443
     11 C         -27.2336   47.3171   -6.1394 C.ar    1  UNL1        0.1457
     12 F         -27.2515   45.9708   -6.3010 F       1  UNL1       -0.2040
     13 N         -25.4901   50.2308   -7.7216 N.pl3   1  UNL1       -0.3040
     14 C         -25.9420   50.5819   -9.0732 C.3     1  UNL1        0.1122
     15 C         -24.7610   50.5540  -10.0440 C.3     1  UNL1        0.1123
     16 N         -23.6303   51.3014   -9.4827 N.pl3   1  UNL1       -0.3023
     17 C         -23.1753   50.9468   -8.1340 C.3     1  UNL1        0.1123
     18 C         -24.3546   50.9746   -7.1616 C.3     1  UNL1        0.1122
     19 C         -22.7843   52.0748  -10.3518 C.ar    1  UNL1        0.0759
     20 C         -21.6215   51.5081  -10.9015 C.ar    1  UNL1        0.0191
     21 C         -20.8018   52.2610  -11.7475 C.ar    1  UNL1        0.0311
     22 C         -21.1334   53.5847  -12.0484 C.ar    1  UNL1        0.1425
     23 F         -20.3368   54.3138  -12.8682 F       1  UNL1       -0.2041
     24 C         -22.2847   54.1583  -11.5011 C.ar    1  UNL1        0.0605
     25 C         -23.1089   53.4091  -10.6547 C.ar    1  UNL1        0.1556
     26 F         -24.2059   53.9912  -10.1080 F       1  UNL1       -0.2028
     27 C         -29.9254   47.2863   -0.5615 C.2     1  UNL1        0.2443
     28 O         -29.2878   46.3901    0.0566 O.2     1  UNL1       -0.2730
     29 N         -30.2952   48.5024    0.1079 N.am    1  UNL1       -0.2825
     30 H         -30.5359   49.3295   -0.4842 H       1  UNL1        0.1549
     31 C         -30.2381   48.6871    1.5327 C.ar    1  UNL1        0.0535
     32 C         -31.4303   48.7986    2.2612 C.ar    1  UNL1        0.0353
     33 C         -31.3813   48.9564    3.6484 C.ar    1  UNL1        0.1002
     34 N         -30.1831   48.9849    4.2894 N.ar    1  UNL1       -0.2422
     35 C         -29.0108   48.8595    3.6129 C.ar    1  UNL1        0.1002
     36 C         -29.0150   48.7011    2.2246 C.ar    1  UNL1        0.0353
     37 C         -31.5833   47.7408   -2.4014 C.3     1  UNL1        0.0569
     38 C         -31.2663   49.3577   -6.7301 C.ar    1  UNL1       -0.0224
     39 C         -31.1222   50.7719   -6.7598 C.ar    1  UNL1       -0.0028
     40 C         -31.1182   51.5210   -5.5705 C.ar    1  UNL1        0.0166
     41 C         -31.2555   50.8367   -4.3663 C.ar    1  UNL1        0.0563
     42 N         -31.2803   51.3643   -3.1304 N.ar    1  UNL1       -0.3523
     43 C         -31.4222   50.3221   -2.2811 C.ar    1  UNL1        0.0681
     44 C         -31.4826   49.1241   -2.9872 C.ar    1  UNL1       -0.0017
     45 C         -31.3825   49.4734   -4.3225 C.ar    1  UNL1        0.0128
     46 C         -31.3992   48.7010   -5.4848 C.ar    1  UNL1       -0.0031
     47 H         -31.2039   52.3736   -2.8734 H       1  UNL1        0.1660
     48 C         -31.0477   49.4442   -9.2324 C.3     1  UNL1        0.0047
     49 C         -31.3040   48.5503   -8.0138 C.3     1  UNL1        0.0224
     50 C         -30.3107   47.3843   -7.9681 C.3     1  UNL1        0.0047
@<TRIPOS>BOND
     1    48    49    1
     2    49    50    1
     3    49    38    1
     4    38    39   ar
     5    39    40   ar
     6    40    41   ar
     7    41    42   ar
     8    42    43   ar
     9    43    44   ar
    10    44    37    1
    11    37     1    1
    12     1     2    1
    13     2     3   am
    14     3     4    2
    15     3     6    1
    16     6     7   ar
    17     7     8   ar
    18     8     9   ar
    19     9    13    1
    20    13    14    1
    21    14    15    1
    22    15    16    1
    23    16    19    1
    24    19    20   ar
    25    20    21   ar
    26    21    22   ar
    27    22    23    1
    28    22    24   ar
    29    24    25   ar
    30    25    26    1
    31    16    17    1
    32    17    18    1
    33     9    10   ar
    34    10    11   ar
    35    11    12    1
    36     1    27    1
    37    27    28    2
    38    27    29   am
    39    29    31    1
    40    31    32   ar
    41    32    33   ar
    42    33    34   ar
    43    34    35   ar
    44    35    36   ar
    45    44    45   ar
    46    45    46   ar
    47    46    38   ar
    48    45    41   ar
    49    11     6   ar
    50    36    31   ar
    51    18    13    1
    52    25    19   ar
    53    42    47    1
    54     2     5    1
    55    29    30    1
@<TRIPOS>MOLECULE
*****
 50 55 0 0 0
SMALL
GASTEIGER

@<TRIPOS>ATOM
      1 C         -26.7570   50.9099   -8.8238 C.3     1  UNL1        0.1535
      2 N         -27.4993   50.7434   -7.5649 N.am    1  UNL1       -0.2945
      3 C         -28.2886   49.5757   -7.2910 C.2     1  UNL1        0.2483
      4 O         -28.6207   48.8134   -8.2399 O.2     1  UNL1       -0.2701
      5 H         -27.5196   51.5224   -6.8694 H       1  UNL1        0.1501
      6 C         -28.7352   49.2571   -5.9120 C.ar    1  UNL1        0.0808
      7 C         -28.5036   47.9720   -5.3908 C.ar    1  UNL1        0.0080
      8 C         -28.8912   47.6503   -4.0879 C.ar    1  UNL1        0.0148
      9 C         -29.5083   48.6111   -3.2734 C.ar    1  UNL1        0.0502
     10 C         -29.7387   49.8952   -3.7858 C.ar    1  UNL1        0.0443
     11 C         -29.3537   50.2225   -5.0890 C.ar    1  UNL1        0.1457
     12 F         -29.5459   51.4958   -5.5144 F       1  UNL1       -0.2040
     13 N         -29.8723   48.2995   -1.9163 N.pl3   1  UNL1       -0.3040
     14 C         -30.6739   49.2437   -1.1288 C.3     1  UNL1        0.1122
     15 C         -30.2280   49.2168    0.3335 C.3     1  UNL1        0.1123
     16 N         -30.1385   47.8312    0.8070 N.pl3   1  UNL1       -0.3023
     17 C         -29.3329   46.8889    0.0228 C.3     1  UNL1        0.1123
     18 C         -29.7775   46.9139   -1.4396 C.3     1  UNL1        0.1122
     19 C         -30.5101   47.5140    2.1599 C.ar    1  UNL1        0.0759
     20 C         -31.2257   46.3381    2.4440 C.ar    1  UNL1        0.0191
     21 C         -31.5840   46.0309    3.7600 C.ar    1  UNL1        0.0311
     22 C         -31.2348   46.8951    4.8011 C.ar    1  UNL1        0.1425
     23 F         -31.5840   46.5962    6.0765 F       1  UNL1       -0.2041
     24 C         -30.5285   48.0698    4.5268 C.ar    1  UNL1        0.0605
     25 C         -30.1667   48.3816    3.2119 C.ar    1  UNL1        0.1556
     26 F         -29.5082   49.5409    2.9602 F       1  UNL1       -0.2028
     27 C         -27.6423   51.4615   -9.9177 C.2     1  UNL1        0.2443
     28 O         -27.6396   52.6976  -10.1701 O.2     1  UNL1       -0.2730
     29 N         -28.4072   50.5590  -10.7327 N.am    1  UNL1       -0.2825
     30 H         -28.1560   49.5448  -10.7024 H       1  UNL1        0.1549
     31 C         -29.4111   50.9769  -11.6732 C.ar    1  UNL1        0.0535
     32 C         -30.0108   50.0252  -12.5093 C.ar    1  UNL1        0.0353
     33 C         -31.0022   50.4221  -13.4099 C.ar    1  UNL1        0.1002
     34 N         -31.3945   51.7223  -13.4625 N.ar    1  UNL1       -0.2422
     35 C         -30.8460   52.6647  -12.6510 C.ar    1  UNL1        0.1002
     36 C         -29.8505   52.3104  -11.7368 C.ar    1  UNL1        0.0353
     37 C         -25.5022   51.7916   -8.6325 C.3     1  UNL1        0.0569
     38 C         -20.8958   52.1901   -8.9046 C.ar    1  UNL1       -0.0224
     39 C         -20.4289   52.0562  -10.2409 C.ar    1  UNL1       -0.0028
     40 C         -21.3235   51.8015  -11.2947 C.ar    1  UNL1        0.0166
     41 C         -22.6770   51.6887  -10.9905 C.ar    1  UNL1        0.0563
     42 N         -23.6844   51.4450  -11.8462 N.ar    1  UNL1       -0.3523
     43 C         -24.8128   51.4312  -11.1019 C.ar    1  UNL1        0.0681
     44 C         -24.5159   51.6736   -9.7638 C.ar    1  UNL1       -0.0017
     45 C         -23.1417   51.8280   -9.7094 C.ar    1  UNL1        0.0128
     46 C         -22.2797   52.0724   -8.6393 C.ar    1  UNL1       -0.0031
     47 H         -23.6144   51.2974  -12.8777 H       1  UNL1        0.1660
     48 C         -18.5087   51.9981   -8.1415 C.3     1  UNL1        0.0047
     49 C         -19.9288   52.4322   -7.7611 C.3     1  UNL1        0.0224
     50 C         -19.9543   53.8966   -7.3103 C.3     1  UNL1        0.0047
@<TRIPOS>BOND
     1    48    49    1
     2    49    50    1
     3    49    38    1
     4    38    39   ar
     5    39    40   ar
     6    40    41   ar
     7    41    42   ar
     8    42    43   ar
     9    43    44   ar
    10    44    37    1
    11    37     1    1
    12     1     2    1
    13     2     3   am
    14     3     4    2
    15     3     6    1
    16     6     7   ar
    17     7     8   ar
    18     8     9   ar
    19     9    13    1
    20    13    14    1
    21    14    15    1
    22    15    16    1
    23    16    19    1
    24    19    20   ar
    25    20    21   ar
    26    21    22   ar
    27    22    23    1
    28    22    24   ar
    29    24    25   ar
    30    25    26    1
    31    16    17    1
    32    17    18    1
    33     9    10   ar
    34    10    11   ar
    35    11    12    1
    36     1    27    1
    37    27    28    2
    38    27    29   am
    39    29    31    1
    40    31    32   ar
    41    32    33   ar
    42    33    34   ar
    43    34    35   ar
    44    35    36   ar
    45    44    45   ar
    46    45    46   ar
    47    46    38   ar
    48    45    41   ar
    49    11     6   ar
    50    36    31   ar
    51    18    13    1
    52    25    19   ar
    53    42    47    1
    54     2     5    1
    55    29    30    1
@<TRIPOS>MOLECULE
*****
 50 55 0 0 0
SMALL
GASTEIGER

@<TRIPOS>ATOM
      1 C         -30.2379   46.1784   -3.6533 C.3     1  UNL1        0.1535
      2 N         -29.2055   47.0134   -4.2859 N.am    1  UNL1       -0.2945
      3 C         -28.3832   46.5307   -5.3594 C.2     1  UNL1        0.2483
      4 O         -28.3061   45.2898   -5.5737 O.2     1  UNL1       -0.2701
      5 H         -29.0047   47.9650   -3.9050 H       1  UNL1        0.1501
      6 C         -27.6082   47.4656   -6.2128 C.ar    1  UNL1        0.0808
      7 C         -27.0191   48.6028   -5.6327 C.ar    1  UNL1        0.0080
      8 C         -26.2641   49.4878   -6.4060 C.ar    1  UNL1        0.0148
      9 C         -26.0718   49.2481   -7.7746 C.ar    1  UNL1        0.0502
     10 C         -26.6535   48.1142   -8.3581 C.ar    1  UNL1        0.0443
     11 C         -27.4105   47.2256   -7.5894 C.ar    1  UNL1        0.1457
     12 F         -27.9007   46.1133   -8.1909 F       1  UNL1       -0.2040
     13 N         -25.2605   50.1328   -8.5686 N.pl3   1  UNL1       -0.3040
     14 C         -25.6707   50.4907   -9.9317 C.3     1  UNL1        0.1122
     15 C         -24.4409   50.6257  -10.8302 C.3     1  UNL1        0.1123
     16 N         -23.4290   51.4625  -10.1760 N.pl3   1  UNL1       -0.3023
     17 C         -23.0152   51.1015   -8.8158 C.3     1  UNL1        0.1123
     18 C         -24.2434   50.9665   -7.9156 C.3     1  UNL1        0.1122
     19 C         -22.6224   52.3548  -10.9649 C.ar    1  UNL1        0.0759
     20 C         -23.2249   53.2498  -11.8658 C.ar    1  UNL1        0.0191
     21 C         -22.4390   54.1175  -12.6300 C.ar    1  UNL1        0.0311
     22 C         -21.0474   54.0966  -12.5042 C.ar    1  UNL1        0.1425
     23 F         -20.2867   54.9380  -13.2469 F       1  UNL1       -0.2041
     24 C         -20.4395   53.2054  -11.6152 C.ar    1  UNL1        0.0605
     25 C         -21.2212   52.3357  -10.8475 C.ar    1  UNL1        0.1556
     26 F         -20.6130   51.4562  -10.0123 F       1  UNL1       -0.2028
     27 C         -30.4426   46.5569   -2.2044 C.2     1  UNL1        0.2443
     28 O         -30.8299   45.6904   -1.3732 O.2     1  UNL1       -0.2730
     29 N         -30.0967   47.8792   -1.7619 N.am    1  UNL1       -0.2825
     30 H         -29.5020   48.4630   -2.3928 H       1  UNL1        0.1549
     31 C         -30.4144   48.4021   -0.4608 C.ar    1  UNL1        0.0535
     32 C         -29.7605   47.8875    0.6671 C.ar    1  UNL1        0.0353
     33 C         -30.0495   48.4068    1.9313 C.ar    1  UNL1        0.1002
     34 N         -30.9483   49.4177    2.0640 N.ar    1  UNL1       -0.2422
     35 C         -31.5838   49.9509    0.9873 C.ar    1  UNL1        0.1002
     36 C         -31.3248   49.4598   -0.2949 C.ar    1  UNL1        0.0353
     37 C         -31.5717   46.2348   -4.4319 C.3     1  UNL1        0.0569
     38 C         -30.7258   50.2347   -6.6084 C.ar    1  UNL1       -0.0224
     39 C         -30.7192   50.0796   -8.0216 C.ar    1  UNL1       -0.0028
     40 C         -30.9223   48.8189   -8.6092 C.ar    1  UNL1        0.0166
     41 C         -31.1331   47.7313   -7.7667 C.ar    1  UNL1        0.0563
     42 N         -31.3409   46.4531   -8.1268 N.ar    1  UNL1       -0.3523
     43 C         -31.5011   45.7614   -6.9763 C.ar    1  UNL1        0.0681
     44 C         -31.3986   46.6117   -5.8791 C.ar    1  UNL1       -0.0017
     45 C         -31.1545   47.8688   -6.4039 C.ar    1  UNL1        0.0128
     46 C         -30.9477   49.1042   -5.7884 C.ar    1  UNL1       -0.0031
     47 H         -31.3744   46.0683   -9.0970 H       1  UNL1        0.1660
     48 C         -31.1607   51.6877   -4.6042 C.3     1  UNL1        0.0047
     49 C         -30.4741   51.5882   -5.9711 C.3     1  UNL1        0.0224
     50 C         -28.9740   51.8796   -5.8558 C.3     1  UNL1        0.0047
@<TRIPOS>BOND
     1    48    49    1
     2    49    50    1
     3    49    38    1
     4    38    39   ar
     5    39    40   ar
     6    40    41   ar
     7    41    42   ar
     8    42    43   ar
     9    43    44   ar
    10    44    37    1
    11    37     1    1
    12     1     2    1
    13     2     3   am
    14     3     4    2
    15     3     6    1
    16     6     7   ar
    17     7     8   ar
    18     8     9   ar
    19     9    13    1
    20    13    14    1
    21    14    15    1
    22    15    16    1
    23    16    19    1
    24    19    20   ar
    25    20    21   ar
    26    21    22   ar
    27    22    23    1
    28    22    24   ar
    29    24    25   ar
    30    25    26    1
    31    16    17    1
    32    17    18    1
    33     9    10   ar
    34    10    11   ar
    35    11    12    1
    36     1    27    1
    37    27    28    2
    38    27    29   am
    39    29    31    1
    40    31    32   ar
    41    32    33   ar
    42    33    34   ar
    43    34    35   ar
    44    35    36   ar
    45    44    45   ar
    46    45    46   ar
    47    46    38   ar
    48    45    41   ar
    49    11     6   ar
    50    36    31   ar
    51    18    13    1
    52    25    19   ar
    53    42    47    1
    54     2     5    1
    55    29    30    1
@<TRIPOS>MOLECULE
*****
 50 55 0 0 0
SMALL
GASTEIGER

@<TRIPOS>ATOM
      1 C         -22.7540   53.5416  -10.6877 C.3     1  UNL1        0.1535
      2 N         -23.8184   53.0257   -9.8135 N.am    1  UNL1       -0.2945
      3 C         -24.4641   51.7664  -10.0559 C.2     1  UNL1        0.2483
      4 O         -24.3606   51.2229  -11.1898 O.2     1  UNL1       -0.2701
      5 H         -24.1753   53.6160   -9.0293 H       1  UNL1        0.1501
      6 C         -25.2658   51.0990   -9.0001 C.ar    1  UNL1        0.0808
      7 C         -24.7779   49.9238   -8.4020 C.ar    1  UNL1        0.0080
      8 C         -25.4987   49.2869   -7.3891 C.ar    1  UNL1        0.0148
      9 C         -26.7181   49.8183   -6.9440 C.ar    1  UNL1        0.0502
     10 C         -27.2082   50.9916   -7.5338 C.ar    1  UNL1        0.0443
     11 C         -26.4915   51.6328   -8.5481 C.ar    1  UNL1        0.1457
     12 F         -26.9812   52.7967   -9.0426 F       1  UNL1       -0.2040
     13 N         -27.4456   49.1908   -5.8723 N.pl3   1  UNL1       -0.3040
     14 C         -28.9093   49.2839   -5.8165 C.3     1  UNL1        0.1122
     15 C         -29.3724   49.3861   -4.3629 C.3     1  UNL1        0.1123
     16 N         -28.7191   48.3522   -3.5526 N.pl3   1  UNL1       -0.3023
     17 C         -27.2559   48.2628   -3.6044 C.3     1  UNL1        0.1123
     18 C         -26.7907   48.1600   -5.0570 C.3     1  UNL1        0.1122
     19 C         -29.4457   47.7161   -2.4865 C.ar    1  UNL1        0.0759
     20 C         -29.9207   48.4709   -1.4001 C.ar    1  UNL1        0.0191
     21 C         -30.6283   47.8509   -0.3660 C.ar    1  UNL1        0.0311
     22 C         -30.8641   46.4740   -0.4059 C.ar    1  UNL1        0.1425
     23 F         -31.5496   45.8742    0.5984 F       1  UNL1       -0.2041
     24 C         -30.3900   45.7147   -1.4794 C.ar    1  UNL1        0.0605
     25 C         -29.6821   46.3303   -2.5172 C.ar    1  UNL1        0.1556
     26 F         -29.2027   45.5732   -3.5361 F       1  UNL1       -0.2028
     27 C         -22.3013   54.9168  -10.2537 C.2     1  UNL1        0.2443
     28 O         -23.0694   55.9081  -10.3923 O.2     1  UNL1       -0.2730
     29 N         -21.0357   55.0700   -9.5916 N.am    1  UNL1       -0.2825
     30 H         -20.5726   54.2085   -9.2226 H       1  UNL1        0.1549
     31 C         -20.4276   56.3398   -9.2998 C.ar    1  UNL1        0.0535
     32 C         -19.7333   56.5103   -8.0943 C.ar    1  UNL1        0.0353
     33 C         -19.1221   57.7352   -7.8152 C.ar    1  UNL1        0.1002
     34 N         -19.1869   58.7505   -8.7165 N.ar    1  UNL1       -0.2422
     35 C         -19.8359   58.6091   -9.9024 C.ar    1  UNL1        0.1002
     36 C         -20.4617   57.4010  -10.2205 C.ar    1  UNL1        0.0353
     37 C         -21.5578   52.5660  -10.7648 C.3     1  UNL1        0.0569
     38 C         -17.1233   51.7592   -9.6989 C.ar    1  UNL1       -0.0224
     39 C         -16.9237   51.6617   -8.2946 C.ar    1  UNL1       -0.0028
     40 C         -17.9946   51.8345   -7.4007 C.ar    1  UNL1        0.0166
     41 C         -19.2534   52.0995   -7.9320 C.ar    1  UNL1        0.0563
     42 N         -20.3961   52.2991   -7.2531 N.ar    1  UNL1       -0.3523
     43 C         -21.3527   52.5112   -8.1845 C.ar    1  UNL1        0.0681
     44 C         -20.8100   52.4399   -9.4642 C.ar    1  UNL1       -0.0017
     45 C         -19.4621   52.1835   -9.2833 C.ar    1  UNL1        0.0128
     46 C         -18.4194   52.0259  -10.1974 C.ar    1  UNL1       -0.0031
     47 H         -20.5240   52.2910   -6.2167 H       1  UNL1        0.1660
     48 C         -16.4459   51.0941  -12.0261 C.3     1  UNL1        0.0047
     49 C         -15.9631   51.6057  -10.6642 C.3     1  UNL1        0.0224
     50 C         -15.1852   52.9176  -10.8135 C.3     1  UNL1        0.0047
@<TRIPOS>BOND
     1    48    49    1
     2    49    50    1
     3    49    38    1
     4    38    39   ar
     5    39    40   ar
     6    40    41   ar
     7    41    42   ar
     8    42    43   ar
     9    43    44   ar
    10    44    37    1
    11    37     1    1
    12     1     2    1
    13     2     3   am
    14     3     4    2
    15     3     6    1
    16     6     7   ar
    17     7     8   ar
    18     8     9   ar
    19     9    13    1
    20    13    14    1
    21    14    15    1
    22    15    16    1
    23    16    19    1
    24    19    20   ar
    25    20    21   ar
    26    21    22   ar
    27    22    23    1
    28    22    24   ar
    29    24    25   ar
    30    25    26    1
    31    16    17    1
    32    17    18    1
    33     9    10   ar
    34    10    11   ar
    35    11    12    1
    36     1    27    1
    37    27    28    2
    38    27    29   am
    39    29    31    1
    40    31    32   ar
    41    32    33   ar
    42    33    34   ar
    43    34    35   ar
    44    35    36   ar
    45    44    45   ar
    46    45    46   ar
    47    46    38   ar
    48    45    41   ar
    49    11     6   ar
    50    36    31   ar
    51    18    13    1
    52    25    19   ar
    53    42    47    1
    54     2     5    1
    55    29    30    1
@<TRIPOS>MOLECULE
*****
 50 55 0 0 0
SMALL
GASTEIGER

@<TRIPOS>ATOM
      1 C         -20.8744   52.9230  -11.4610 C.3     1  UNL1        0.1535
      2 N         -21.6800   52.2124  -10.4563 N.am    1  UNL1       -0.2945
      3 C         -23.0712   52.5004  -10.2483 C.2     1  UNL1        0.2483
      4 O         -23.5564   53.5766  -10.6933 O.2     1  UNL1       -0.2701
      5 H         -21.2217   51.5243   -9.8181 H       1  UNL1        0.1501
      6 C         -23.9466   51.5610   -9.5041 C.ar    1  UNL1        0.0808
      7 C         -23.6440   51.2472   -8.1673 C.ar    1  UNL1        0.0080
      8 C         -24.4629   50.3851   -7.4342 C.ar    1  UNL1        0.0148
      9 C         -25.6094   49.8272   -8.0187 C.ar    1  UNL1        0.0502
     10 C         -25.9186   50.1389   -9.3498 C.ar    1  UNL1        0.0443
     11 C         -25.1025   51.0003  -10.0884 C.ar    1  UNL1        0.1457
     12 F         -25.4798   51.3154  -11.3523 F       1  UNL1       -0.2040
     13 N         -26.4804   48.9715   -7.2567 N.pl3   1  UNL1       -0.3040
     14 C         -27.8396   49.4102   -6.9185 C.3     1  UNL1        0.1122
     15 C         -28.2244   48.8993   -5.5297 C.3     1  UNL1        0.1123
     16 N         -27.9167   47.4694   -5.4163 N.pl3   1  UNL1       -0.3023
     17 C         -26.5567   47.0318   -5.7492 C.3     1  UNL1        0.1123
     18 C         -26.1701   47.5413   -7.1378 C.3     1  UNL1        0.1122
     19 C         -28.7896   46.6091   -4.6633 C.ar    1  UNL1        0.0759
     20 C         -29.8637   45.9578   -5.2937 C.ar    1  UNL1        0.0191
     21 C         -30.7096   45.1205   -4.5602 C.ar    1  UNL1        0.0311
     22 C         -30.4929   44.9297   -3.1929 C.ar    1  UNL1        0.1425
     23 F         -31.3149   44.1183   -2.4829 F       1  UNL1       -0.2041
     24 C         -29.4308   45.5785   -2.5566 C.ar    1  UNL1        0.0605
     25 C         -28.5808   46.4166   -3.2860 C.ar    1  UNL1        0.1556
     26 F         -27.5735   47.0623   -2.6462 F       1  UNL1       -0.2028
     27 C         -20.1305   54.0876  -10.8487 C.2     1  UNL1        0.2443
     28 O         -19.1495   54.6000  -11.4544 O.2     1  UNL1       -0.2730
     29 N         -20.6093   54.6700   -9.6258 N.am    1  UNL1       -0.2825
     30 H         -21.5790   54.4285   -9.3192 H       1  UNL1        0.1549
     31 C         -19.8869   55.6532   -8.8649 C.ar    1  UNL1        0.0535
     32 C         -20.0575   57.0131   -9.1582 C.ar    1  UNL1        0.0353
     33 C         -19.3749   57.9736   -8.4079 C.ar    1  UNL1        0.1002
     34 N         -18.5624   57.5909   -7.3878 N.ar    1  UNL1       -0.2422
     35 C         -18.3920   56.2812   -7.0665 C.ar    1  UNL1        0.1002
     36 C         -19.0553   55.2884   -7.7924 C.ar    1  UNL1        0.0353
     37 C         -19.9014   51.9685  -12.1895 C.3     1  UNL1        0.0569
     38 C         -18.3396   51.9699   -7.8291 C.ar    1  UNL1       -0.0224
     39 C         -16.9197   52.0154   -7.7733 C.ar    1  UNL1       -0.0028
     40 C         -16.1521   52.0241   -8.9508 C.ar    1  UNL1        0.0166
     41 C         -16.8238   51.9909  -10.1693 C.ar    1  UNL1        0.0563
     42 N         -16.2784   51.9883  -11.3977 N.ar    1  UNL1       -0.3523
     43 C         -17.3135   51.9582  -12.2668 C.ar    1  UNL1        0.0681
     44 C         -18.5245   51.9467  -11.5808 C.ar    1  UNL1       -0.0017
     45 C         -18.1917   51.9596  -10.2376 C.ar    1  UNL1        0.0128
     46 C         -18.9828   51.9411   -9.0880 C.ar    1  UNL1       -0.0031
     47 H         -15.2621   52.0075  -11.6370 H       1  UNL1        0.1660
     48 C         -20.4502   52.7547   -6.7126 C.3     1  UNL1        0.0047
     49 C         -19.1691   51.9270   -6.5597 C.3     1  UNL1        0.0224
     50 C         -19.4910   50.4851   -6.1527 C.3     1  UNL1        0.0047
@<TRIPOS>BOND
     1    48    49    1
     2    49    50    1
     3    49    38    1
     4    38    39   ar
     5    39    40   ar
     6    40    41   ar
     7    41    42   ar
     8    42    43   ar
     9    43    44   ar
    10    44    37    1
    11    37     1    1
    12     1     2    1
    13     2     3   am
    14     3     4    2
    15     3     6    1
    16     6     7   ar
    17     7     8   ar
    18     8     9   ar
    19     9    13    1
    20    13    14    1
    21    14    15    1
    22    15    16    1
    23    16    19    1
    24    19    20   ar
    25    20    21   ar
    26    21    22   ar
    27    22    23    1
    28    22    24   ar
    29    24    25   ar
    30    25    26    1
    31    16    17    1
    32    17    18    1
    33     9    10   ar
    34    10    11   ar
    35    11    12    1
    36     1    27    1
    37    27    28    2
    38    27    29   am
    39    29    31    1
    40    31    32   ar
    41    32    33   ar
    42    33    34   ar
    43    34    35   ar
    44    35    36   ar
    45    44    45   ar
    46    45    46   ar
    47    46    38   ar
    48    45    41   ar
    49    11     6   ar
    50    36    31   ar
    51    18    13    1
    52    25    19   ar
    53    42    47    1
    54     2     5    1
    55    29    30    1
@<TRIPOS>MOLECULE
*****
 50 55 0 0 0
SMALL
GASTEIGER

@<TRIPOS>ATOM
      1 C         -30.3565   45.4839   -5.0761 C.3     1  UNL1        0.1535
      2 N         -29.1681   46.2852   -5.4063 N.am    1  UNL1       -0.2945
      3 C         -28.4739   46.1451   -6.6553 C.2     1  UNL1        0.2483
      4 O         -28.6705   45.1200   -7.3640 O.2     1  UNL1       -0.2701
      5 H         -28.7632   46.9292   -4.6906 H       1  UNL1        0.1501
      6 C         -27.5155   47.1782   -7.1210 C.ar    1  UNL1        0.0808
      7 C         -27.2072   47.2670   -8.4900 C.ar    1  UNL1        0.0080
      8 C         -26.3273   48.2443   -8.9609 C.ar    1  UNL1        0.0148
      9 C         -25.7456   49.1622   -8.0741 C.ar    1  UNL1        0.0502
     10 C         -26.0516   49.0812   -6.7086 C.ar    1  UNL1        0.0443
     11 C         -26.9308   48.1049   -6.2316 C.ar    1  UNL1        0.1457
     12 F         -27.2387   48.1086   -4.9110 F       1  UNL1       -0.2040
     13 N         -24.8710   50.1979   -8.5576 N.pl3   1  UNL1       -0.3040
     14 C         -25.1202   50.8305   -9.8584 C.3     1  UNL1        0.1122
     15 C         -23.7935   51.1573  -10.5445 C.3     1  UNL1        0.1123
     16 N         -22.8981   51.8445   -9.6075 N.pl3   1  UNL1       -0.3023
     17 C         -22.6448   51.2095   -8.3097 C.3     1  UNL1        0.1123
     18 C         -23.9702   50.8824   -7.6216 C.3     1  UNL1        0.1122
     19 C         -22.0290   52.8866  -10.0850 C.ar    1  UNL1        0.0759
     20 C         -20.6452   52.6649  -10.1931 C.ar    1  UNL1        0.0191
     21 C         -19.8027   53.6785  -10.6594 C.ar    1  UNL1        0.0311
     22 C         -20.3331   54.9207  -11.0176 C.ar    1  UNL1        0.1425
     23 F         -19.5144   55.9029  -11.4686 F       1  UNL1       -0.2041
     24 C         -21.7073   55.1519  -10.9074 C.ar    1  UNL1        0.0605
     25 C         -22.5549   54.1408  -10.4423 C.ar    1  UNL1        0.1556
     26 F         -23.8819   54.3925  -10.3127 F       1  UNL1       -0.2028
     27 C         -30.6635   45.5356   -3.5970 C.2     1  UNL1        0.2443
     28 O         -31.5695   44.8027   -3.1134 O.2     1  UNL1       -0.2730
     29 N         -29.8515   46.3465   -2.7328 N.am    1  UNL1       -0.2825
     30 H         -28.9380   46.6911   -3.1062 H       1  UNL1        0.1549
     31 C         -30.1590   46.6116   -1.3535 C.ar    1  UNL1        0.0535
     32 C         -30.5865   45.5619   -0.5289 C.ar    1  UNL1        0.0353
     33 C         -30.8658   45.8094    0.8173 C.ar    1  UNL1        0.1002
     34 N         -30.7074   47.0590    1.3279 N.ar    1  UNL1       -0.2422
     35 C         -30.2756   48.0929    0.5584 C.ar    1  UNL1        0.1002
     36 C         -29.9863   47.8888   -0.7932 C.ar    1  UNL1        0.0353
     37 C         -31.5840   45.9159   -5.9098 C.3     1  UNL1        0.0569
     38 C         -30.9093   50.4876   -5.5990 C.ar    1  UNL1       -0.0224
     39 C         -30.7046   51.0823   -6.8740 C.ar    1  UNL1       -0.0028
     40 C         -30.6912   50.2988   -8.0409 C.ar    1  UNL1        0.0166
     41 C         -30.8879   48.9273   -7.9098 C.ar    1  UNL1        0.0563
     42 N         -30.9064   48.0115   -8.8934 N.ar    1  UNL1       -0.3523
     43 C         -31.1361   46.8221   -8.2933 C.ar    1  UNL1        0.0681
     44 C         -31.2690   46.9888   -6.9179 C.ar    1  UNL1       -0.0017
     45 C         -31.0989   48.3430   -6.6888 C.ar    1  UNL1        0.0128
     46 C         -31.1094   49.0906   -5.5103 C.ar    1  UNL1       -0.0031
     47 H         -30.7728   48.1803   -9.9153 H       1  UNL1        0.1660
     48 C         -31.5775   52.6780   -4.5632 C.3     1  UNL1        0.0047
     49 C         -30.8914   51.3264   -4.3351 C.3     1  UNL1        0.0224
     50 C         -31.5288   50.5771   -3.1600 C.3     1  UNL1        0.0047
@<TRIPOS>BOND
     1    48    49    1
     2    49    50    1
     3    49    38    1
     4    38    39   ar
     5    39    40   ar
     6    40    41   ar
     7    41    42   ar
     8    42    43   ar
     9    43    44   ar
    10    44    37    1
    11    37     1    1
    12     1     2    1
    13     2     3   am
    14     3     4    2
    15     3     6    1
    16     6     7   ar
    17     7     8   ar
    18     8     9   ar
    19     9    13    1
    20    13    14    1
    21    14    15    1
    22    15    16    1
    23    16    19    1
    24    19    20   ar
    25    20    21   ar
    26    21    22   ar
    27    22    23    1
    28    22    24   ar
    29    24    25   ar
    30    25    26    1
    31    16    17    1
    32    17    18    1
    33     9    10   ar
    34    10    11   ar
    35    11    12    1
    36     1    27    1
    37    27    28    2
    38    27    29   am
    39    29    31    1
    40    31    32   ar
    41    32    33   ar
    42    33    34   ar
    43    34    35   ar
    44    35    36   ar
    45    44    45   ar
    46    45    46   ar
    47    46    38   ar
    48    45    41   ar
    49    11     6   ar
    50    36    31   ar
    51    18    13    1
    52    25    19   ar
    53    42    47    1
    54     2     5    1
    55    29    30    1
