@<TRIPOS>MOLECULE
*****
 38 42 0 0 0
SMALL
GASTEIGER

@<TRIPOS>ATOM
      1 C          49.8847   11.6639  -21.2263 C.2     1  UNL1        0.2506
      2 O          51.0753   11.6813  -21.6411 O.2     1  UNL1       -0.2699
      3 N          48.8077   11.3706  -22.1390 N.am    1  UNL1       -0.2680
      4 C          47.6797   10.5449  -21.6974 C.3     1  UNL1        0.1412
      5 C          46.4705   11.4312  -21.4241 C.3     1  UNL1        0.2268
      6 O          46.4677   12.5686  -22.2827 O.3     1  UNL1       -0.4739
      7 C          46.5397   12.4559  -23.6726 C.ar    1  UNL1        0.1359
      8 C          45.4208   12.8460  -24.4054 C.ar    1  UNL1        0.0366
      9 C          45.3954   12.7108  -25.7861 C.ar    1  UNL1        0.0028
     10 C          46.5070   12.2138  -26.4743 C.ar    1  UNL1       -0.0040
     11 C          47.6938   11.8964  -25.7599 C.ar    1  UNL1       -0.0213
     12 C          48.9444   11.4841  -26.5129 C.3     1  UNL1        0.0309
     13 C          47.6990   11.9681  -24.3339 C.ar    1  UNL1        0.0277
     14 C          48.9872   11.6451  -23.5717 C.3     1  UNL1        0.1233
     15 C          46.3890   12.0304  -27.9397 C.ar    1  UNL1        0.0012
     16 C          46.5528   10.7409  -28.5122 C.ar    1  UNL1        0.0016
     17 C          46.4576   10.5563  -29.9044 C.ar    1  UNL1        0.0206
     18 C          46.2068   11.6769  -30.6905 C.ar    1  UNL1        0.0985
     19 N          46.0807   11.7332  -32.0286 N.ar    1  UNL1       -0.2241
     20 C          45.8521   13.0540  -32.2551 C.ar    1  UNL1        0.1750
     21 N          45.8338   13.8014  -31.1253 N.ar    1  UNL1       -0.3349
     22 C          46.0586   12.9162  -30.1476 C.ar    1  UNL1        0.0757
     23 C          46.1459   13.1435  -28.7770 C.ar    1  UNL1        0.0185
     24 H          45.6795   14.8306  -31.0406 H       1  UNL1        0.1675
     25 C          48.9234   13.0859  -19.3750 C.ar    1  UNL1        0.0503
     26 C          48.6521   13.2460  -18.0006 C.ar    1  UNL1        0.0328
     27 C          49.0904   12.2996  -17.0665 C.ar    1  UNL1        0.1069
     28 C          49.8002   11.1759  -17.4983 C.ar    1  UNL1        0.0186
     29 C          50.0697   10.9958  -18.8542 C.ar    1  UNL1        0.0071
     30 C          49.6234   11.9302  -19.7995 C.ar    1  UNL1        0.0667
     31 S          48.7254   12.5176  -15.3578 S.O2    1  UNL1        0.0105
     32 C          50.2447   12.6699  -14.4467 C.3     1  UNL1        0.1816
     33 O          47.9489   11.3346  -14.8512 O.2     1  UNL1       -0.1686
     34 O          47.8984   13.7574  -15.1619 O.2     1  UNL1       -0.1686
     35 N          48.5312   14.0945  -20.3336 N.pl3   1  UNL1       -0.3325
     36 H          47.5163   14.2722  -20.5043 H       1  UNL1        0.1468
     37 C          48.8580   15.3135  -22.4387 C.3     1  UNL1        0.0229
     38 C          49.4646   14.9239  -21.0955 C.3     1  UNL1        0.0871
@<TRIPOS>BOND
     1    37    38    1
     2    38    35    1
     3    35    25    1
     4    25    26   ar
     5    26    27   ar
     6    27    31    1
     7    31    32    1
     8    31    33    2
     9    31    34    2
    10    27    28   ar
    11    28    29   ar
    12    29    30   ar
    13    30     1    1
    14     1     2    2
    15     1     3   am
    16     3     4    1
    17     4     5    1
    18     5     6    1
    19     6     7    1
    20     7     8   ar
    21     8     9   ar
    22     9    10   ar
    23    10    15    1
    24    15    16   ar
    25    16    17   ar
    26    17    18   ar
    27    18    19   ar
    28    19    20   ar
    29    20    21   ar
    30    21    22   ar
    31    22    23   ar
    32    10    11   ar
    33    11    12    1
    34    11    13   ar
    35    13    14    1
    36    30    25   ar
    37    14     3    1
    38    13     7   ar
    39    23    15   ar
    40    22    18   ar
    41    35    36    1
    42    21    24    1
@<TRIPOS>MOLECULE
*****
 38 42 0 0 0
SMALL
GASTEIGER

@<TRIPOS>ATOM
      1 C          46.5670   12.2780  -20.4163 C.2     1  UNL1        0.2506
      2 O          45.3445   11.9969  -20.2883 O.2     1  UNL1       -0.2699
      3 N          47.0908   12.6439  -21.7089 N.am    1  UNL1       -0.2680
      4 C          48.0954   13.7061  -21.8165 C.3     1  UNL1        0.1412
      5 C          49.4706   13.0910  -22.0468 C.3     1  UNL1        0.2268
      6 O          49.3683   11.8751  -22.7831 O.3     1  UNL1       -0.4739
      7 C          48.7162   11.8003  -24.0154 C.ar    1  UNL1        0.1359
      8 C          49.4966   11.5289  -25.1372 C.ar    1  UNL1        0.0366
      9 C          48.9300   11.4947  -26.4034 C.ar    1  UNL1        0.0028
     10 C          47.5566   11.6960  -26.5755 C.ar    1  UNL1       -0.0040
     11 C          46.7239   11.8820  -25.4389 C.ar    1  UNL1       -0.0213
     12 C          45.2189   11.9677  -25.6078 C.3     1  UNL1        0.0309
     13 C          47.3133   11.9874  -24.1427 C.ar    1  UNL1        0.0277
     14 C          46.4088   12.1667  -22.9203 C.3     1  UNL1        0.1233
     15 C          47.0276   11.7148  -27.9592 C.ar    1  UNL1        0.0012
     16 C          46.9363   10.5087  -28.7039 C.ar    1  UNL1        0.0016
     17 C          46.4493   10.5157  -30.0245 C.ar    1  UNL1        0.0206
     18 C          46.0714   11.7396  -30.5688 C.ar    1  UNL1        0.0985
     19 N          45.5865   11.9789  -31.8005 N.ar    1  UNL1       -0.2241
     20 C          45.3980   13.3252  -31.7946 C.ar    1  UNL1        0.1750
     21 N          45.7437   13.9146  -30.6247 N.ar    1  UNL1       -0.3349
     22 C          46.1659   12.8993  -29.8627 C.ar    1  UNL1        0.0757
     23 C          46.6425   12.9378  -28.5553 C.ar    1  UNL1        0.0185
     24 H          45.6916   14.9279  -30.3781 H       1  UNL1        0.1675
     25 C          48.3500   11.1829  -19.0039 C.ar    1  UNL1        0.0503
     26 C          49.1953   11.2433  -17.8769 C.ar    1  UNL1        0.0328
     27 C          49.1146   12.3106  -16.9744 C.ar    1  UNL1        0.1069
     28 C          48.1906   13.3360  -17.1933 C.ar    1  UNL1        0.0186
     29 C          47.3531   13.2983  -18.3072 C.ar    1  UNL1        0.0071
     30 C          47.4352   12.2412  -19.2247 C.ar    1  UNL1        0.0667
     31 S          50.1920   12.3676  -15.5828 S.O2    1  UNL1        0.0105
     32 C          49.5822   13.5622  -14.4155 C.3     1  UNL1        0.1816
     33 O          51.5739   12.7564  -16.0283 O.2     1  UNL1       -0.1686
     34 O          50.2585   11.0166  -14.9273 O.2     1  UNL1       -0.1686
     35 N          48.3843   10.0492  -19.9003 N.pl3   1  UNL1       -0.3325
     36 H          47.4870    9.6168  -20.2144 H       1  UNL1        0.1468
     37 C          49.3743    8.9342  -21.8499 C.3     1  UNL1        0.0229
     38 C          49.6069    9.4491  -20.4340 C.3     1  UNL1        0.0871
@<TRIPOS>BOND
     1    37    38    1
     2    38    35    1
     3    35    25    1
     4    25    26   ar
     5    26    27   ar
     6    27    31    1
     7    31    32    1
     8    31    33    2
     9    31    34    2
    10    27    28   ar
    11    28    29   ar
    12    29    30   ar
    13    30     1    1
    14     1     2    2
    15     1     3   am
    16     3     4    1
    17     4     5    1
    18     5     6    1
    19     6     7    1
    20     7     8   ar
    21     8     9   ar
    22     9    10   ar
    23    10    15    1
    24    15    16   ar
    25    16    17   ar
    26    17    18   ar
    27    18    19   ar
    28    19    20   ar
    29    20    21   ar
    30    21    22   ar
    31    22    23   ar
    32    10    11   ar
    33    11    12    1
    34    11    13   ar
    35    13    14    1
    36    30    25   ar
    37    14     3    1
    38    13     7   ar
    39    23    15   ar
    40    22    18   ar
    41    35    36    1
    42    21    24    1
@<TRIPOS>MOLECULE
*****
 38 42 0 0 0
SMALL
GASTEIGER

@<TRIPOS>ATOM
      1 C          49.9592   12.1204  -21.1250 C.2     1  UNL1        0.2506
      2 O          51.1059   12.4339  -21.5454 O.2     1  UNL1       -0.2699
      3 N          48.9668   11.6200  -22.0436 N.am    1  UNL1       -0.2680
      4 C          48.0709   10.5352  -21.6319 C.3     1  UNL1        0.1412
      5 C          46.6920   11.1008  -21.3136 C.3     1  UNL1        0.2268
      6 O          46.4092   12.2398  -22.1220 O.3     1  UNL1       -0.4739
      7 C          46.4839   12.2042  -23.5158 C.ar    1  UNL1        0.1359
      8 C          45.2934   12.3503  -24.2246 C.ar    1  UNL1        0.0366
      9 C          45.2788   12.2695  -25.6098 C.ar    1  UNL1        0.0028
     10 C          46.4651   12.0760  -26.3252 C.ar    1  UNL1       -0.0040
     11 C          47.7043   12.0172  -25.6319 C.ar    1  UNL1       -0.0213
     12 C          49.0047   11.9413  -26.4091 C.3     1  UNL1        0.0309
     13 C          47.7147   12.0297  -24.2042 C.ar    1  UNL1        0.0277
     14 C          49.0545   11.9874  -23.4640 C.3     1  UNL1        0.1233
     15 C          46.3704   11.9301  -27.7965 C.ar    1  UNL1        0.0012
     16 C          46.5614   10.6589  -28.4005 C.ar    1  UNL1        0.0016
     17 C          46.4887   10.5102  -29.7983 C.ar    1  UNL1        0.0206
     18 C          46.2321   11.6477  -30.5580 C.ar    1  UNL1        0.0985
     19 N          46.1240   11.7379  -31.8958 N.ar    1  UNL1       -0.2241
     20 C          45.8790   13.0607  -32.0905 C.ar    1  UNL1        0.1750
     21 N          45.8336   13.7773  -30.9416 N.ar    1  UNL1       -0.3349
     22 C          46.0579   12.8697  -29.9846 C.ar    1  UNL1        0.0757
     23 C          46.1225   13.0616  -28.6074 C.ar    1  UNL1        0.0185
     24 H          45.6628   14.8016  -30.8320 H       1  UNL1        0.1675
     25 C          50.6763   12.1225  -18.7044 C.ar    1  UNL1        0.0503
     26 C          50.3382   12.3315  -17.3515 C.ar    1  UNL1        0.0328
     27 C          49.0241   12.6380  -16.9782 C.ar    1  UNL1        0.1069
     28 C          48.0324   12.7469  -17.9567 C.ar    1  UNL1        0.0186
     29 C          48.3496   12.5531  -19.3004 C.ar    1  UNL1        0.0071
     30 C          49.6651   12.2594  -19.6865 C.ar    1  UNL1        0.0667
     31 S          48.6329   12.9076  -15.2826 S.O2    1  UNL1        0.0105
     32 C          50.1229   13.2820  -14.3876 C.3     1  UNL1        0.1816
     33 O          47.9948   11.6740  -14.7081 O.2     1  UNL1       -0.1686
     34 O          47.6697   14.0543  -15.1524 O.2     1  UNL1       -0.1686
     35 N          52.0171   11.7397  -19.0861 N.pl3   1  UNL1       -0.3325
     36 H          52.2023   10.7587  -19.3930 H       1  UNL1        0.1468
     37 C          52.7548   14.0284  -19.5777 C.3     1  UNL1        0.0229
     38 C          53.1679   12.6427  -19.0950 C.3     1  UNL1        0.0871
@<TRIPOS>BOND
     1    37    38    1
     2    38    35    1
     3    35    25    1
     4    25    26   ar
     5    26    27   ar
     6    27    31    1
     7    31    32    1
     8    31    33    2
     9    31    34    2
    10    27    28   ar
    11    28    29   ar
    12    29    30   ar
    13    30     1    1
    14     1     2    2
    15     1     3   am
    16     3     4    1
    17     4     5    1
    18     5     6    1
    19     6     7    1
    20     7     8   ar
    21     8     9   ar
    22     9    10   ar
    23    10    15    1
    24    15    16   ar
    25    16    17   ar
    26    17    18   ar
    27    18    19   ar
    28    19    20   ar
    29    20    21   ar
    30    21    22   ar
    31    22    23   ar
    32    10    11   ar
    33    11    12    1
    34    11    13   ar
    35    13    14    1
    36    30    25   ar
    37    14     3    1
    38    13     7   ar
    39    23    15   ar
    40    22    18   ar
    41    35    36    1
    42    21    24    1
@<TRIPOS>MOLECULE
*****
 38 42 0 0 0
SMALL
GASTEIGER

@<TRIPOS>ATOM
      1 C          47.0647   12.6323  -19.4595 C.2     1  UNL1        0.2506
      2 O          45.8285   12.4470  -19.2936 O.2     1  UNL1       -0.2699
      3 N          47.5796   12.9232  -20.7745 N.am    1  UNL1       -0.2680
      4 C          48.6570   13.9039  -20.9370 C.3     1  UNL1        0.1412
      5 C          49.9761   13.1816  -21.1833 C.3     1  UNL1        0.2268
      6 O          49.7644   11.9576  -21.8817 O.3     1  UNL1       -0.4739
      7 C          49.0760   11.8989  -23.0951 C.ar    1  UNL1        0.1359
      8 C          49.8040   11.5399  -24.2274 C.ar    1  UNL1        0.0366
      9 C          49.2030   11.5144  -25.4778 C.ar    1  UNL1        0.0028
     10 C          47.8442   11.8133  -25.6219 C.ar    1  UNL1       -0.0040
     11 C          47.0582   12.0915  -24.4710 C.ar    1  UNL1       -0.0213
     12 C          45.5597   12.2851  -24.6054 C.3     1  UNL1        0.0309
     13 C          47.6880   12.1871  -23.1933 C.ar    1  UNL1        0.0277
     14 C          46.8321   12.4662  -21.9546 C.3     1  UNL1        0.1233
     15 C          47.2814   11.8347  -26.9922 C.ar    1  UNL1        0.0012
     16 C          47.2296   10.6410  -27.7602 C.ar    1  UNL1        0.0016
     17 C          46.7108   10.6513  -29.0687 C.ar    1  UNL1        0.0206
     18 C          46.2621   11.8664  -29.5777 C.ar    1  UNL1        0.0985
     19 N          45.7366   12.1071  -30.7924 N.ar    1  UNL1       -0.2241
     20 C          45.4846   13.4423  -30.7533 C.ar    1  UNL1        0.1750
     21 N          45.8303   14.0239  -29.5795 N.ar    1  UNL1       -0.3349
     22 C          46.3185   13.0147  -28.8493 C.ar    1  UNL1        0.0757
     23 C          46.8244   13.0496  -27.5529 C.ar    1  UNL1        0.0185
     24 H          45.7360   15.0283  -29.3101 H       1  UNL1        0.1675
     25 C          47.8627   13.4902  -17.2233 C.ar    1  UNL1        0.0503
     26 C          48.7061   13.3265  -16.1053 C.ar    1  UNL1        0.0328
     27 C          49.6432   12.2873  -16.0580 C.ar    1  UNL1        0.1069
     28 C          49.7424   11.3934  -17.1276 C.ar    1  UNL1        0.0186
     29 C          48.9104   11.5337  -18.2374 C.ar    1  UNL1        0.0071
     30 C          47.9590   12.5624  -18.2890 C.ar    1  UNL1        0.0667
     31 S          50.6743   12.0981  -14.6432 S.O2    1  UNL1        0.0105
     32 C          50.1775   13.2614  -13.3937 C.3     1  UNL1        0.1816
     33 O          52.1068   12.3468  -15.0241 O.2     1  UNL1       -0.1686
     34 O          50.5546   10.7010  -14.1018 O.2     1  UNL1       -0.1686
     35 N          46.9414   14.6014  -17.3045 N.pl3   1  UNL1       -0.3325
     36 H          46.3266   14.6972  -18.1434 H       1  UNL1        0.1468
     37 C          45.3032   15.8832  -16.0017 C.3     1  UNL1        0.0229
     38 C          46.7811   15.6246  -16.2716 C.3     1  UNL1        0.0871
@<TRIPOS>BOND
     1    37    38    1
     2    38    35    1
     3    35    25    1
     4    25    26   ar
     5    26    27   ar
     6    27    31    1
     7    31    32    1
     8    31    33    2
     9    31    34    2
    10    27    28   ar
    11    28    29   ar
    12    29    30   ar
    13    30     1    1
    14     1     2    2
    15     1     3   am
    16     3     4    1
    17     4     5    1
    18     5     6    1
    19     6     7    1
    20     7     8   ar
    21     8     9   ar
    22     9    10   ar
    23    10    15    1
    24    15    16   ar
    25    16    17   ar
    26    17    18   ar
    27    18    19   ar
    28    19    20   ar
    29    20    21   ar
    30    21    22   ar
    31    22    23   ar
    32    10    11   ar
    33    11    12    1
    34    11    13   ar
    35    13    14    1
    36    30    25   ar
    37    14     3    1
    38    13     7   ar
    39    23    15   ar
    40    22    18   ar
    41    35    36    1
    42    21    24    1
@<TRIPOS>MOLECULE
*****
 38 42 0 0 0
SMALL
GASTEIGER

@<TRIPOS>ATOM
      1 C          49.7524   12.2769  -21.0893 C.2     1  UNL1        0.2506
      2 O          50.9151   12.5571  -21.4888 O.2     1  UNL1       -0.2699
      3 N          48.7636   11.8020  -22.0252 N.am    1  UNL1       -0.2680
      4 C          47.8301   10.7438  -21.6280 C.3     1  UNL1        0.1412
      5 C          46.4619   11.3486  -21.3367 C.3     1  UNL1        0.2268
      6 O          46.2263   12.4929  -22.1527 O.3     1  UNL1       -0.4739
      7 C          46.3259   12.4515  -23.5448 C.ar    1  UNL1        0.1359
      8 C          45.1534   12.6289  -24.2761 C.ar    1  UNL1        0.0366
      9 C          45.1623   12.5448  -25.6611 C.ar    1  UNL1        0.0028
     10 C          46.3558   12.3163  -26.3538 C.ar    1  UNL1       -0.0040
     11 C          47.5797   12.2248  -25.6373 C.ar    1  UNL1       -0.0213
     12 C          48.8917   12.1104  -26.3899 C.3     1  UNL1        0.0309
     13 C          47.5640   12.2408  -24.2097 C.ar    1  UNL1        0.0277
     14 C          48.8880   12.1630  -23.4445 C.3     1  UNL1        0.1233
     15 C          46.2845   12.1693  -27.8262 C.ar    1  UNL1        0.0012
     16 C          46.5005   10.9005  -28.4272 C.ar    1  UNL1        0.0016
     17 C          46.4500   10.7509  -29.8259 C.ar    1  UNL1        0.0206
     18 C          46.1901   11.8850  -30.5894 C.ar    1  UNL1        0.0985
     19 N          46.1004   11.9738  -31.9287 N.ar    1  UNL1       -0.2241
     20 C          45.8413   13.2934  -32.1273 C.ar    1  UNL1        0.1750
     21 N          45.7700   14.0094  -30.9793 N.ar    1  UNL1       -0.3349
     22 C          45.9919   13.1047  -30.0189 C.ar    1  UNL1        0.0757
     23 C          46.0340   13.2974  -28.6409 C.ar    1  UNL1        0.0185
     24 H          45.5846   15.0314  -30.8723 H       1  UNL1        0.1675
     25 C          49.8208   11.4539  -18.7036 C.ar    1  UNL1        0.0503
     26 C          49.5423   11.6924  -17.3421 C.ar    1  UNL1        0.0328
     27 C          48.8711   12.8529  -16.9384 C.ar    1  UNL1        0.1069
     28 C          48.4767   13.7940  -17.8933 C.ar    1  UNL1        0.0186
     29 C          48.7518   13.5799  -19.2432 C.ar    1  UNL1        0.0071
     30 C          49.4356   12.4279  -19.6569 C.ar    1  UNL1        0.0667
     31 S          48.5486   13.1318  -15.2299 S.O2    1  UNL1        0.0105
     32 C          50.0666   13.5547  -14.4063 C.3     1  UNL1        0.1816
     33 O          47.9693   11.8888  -14.6148 O.2     1  UNL1       -0.1686
     34 O          47.5624   14.2547  -15.0686 O.2     1  UNL1       -0.1686
     35 N          50.4532   10.2258  -19.1301 N.pl3   1  UNL1       -0.3325
     36 H          51.4957   10.1634  -19.1423 H       1  UNL1        0.1468
     37 C          49.7422    8.8880  -21.0611 C.3     1  UNL1        0.0229
     38 C          49.7337    9.0208  -19.5425 C.3     1  UNL1        0.0871
@<TRIPOS>BOND
     1    37    38    1
     2    38    35    1
     3    35    25    1
     4    25    26   ar
     5    26    27   ar
     6    27    31    1
     7    31    32    1
     8    31    33    2
     9    31    34    2
    10    27    28   ar
    11    28    29   ar
    12    29    30   ar
    13    30     1    1
    14     1     2    2
    15     1     3   am
    16     3     4    1
    17     4     5    1
    18     5     6    1
    19     6     7    1
    20     7     8   ar
    21     8     9   ar
    22     9    10   ar
    23    10    15    1
    24    15    16   ar
    25    16    17   ar
    26    17    18   ar
    27    18    19   ar
    28    19    20   ar
    29    20    21   ar
    30    21    22   ar
    31    22    23   ar
    32    10    11   ar
    33    11    12    1
    34    11    13   ar
    35    13    14    1
    36    30    25   ar
    37    14     3    1
    38    13     7   ar
    39    23    15   ar
    40    22    18   ar
    41    35    36    1
    42    21    24    1
