@<TRIPOS>MOLECULE
*****
 55 61 0 0 0
SMALL
GASTEIGER

@<TRIPOS>ATOM
      1 N         -24.4786   51.5360   -8.4630 N.3     1  UNL1       -0.2638
      2 C         -25.2130   52.6182   -9.1358 C.3     1  UNL1        0.0739
      3 C         -26.6510   52.1627   -9.3109 C.3     1  UNL1        0.0374
      4 C         -26.8829   51.1317   -8.1989 C.3     1  UNL1        0.1239
      5 C         -25.4742   50.8626   -7.6120 C.3     1  UNL1        0.0913
      6 C         -27.5108   49.8841   -8.8058 C.2     1  UNL1        0.2359
      7 O         -26.7871   48.9835   -9.3141 O.2     1  UNL1       -0.2739
      8 N         -28.9420   49.7872   -8.9108 N.am    1  UNL1       -0.2832
      9 H         -29.4989   50.6683   -8.8324 H       1  UNL1        0.1549
     10 C         -29.6435   48.5715   -9.2216 C.ar    1  UNL1        0.0505
     11 C         -30.0266   47.7043   -8.1665 C.ar    1  UNL1        0.0162
     12 C         -30.6791   46.4873   -8.4338 C.ar    1  UNL1        0.0198
     13 C         -30.9366   46.1707   -9.7638 C.ar    1  UNL1        0.0754
     14 N         -31.4942   45.0538  -10.2557 N.ar    1  UNL1       -0.2757
     15 N         -31.5058   45.1369  -11.5810 N.ar    1  UNL1       -0.1726
     16 C         -30.9576   46.3242  -11.9407 C.ar    1  UNL1        0.1036
     17 C         -30.5781   46.9982  -10.7896 C.ar    1  UNL1        0.0376
     18 C         -29.9003   48.1966  -10.5627 C.ar    1  UNL1        0.0177
     19 H         -31.8503   44.2380   -9.7100 H       1  UNL1        0.1889
     20 C         -30.8107   46.7633  -13.3435 C.ar    1  UNL1        0.0388
     21 C         -31.2685   48.0182  -13.7689 C.ar    1  UNL1        0.0079
     22 C         -31.1267   48.4030  -15.1029 C.ar    1  UNL1        0.0578
     23 C         -30.5302   47.5188  -16.0201 C.ar    1  UNL1        0.2247
     24 N         -30.1172   46.2974  -15.5874 N.ar    1  UNL1       -0.2101
     25 C         -30.2468   45.9013  -14.2935 C.ar    1  UNL1        0.1036
     26 O         -30.3521   47.8369  -17.3762 O.3     1  UNL1       -0.4640
     27 C         -29.3435   48.6993  -17.9085 C.3     1  UNL1        0.1678
     28 C         -28.3718   47.9028  -18.7856 C.3     1  UNL1        0.0473
     29 C         -30.0207   49.7938  -18.7312 C.3     1  UNL1        0.0473
     30 S         -28.0357   51.7397   -6.8779 S.3     1  UNL1       -0.1308
     31 C         -27.0015   51.5450   -5.3806 C.3     1  UNL1        0.0696
     32 C         -23.8891   50.5898   -9.4363 C.3     1  UNL1        0.1587
     33 C         -20.7033   54.7413   -9.6711 C.2     1  UNL1       -0.0231
     34 C         -21.3275   54.6084  -10.8496 C.2     1  UNL1       -0.0089
     35 C         -21.7538   53.2553  -11.3430 C.3     1  UNL1        0.1196
     36 N         -22.2125   52.3981  -10.2347 N.am    1  UNL1       -0.2740
     37 C         -23.1473   51.3315  -10.5217 C.2     1  UNL1        0.2423
     38 O         -23.3914   51.0221  -11.7203 O.2     1  UNL1       -0.2733
     39 C         -21.6551   52.5662   -8.8780 C.3     1  UNL1        0.0984
     40 C         -20.4376   53.5008   -8.8586 C.3     1  UNL1        0.0476
     41 C         -19.2761   58.5877   -8.3455 C.ar    1  UNL1        0.0375
     42 C         -19.1336   57.4563   -7.5257 C.ar    1  UNL1        0.0031
     43 C         -19.5972   56.2087   -7.9524 C.ar    1  UNL1       -0.0002
     44 C         -20.2148   56.0664   -9.2079 C.ar    1  UNL1       -0.0042
     45 C         -20.3523   57.1991  -10.0282 C.ar    1  UNL1       -0.0002
     46 C         -19.8897   58.4469   -9.6010 C.ar    1  UNL1        0.0031
     47 C         -18.6680   61.7988   -6.9819 C.ar    1  UNL1        0.1679
     48 N         -19.5121   60.7597   -7.1336 N.ar    1  UNL1       -0.2080
     49 C         -18.7854   59.9074   -7.8941 C.ar    1  UNL1        0.1829
     50 N         -17.5601   60.3922   -8.1868 N.ar    1  UNL1       -0.1487
     51 N         -17.4986   61.5782   -7.6108 N.ar    1  UNL1       -0.2320
     52 C         -16.3298   62.4489   -7.6486 C.3     1  UNL1        0.1552
     53 C         -18.9912   63.0147   -6.1634 C.3     1  UNL1        0.2070
     54 C         -20.3053   63.8258   -4.4353 C.3     1  UNL1        0.1747
     55 O         -20.1545   62.7970   -5.3893 O.3     1  UNL1       -0.3430
@<TRIPOS>BOND
     1    54    55    1
     2    55    53    1
     3    53    47    1
     4    47    48   ar
     5    48    49   ar
     6    49    41    1
     7    41    42   ar
     8    42    43   ar
     9    43    44   ar
    10    44    33    1
    11    33    34    2
    12    34    35    1
    13    35    36    1
    14    36    37   am
    15    37    38    2
    16    37    32    1
    17    32     1    1
    18     1     2    1
    19     2     3    1
    20     3     4    1
    21     4    30    1
    22    30    31    1
    23     4     6    1
    24     6     7    2
    25     6     8   am
    26     8    10    1
    27    10    11   ar
    28    11    12   ar
    29    12    13   ar
    30    13    14   ar
    31    14    15   ar
    32    15    16   ar
    33    16    20    1
    34    20    21   ar
    35    21    22   ar
    36    22    23   ar
    37    23    26    1
    38    26    27    1
    39    27    28    1
    40    27    29    1
    41    23    24   ar
    42    24    25   ar
    43    16    17   ar
    44    17    18   ar
    45     4     5    1
    46    36    39    1
    47    39    40    1
    48    44    45   ar
    49    45    46   ar
    50    49    50   ar
    51    50    51   ar
    52    51    52    1
    53    51    47   ar
    54    46    41   ar
    55    40    33    1
    56     5     1    1
    57    18    10   ar
    58    17    13   ar
    59    25    20   ar
    60     8     9    1
    61    14    19    1
@<TRIPOS>MOLECULE
*****
 55 61 0 0 0
SMALL
GASTEIGER

@<TRIPOS>ATOM
      1 N         -24.3599   51.9436   -9.9232 N.3     1  UNL1       -0.2638
      2 C         -24.9387   52.0356  -11.2722 C.3     1  UNL1        0.0739
      3 C         -26.1683   51.1454  -11.3101 C.3     1  UNL1        0.0374
      4 C         -26.6470   51.0611   -9.8551 C.3     1  UNL1        0.1239
      5 C         -25.5027   51.6985   -9.0271 C.3     1  UNL1        0.0913
      6 C         -26.8830   49.5998   -9.4971 C.2     1  UNL1        0.2359
      7 O         -25.9898   48.9310   -8.9071 O.2     1  UNL1       -0.2739
      8 N         -28.0826   48.9432   -9.9425 N.am    1  UNL1       -0.2832
      9 H         -28.6215   49.3849  -10.7217 H       1  UNL1        0.1549
     10 C         -28.5269   47.6659   -9.4547 C.ar    1  UNL1        0.0505
     11 C         -28.6988   46.5967  -10.3708 C.ar    1  UNL1        0.0162
     12 C         -29.1696   45.3441   -9.9376 C.ar    1  UNL1        0.0198
     13 C         -29.4543   45.1936   -8.5842 C.ar    1  UNL1        0.0754
     14 N         -29.9578   44.1185   -7.9589 N.ar    1  UNL1       -0.2757
     15 N         -30.1240   44.4168   -6.6756 N.ar    1  UNL1       -0.1726
     16 C         -29.7139   45.6940   -6.4759 C.ar    1  UNL1        0.1036
     17 C         -29.2889   46.2126   -7.6898 C.ar    1  UNL1        0.0376
     18 C         -28.8555   47.4771   -8.0904 C.ar    1  UNL1        0.0177
     19 H         -30.2011   43.1993   -8.3900 H       1  UNL1        0.1889
     20 C         -29.7476   46.3654   -5.1604 C.ar    1  UNL1        0.0388
     21 C         -30.6489   47.4053   -4.8929 C.ar    1  UNL1        0.0079
     22 C         -30.6516   48.0295   -3.6446 C.ar    1  UNL1        0.0578
     23 C         -29.7366   47.6147   -2.6599 C.ar    1  UNL1        0.2247
     24 N         -28.8560   46.6206   -2.9529 N.ar    1  UNL1       -0.2101
     25 C         -28.8346   46.0001   -4.1622 C.ar    1  UNL1        0.1036
     26 O         -29.6816   48.1937   -1.3817 O.3     1  UNL1       -0.4640
     27 C         -30.3888   47.7390   -0.2254 C.3     1  UNL1        0.1678
     28 C         -30.1247   46.2476    0.0069 C.3     1  UNL1        0.0473
     29 C         -29.9245   48.5512    0.9823 C.3     1  UNL1        0.0473
     30 S         -28.2431   51.9622   -9.5655 S.3     1  UNL1       -0.1308
     31 C         -29.0469   51.8050  -11.2022 C.3     1  UNL1        0.0696
     32 C         -23.3696   50.8482   -9.8281 C.3     1  UNL1        0.1587
     33 C         -19.9632   54.7433   -9.0132 C.2     1  UNL1       -0.0231
     34 C         -19.8447   54.3237  -10.2805 C.2     1  UNL1       -0.0089
     35 C         -20.1397   52.8971  -10.6464 C.3     1  UNL1        0.1196
     36 N         -21.2652   52.3612   -9.8593 N.am    1  UNL1       -0.2740
     37 C         -22.0437   51.2733  -10.4111 C.2     1  UNL1        0.2423
     38 O         -21.6318   50.6713  -11.4407 O.2     1  UNL1       -0.2733
     39 C         -21.5310   52.8616   -8.4962 C.3     1  UNL1        0.0984
     40 C         -20.3948   53.7482   -7.9678 C.3     1  UNL1        0.0476
     41 C         -18.9168   58.7805   -7.9201 C.ar    1  UNL1        0.0375
     42 C         -18.5546   57.7044   -7.0935 C.ar    1  UNL1        0.0031
     43 C         -18.8944   56.3950   -7.4447 C.ar    1  UNL1       -0.0002
     44 C         -19.6052   56.1340   -8.6299 C.ar    1  UNL1       -0.0042
     45 C         -19.9627   57.2119   -9.4575 C.ar    1  UNL1       -0.0002
     46 C         -19.6238   58.5215   -9.1056 C.ar    1  UNL1        0.0031
     47 C         -18.5930   62.0860   -6.6917 C.ar    1  UNL1        0.1679
     48 N         -19.3075   60.9446   -6.7344 N.ar    1  UNL1       -0.2080
     49 C         -18.5570   60.1657   -7.5485 C.ar    1  UNL1        0.1829
     50 N         -17.4396   60.7907   -7.9761 N.ar    1  UNL1       -0.1487
     51 N         -17.4738   61.9935   -7.4336 N.ar    1  UNL1       -0.2320
     52 C         -16.4362   63.0025   -7.6095 C.3     1  UNL1        0.1552
     53 C         -18.9863   63.2781   -5.8689 C.3     1  UNL1        0.2070
     54 C         -20.6886   64.1914   -4.5886 C.3     1  UNL1        0.1747
     55 O         -20.3748   63.2604   -5.6016 O.3     1  UNL1       -0.3430
@<TRIPOS>BOND
     1    54    55    1
     2    55    53    1
     3    53    47    1
     4    47    48   ar
     5    48    49   ar
     6    49    41    1
     7    41    42   ar
     8    42    43   ar
     9    43    44   ar
    10    44    33    1
    11    33    34    2
    12    34    35    1
    13    35    36    1
    14    36    37   am
    15    37    38    2
    16    37    32    1
    17    32     1    1
    18     1     2    1
    19     2     3    1
    20     3     4    1
    21     4    30    1
    22    30    31    1
    23     4     6    1
    24     6     7    2
    25     6     8   am
    26     8    10    1
    27    10    11   ar
    28    11    12   ar
    29    12    13   ar
    30    13    14   ar
    31    14    15   ar
    32    15    16   ar
    33    16    20    1
    34    20    21   ar
    35    21    22   ar
    36    22    23   ar
    37    23    26    1
    38    26    27    1
    39    27    28    1
    40    27    29    1
    41    23    24   ar
    42    24    25   ar
    43    16    17   ar
    44    17    18   ar
    45     4     5    1
    46    36    39    1
    47    39    40    1
    48    44    45   ar
    49    45    46   ar
    50    49    50   ar
    51    50    51   ar
    52    51    52    1
    53    51    47   ar
    54    46    41   ar
    55    40    33    1
    56     5     1    1
    57    18    10   ar
    58    17    13   ar
    59    25    20   ar
    60     8     9    1
    61    14    19    1
