@<TRIPOS>MOLECULE
*****
 49 54 0 0 0
SMALL
GASTEIGER

@<TRIPOS>ATOM
      1 O          62.5607   83.7171    6.8222 O.2     1  UNL1       -0.2701
      2 C          61.7459   84.2160    7.6424 C.2     1  UNL1        0.2483
      3 N          60.5652   84.8849    7.1648 N.am    1  UNL1       -0.2945
      4 H          60.4232   84.9573    6.1315 H       1  UNL1        0.1501
      5 C          62.0107   84.1103    9.0837 C.ar    1  UNL1        0.0808
      6 C          61.7077   82.9158    9.7481 C.ar    1  UNL1        0.0080
      7 C          61.6125   82.8935   11.1403 C.ar    1  UNL1        0.0148
      8 C          61.8117   84.0670   11.8878 C.ar    1  UNL1        0.0502
      9 C          62.2132   85.2389   11.2192 C.ar    1  UNL1        0.0443
     10 C          62.3117   85.2608    9.8254 C.ar    1  UNL1        0.1457
     11 F          62.5861   86.4317    9.1959 F       1  UNL1       -0.2040
     12 N          61.4470   84.0984   13.2845 N.pl3   1  UNL1       -0.3040
     13 C          60.4549   85.0949   13.7318 C.3     1  UNL1        0.1123
     14 C          60.8367   85.6783   15.0983 C.3     1  UNL1        0.1136
     15 N          62.3003   85.7311   15.2135 N.pl3   1  UNL1       -0.2897
     16 C          63.0617   84.4777   15.0978 C.3     1  UNL1        0.1136
     17 C          62.2628   83.4272   14.3081 C.3     1  UNL1        0.1123
     18 C          63.0084   86.9831   15.2406 C.ar    1  UNL1        0.1318
     19 C          62.5708   88.0440   16.0478 C.ar    1  UNL1        0.0343
     20 C          63.2522   89.2607   16.0136 C.ar    1  UNL1        0.0083
     21 C          64.3550   89.4293   15.1641 C.ar    1  UNL1        0.0906
     22 C          64.7702   88.3374   14.3851 C.ar    1  UNL1        0.1041
     23 N          64.0867   87.1630   14.4296 N.ar    1  UNL1       -0.2292
     24 C          65.1250   90.7248   15.1526 C.3     1  UNL1        0.4200
     25 F          65.0306   91.3373   13.9148 F       1  UNL1       -0.1658
     26 F          66.4634   90.5007   15.4245 F       1  UNL1       -0.1658
     27 F          64.6056   91.5709   16.1143 F       1  UNL1       -0.1658
     28 C          59.6747   85.6381    8.0584 C.3     1  UNL1        0.1535
     29 C          59.5836   87.0713    7.6055 C.2     1  UNL1        0.2443
     30 O          60.2022   87.9665    8.2433 O.2     1  UNL1       -0.2730
     31 N          58.7949   87.4085    6.4527 N.am    1  UNL1       -0.2825
     32 H          58.1245   86.6967    6.0838 H       1  UNL1        0.1549
     33 C          58.7758   88.7148    5.8605 C.ar    1  UNL1        0.0535
     34 C          59.9523   89.3190    5.3912 C.ar    1  UNL1        0.0353
     35 C          59.8862   90.5832    4.8000 C.ar    1  UNL1        0.1002
     36 N          58.6894   91.2152    4.6724 N.ar    1  UNL1       -0.2422
     37 C          57.5335   90.6451    5.1044 C.ar    1  UNL1        0.1002
     38 C          57.5552   89.3805    5.6964 C.ar    1  UNL1        0.0353
     39 C          58.2838   84.9880    8.1260 C.3     1  UNL1        0.0569
     40 C          58.1513   84.1357    9.3590 C.ar    1  UNL1       -0.0017
     41 C          58.2567   84.5698   10.6773 C.ar    1  UNL1        0.0681
     42 N          58.2473   83.5156   11.5246 N.ar    1  UNL1       -0.3523
     43 C          58.1542   82.4187   10.7529 C.ar    1  UNL1        0.0563
     44 C          58.1665   81.0887   11.1716 C.ar    1  UNL1        0.0170
     45 C          58.1238   80.0876   10.1842 C.ar    1  UNL1        0.0015
     46 C          58.0706   80.4340    8.8161 C.ar    1  UNL1        0.0001
     47 C          58.0572   81.7843    8.4228 C.ar    1  UNL1        0.0012
     48 C          58.0978   82.7553    9.4249 C.ar    1  UNL1        0.0131
     49 H          58.3352   83.5494   12.5646 H       1  UNL1        0.1660
@<TRIPOS>BOND
     1     1     2    2
     2     2     3   am
     3     3    28    1
     4    28    39    1
     5    39    40    1
     6    40    41   ar
     7    41    42   ar
     8    42    43   ar
     9    43    44   ar
    10    44    45   ar
    11    45    46   ar
    12    46    47   ar
    13    47    48   ar
    14    28    29    1
    15    29    30    2
    16    29    31   am
    17    31    33    1
    18    33    34   ar
    19    34    35   ar
    20    35    36   ar
    21    36    37   ar
    22    37    38   ar
    23     2     5    1
    24     5     6   ar
    25     6     7   ar
    26     7     8   ar
    27     8    12    1
    28    12    13    1
    29    13    14    1
    30    14    15    1
    31    15    18    1
    32    18    19   ar
    33    19    20   ar
    34    20    21   ar
    35    21    24    1
    36    24    25    1
    37    24    26    1
    38    24    27    1
    39    21    22   ar
    40    22    23   ar
    41    15    16    1
    42    16    17    1
    43     8     9   ar
    44     9    10   ar
    45    10    11    1
    46    48    40   ar
    47    38    33   ar
    48    10     5   ar
    49    48    43   ar
    50    17    12    1
    51    23    18   ar
    52     3     4    1
    53    42    49    1
    54    31    32    1
@<TRIPOS>MOLECULE
*****
 49 54 0 0 0
SMALL
GASTEIGER

@<TRIPOS>ATOM
      1 O          56.5689   85.1258   12.5006 O.2     1  UNL1       -0.2701
      2 C          57.6282   84.7794   11.9144 C.2     1  UNL1        0.2483
      3 N          57.5584   84.0810   10.6586 N.am    1  UNL1       -0.2945
      4 H          56.6136   83.8588   10.2697 H       1  UNL1        0.1501
      5 C          58.9290   85.0921   12.5216 C.ar    1  UNL1        0.0808
      6 C          59.4317   84.2578   13.5272 C.ar    1  UNL1        0.0080
      7 C          60.4631   84.7025   14.3557 C.ar    1  UNL1        0.0148
      8 C          61.0016   85.9909   14.1953 C.ar    1  UNL1        0.0502
      9 C          60.5587   86.7837   13.1198 C.ar    1  UNL1        0.0443
     10 C          59.5282   86.3374   12.2881 C.ar    1  UNL1        0.1457
     11 F          59.0386   87.1668   11.3315 F       1  UNL1       -0.2040
     12 N          61.8645   86.5396   15.2147 N.pl3   1  UNL1       -0.3040
     13 C          61.6156   87.9166   15.6827 C.3     1  UNL1        0.1123
     14 C          62.9334   88.6661   15.9174 C.3     1  UNL1        0.1136
     15 N          63.9389   88.1962   14.9549 N.pl3   1  UNL1       -0.2897
     16 C          64.2970   86.7693   14.9503 C.3     1  UNL1        0.1136
     17 C          63.1585   85.9212   15.5420 C.3     1  UNL1        0.1123
     18 C          64.4298   89.0468   13.9037 C.ar    1  UNL1        0.1318
     19 C          63.8534   89.0219   12.6248 C.ar    1  UNL1        0.0343
     20 C          64.3850   89.8241   11.6149 C.ar    1  UNL1        0.0083
     21 C          65.5000   90.6351   11.8703 C.ar    1  UNL1        0.0906
     22 C          66.0364   90.6429   13.1679 C.ar    1  UNL1        0.1041
     23 N          65.5059   89.8477   14.1346 N.ar    1  UNL1       -0.2292
     24 C          66.0543   91.5386   10.7989 C.3     1  UNL1        0.4200
     25 F          67.1864   90.9821   10.2291 F       1  UNL1       -0.1658
     26 F          66.3962   92.7713   11.3273 F       1  UNL1       -0.1658
     27 F          65.0983   91.7190    9.8170 F       1  UNL1       -0.1658
     28 C          58.7449   83.4964   10.0192 C.3     1  UNL1        0.1535
     29 C          58.7666   82.0069   10.2390 C.2     1  UNL1        0.2443
     30 O          59.2707   81.2550    9.3606 O.2     1  UNL1       -0.2730
     31 N          58.2148   81.4536   11.4447 N.am    1  UNL1       -0.2825
     32 H          57.6126   82.0645   12.0417 H       1  UNL1        0.1549
     33 C          58.3310   80.0706   11.8073 C.ar    1  UNL1        0.0535
     34 C          58.7603   79.6868   13.0871 C.ar    1  UNL1        0.0353
     35 C          58.8376   78.3290   13.4068 C.ar    1  UNL1        0.1002
     36 N          58.4891   77.3904   12.4873 N.ar    1  UNL1       -0.2422
     37 C          58.0553   77.7361   11.2463 C.ar    1  UNL1        0.1002
     38 C          57.9587   79.0824   10.8882 C.ar    1  UNL1        0.0353
     39 C          58.7874   83.8369    8.5211 C.3     1  UNL1        0.0569
     40 C          59.1002   85.2940    8.3127 C.ar    1  UNL1       -0.0017
     41 C          58.4381   86.1651    7.4522 C.ar    1  UNL1        0.0681
     42 N          59.0820   87.3532    7.3944 N.ar    1  UNL1       -0.3523
     43 C          60.1539   87.2350    8.1970 C.ar    1  UNL1        0.0563
     44 C          61.1522   88.1833    8.4171 C.ar    1  UNL1        0.0170
     45 C          62.2271   87.8258    9.2512 C.ar    1  UNL1        0.0015
     46 C          62.2800   86.5432    9.8399 C.ar    1  UNL1        0.0001
     47 C          61.2574   85.6073    9.6020 C.ar    1  UNL1        0.0012
     48 C          60.2026   85.9912    8.7723 C.ar    1  UNL1        0.0131
     49 H          58.8183   88.1787    6.8119 H       1  UNL1        0.1660
@<TRIPOS>BOND
     1     1     2    2
     2     2     3   am
     3     3    28    1
     4    28    39    1
     5    39    40    1
     6    40    41   ar
     7    41    42   ar
     8    42    43   ar
     9    43    44   ar
    10    44    45   ar
    11    45    46   ar
    12    46    47   ar
    13    47    48   ar
    14    28    29    1
    15    29    30    2
    16    29    31   am
    17    31    33    1
    18    33    34   ar
    19    34    35   ar
    20    35    36   ar
    21    36    37   ar
    22    37    38   ar
    23     2     5    1
    24     5     6   ar
    25     6     7   ar
    26     7     8   ar
    27     8    12    1
    28    12    13    1
    29    13    14    1
    30    14    15    1
    31    15    18    1
    32    18    19   ar
    33    19    20   ar
    34    20    21   ar
    35    21    24    1
    36    24    25    1
    37    24    26    1
    38    24    27    1
    39    21    22   ar
    40    22    23   ar
    41    15    16    1
    42    16    17    1
    43     8     9   ar
    44     9    10   ar
    45    10    11    1
    46    48    40   ar
    47    38    33   ar
    48    10     5   ar
    49    48    43   ar
    50    17    12    1
    51    23    18   ar
    52     3     4    1
    53    42    49    1
    54    31    32    1
@<TRIPOS>MOLECULE
*****
 49 54 0 0 0
SMALL
GASTEIGER

@<TRIPOS>ATOM
      1 O          61.5327   83.5463    6.1987 O.2     1  UNL1       -0.2701
      2 C          61.2593   83.6772    7.4209 C.2     1  UNL1        0.2483
      3 N          60.2849   84.6496    7.8385 N.am    1  UNL1       -0.2945
      4 H          59.8369   85.2453    7.1053 H       1  UNL1        0.1501
      5 C          61.9413   82.8331    8.4113 C.ar    1  UNL1        0.0808
      6 C          61.2886   81.6979    8.9066 C.ar    1  UNL1        0.0080
      7 C          61.7399   81.0851   10.0765 C.ar    1  UNL1        0.0148
      8 C          62.8459   81.6032   10.7721 C.ar    1  UNL1        0.0502
      9 C          63.5551   82.6833   10.2136 C.ar    1  UNL1        0.0443
     10 C          63.1053   83.2951    9.0405 C.ar    1  UNL1        0.1457
     11 F          63.7372   84.4070    8.5854 F       1  UNL1       -0.2040
     12 N          63.1352   81.1379   12.1081 N.pl3   1  UNL1       -0.3040
     13 C          62.0214   81.0140   13.0679 C.3     1  UNL1        0.1123
     14 C          62.4493   81.4649   14.4705 C.3     1  UNL1        0.1136
     15 N          63.4392   82.5441   14.3541 N.pl3   1  UNL1       -0.2897
     16 C          64.6921   82.2760   13.6312 C.3     1  UNL1        0.1136
     17 C          64.5082   81.1183   12.6356 C.3     1  UNL1        0.1123
     18 C          63.1337   83.8918   14.7541 C.ar    1  UNL1        0.1318
     19 C          61.8168   84.2791   15.0441 C.ar    1  UNL1        0.0343
     20 C          61.5484   85.6058   15.3816 C.ar    1  UNL1        0.0083
     21 C          62.5842   86.5504   15.4119 C.ar    1  UNL1        0.0906
     22 C          63.8902   86.1180   15.1311 C.ar    1  UNL1        0.1041
     23 N          64.1271   84.8213   14.7980 N.ar    1  UNL1       -0.2292
     24 C          62.3122   87.9759   15.8186 C.3     1  UNL1        0.4200
     25 F          60.9521   88.1924   15.9581 F       1  UNL1       -0.1658
     26 F          62.7960   88.8568   14.8670 F       1  UNL1       -0.1658
     27 F          62.9347   88.2308   17.0261 F       1  UNL1       -0.1658
     28 C          60.0551   84.9722    9.2534 C.3     1  UNL1        0.1535
     29 C          60.5579   86.3595    9.5531 C.2     1  UNL1        0.2443
     30 O          59.7890   87.3474    9.3989 O.2     1  UNL1       -0.2730
     31 N          61.9064   86.5482   10.0117 N.am    1  UNL1       -0.2825
     32 H          62.5792   85.7541    9.9172 H       1  UNL1        0.1549
     33 C          62.4193   87.8080   10.4673 C.ar    1  UNL1        0.0535
     34 C          62.6085   88.0661   11.8337 C.ar    1  UNL1        0.0353
     35 C          63.1321   89.2981   12.2336 C.ar    1  UNL1        0.1002
     36 N          63.4643   90.2326   11.3039 N.ar    1  UNL1       -0.2422
     37 C          63.3056   90.0015    9.9738 C.ar    1  UNL1        0.1002
     38 C          62.7902   88.7813    9.5319 C.ar    1  UNL1        0.0353
     39 C          58.5685   84.8303    9.6163 C.3     1  UNL1        0.0569
     40 C          58.3713   83.7582   10.6537 C.ar    1  UNL1       -0.0017
     41 C          58.5082   83.9075   12.0308 C.ar    1  UNL1        0.0681
     42 N          58.4188   82.7074   12.6480 N.ar    1  UNL1       -0.3523
     43 C          58.2438   81.7993   11.6722 C.ar    1  UNL1        0.0563
     44 C          58.1555   80.4149   11.8135 C.ar    1  UNL1        0.0170
     45 C          58.0382   79.6403   10.6451 C.ar    1  UNL1        0.0015
     46 C          58.0122   80.2593    9.3760 C.ar    1  UNL1        0.0001
     47 C          58.1008   81.6585    9.2637 C.ar    1  UNL1        0.0012
     48 C          58.2138   82.4009   10.4403 C.ar    1  UNL1        0.0131
     49 H          58.5082   82.5234   13.6719 H       1  UNL1        0.1660
@<TRIPOS>BOND
     1     1     2    2
     2     2     3   am
     3     3    28    1
     4    28    39    1
     5    39    40    1
     6    40    41   ar
     7    41    42   ar
     8    42    43   ar
     9    43    44   ar
    10    44    45   ar
    11    45    46   ar
    12    46    47   ar
    13    47    48   ar
    14    28    29    1
    15    29    30    2
    16    29    31   am
    17    31    33    1
    18    33    34   ar
    19    34    35   ar
    20    35    36   ar
    21    36    37   ar
    22    37    38   ar
    23     2     5    1
    24     5     6   ar
    25     6     7   ar
    26     7     8   ar
    27     8    12    1
    28    12    13    1
    29    13    14    1
    30    14    15    1
    31    15    18    1
    32    18    19   ar
    33    19    20   ar
    34    20    21   ar
    35    21    24    1
    36    24    25    1
    37    24    26    1
    38    24    27    1
    39    21    22   ar
    40    22    23   ar
    41    15    16    1
    42    16    17    1
    43     8     9   ar
    44     9    10   ar
    45    10    11    1
    46    48    40   ar
    47    38    33   ar
    48    10     5   ar
    49    48    43   ar
    50    17    12    1
    51    23    18   ar
    52     3     4    1
    53    42    49    1
    54    31    32    1
@<TRIPOS>MOLECULE
*****
 49 54 0 0 0
SMALL
GASTEIGER

@<TRIPOS>ATOM
      1 O          57.2683   78.8471   10.0138 O.2     1  UNL1       -0.2701
      2 C          58.1666   79.6579   10.3622 C.2     1  UNL1        0.2483
      3 N          58.8215   79.5012   11.6334 N.am    1  UNL1       -0.2945
      4 H          58.5149   78.7166   12.2528 H       1  UNL1        0.1501
      5 C          58.5371   80.7600    9.4641 C.ar    1  UNL1        0.0808
      6 C          59.7051   80.6548    8.6993 C.ar    1  UNL1        0.0080
      7 C          60.2672   81.7928    8.1190 C.ar    1  UNL1        0.0148
      8 C          59.6736   83.0538    8.3013 C.ar    1  UNL1        0.0502
      9 C          58.4471   83.1349    8.9873 C.ar    1  UNL1        0.0443
     10 C          57.8823   81.9951    9.5658 C.ar    1  UNL1        0.1457
     11 F          56.7612   82.1180   10.3212 F       1  UNL1       -0.2040
     12 N          60.3986   84.2476    7.9353 N.pl3   1  UNL1       -0.3040
     13 C          61.8735   84.2044    7.9352 C.3     1  UNL1        0.1123
     14 C          62.4635   85.5110    8.4813 C.3     1  UNL1        0.1136
     15 N          61.5657   86.0596    9.5066 N.pl3   1  UNL1       -0.2897
     16 C          60.1811   86.3841    9.1300 C.3     1  UNL1        0.1136
     17 C          59.7453   85.5652    7.9032 C.3     1  UNL1        0.1123
     18 C          61.9447   86.1030   10.8937 C.ar    1  UNL1        0.1318
     19 C          62.1992   87.3242   11.5359 C.ar    1  UNL1        0.0343
     20 C          62.6121   87.3278   12.8683 C.ar    1  UNL1        0.0083
     21 C          62.7906   86.1189   13.5559 C.ar    1  UNL1        0.0906
     22 C          62.5093   84.9199   12.8815 C.ar    1  UNL1        0.1041
     23 N          62.1146   84.9403   11.5807 N.ar    1  UNL1       -0.2292
     24 C          63.1931   86.1132   15.0083 C.3     1  UNL1        0.4200
     25 F          62.1485   85.6721   15.8022 F       1  UNL1       -0.1658
     26 F          63.5454   87.3858   15.4231 F       1  UNL1       -0.1658
     27 F          64.2744   85.2690   15.1771 F       1  UNL1       -0.1658
     28 C          59.7438   80.5110   12.1704 C.3     1  UNL1        0.1535
     29 C          58.9736   81.7247   12.6187 C.2     1  UNL1        0.2443
     30 O          57.8709   81.5780   13.2133 O.2     1  UNL1       -0.2730
     31 N          59.4986   83.0383   12.3670 N.am    1  UNL1       -0.2825
     32 H          60.2864   83.1368   11.6873 H       1  UNL1        0.1549
     33 C          58.9145   84.2388   12.8916 C.ar    1  UNL1        0.0535
     34 C          57.6854   84.7195   12.4147 C.ar    1  UNL1        0.0353
     35 C          57.1403   85.8803   12.9691 C.ar    1  UNL1        0.1002
     36 N          57.7925   86.5302   13.9693 N.ar    1  UNL1       -0.2422
     37 C          58.9763   86.0767   14.4598 C.ar    1  UNL1        0.1002
     38 C          59.5527   84.9173   13.9368 C.ar    1  UNL1        0.0353
     39 C          60.5856   79.9327   13.3188 C.3     1  UNL1        0.0569
     40 C          61.9320   80.6017   13.3843 C.ar    1  UNL1       -0.0017
     41 C          62.5799   81.0411   14.5352 C.ar    1  UNL1        0.0681
     42 N          63.6929   81.7393   14.2141 N.ar    1  UNL1       -0.3523
     43 C          63.7449   81.7597   12.8709 C.ar    1  UNL1        0.0563
     44 C          64.6842   82.4112   12.0724 C.ar    1  UNL1        0.0170
     45 C          64.5126   82.3570   10.6772 C.ar    1  UNL1        0.0015
     46 C          63.4186   81.6610   10.1175 C.ar    1  UNL1        0.0001
     47 C          62.4876   81.0109   10.9474 C.ar    1  UNL1        0.0012
     48 C          62.6852   81.0799   12.3276 C.ar    1  UNL1        0.0131
     49 H          64.3534   82.2014   14.8778 H       1  UNL1        0.1660
@<TRIPOS>BOND
     1     1     2    2
     2     2     3   am
     3     3    28    1
     4    28    39    1
     5    39    40    1
     6    40    41   ar
     7    41    42   ar
     8    42    43   ar
     9    43    44   ar
    10    44    45   ar
    11    45    46   ar
    12    46    47   ar
    13    47    48   ar
    14    28    29    1
    15    29    30    2
    16    29    31   am
    17    31    33    1
    18    33    34   ar
    19    34    35   ar
    20    35    36   ar
    21    36    37   ar
    22    37    38   ar
    23     2     5    1
    24     5     6   ar
    25     6     7   ar
    26     7     8   ar
    27     8    12    1
    28    12    13    1
    29    13    14    1
    30    14    15    1
    31    15    18    1
    32    18    19   ar
    33    19    20   ar
    34    20    21   ar
    35    21    24    1
    36    24    25    1
    37    24    26    1
    38    24    27    1
    39    21    22   ar
    40    22    23   ar
    41    15    16    1
    42    16    17    1
    43     8     9   ar
    44     9    10   ar
    45    10    11    1
    46    48    40   ar
    47    38    33   ar
    48    10     5   ar
    49    48    43   ar
    50    17    12    1
    51    23    18   ar
    52     3     4    1
    53    42    49    1
    54    31    32    1
@<TRIPOS>MOLECULE
*****
 49 54 0 0 0
SMALL
GASTEIGER

@<TRIPOS>ATOM
      1 O          56.4965   85.3107   13.1847 O.2     1  UNL1       -0.2701
      2 C          57.5129   85.0067   12.5063 C.2     1  UNL1        0.2483
      3 N          57.3565   84.4396   11.1934 N.am    1  UNL1       -0.2945
      4 H          56.3865   84.2741   10.8400 H       1  UNL1        0.1501
      5 C          58.8526   85.2340   13.0648 C.ar    1  UNL1        0.0808
      6 C          59.2503   84.5170   14.1997 C.ar    1  UNL1        0.0080
      7 C          60.3443   84.9469   14.9520 C.ar    1  UNL1        0.0148
      8 C          61.0520   86.1045   14.5846 C.ar    1  UNL1        0.0502
      9 C          60.7069   86.7611   13.3883 C.ar    1  UNL1        0.0443
     10 C          59.6135   86.3290   12.6330 C.ar    1  UNL1        0.1457
     11 F          59.2288   87.0475   11.5474 F       1  UNL1       -0.2040
     12 N          61.9962   86.6908   15.5063 N.pl3   1  UNL1       -0.3040
     13 C          61.7951   88.0910   15.9259 C.3     1  UNL1        0.1123
     14 C          63.1330   88.8357   16.0212 C.3     1  UNL1        0.1136
     15 N          64.0565   88.3096   15.0071 N.pl3   1  UNL1       -0.2897
     16 C          64.4022   86.8801   15.0430 C.3     1  UNL1        0.1136
     17 C          63.3070   86.0738   15.7614 C.3     1  UNL1        0.1123
     18 C          64.4703   89.1040   13.8814 C.ar    1  UNL1        0.1318
     19 C          63.8253   88.9911   12.6406 C.ar    1  UNL1        0.0343
     20 C          64.2831   89.7404   11.5566 C.ar    1  UNL1        0.0083
     21 C          65.3922   90.5861   11.7005 C.ar    1  UNL1        0.0906
     22 C          65.9985   90.6825   12.9633 C.ar    1  UNL1        0.1041
     23 N          65.5394   89.9375   14.0038 N.ar    1  UNL1       -0.2292
     24 C          65.8669   91.4334   10.5480 C.3     1  UNL1        0.4200
     25 F          66.3167   92.6624   10.9989 F       1  UNL1       -0.1658
     26 F          64.8402   91.6517    9.6460 F       1  UNL1       -0.1658
     27 F          66.9026   90.7841    9.9029 F       1  UNL1       -0.1658
     28 C          58.4914   83.9018   10.4310 C.3     1  UNL1        0.1535
     29 C          58.8735   82.5464   10.9642 C.2     1  UNL1        0.2443
     30 O          59.9948   82.3893   11.5200 O.2     1  UNL1       -0.2730
     31 N          57.9605   81.4442   10.8369 N.am    1  UNL1       -0.2825
     32 H          57.1494   81.5435   10.1854 H       1  UNL1        0.1549
     33 C          58.1732   80.1646   11.4492 C.ar    1  UNL1        0.0535
     34 C          57.9931   78.9736   10.7291 C.ar    1  UNL1        0.0353
     35 C          58.2331   77.7488   11.3568 C.ar    1  UNL1        0.1002
     36 N          58.6478   77.7148   12.6509 N.ar    1  UNL1       -0.2422
     37 C          58.8449   78.8542   13.3656 C.ar    1  UNL1        0.1002
     38 C          58.6212   80.0992   12.7740 C.ar    1  UNL1        0.0353
     39 C          58.1653   83.8360    8.9306 C.3     1  UNL1        0.0569
     40 C          59.4175   83.6401    8.1193 C.ar    1  UNL1       -0.0017
     41 C          59.6668   82.6039    7.2240 C.ar    1  UNL1        0.0681
     42 N          60.9490   82.6471    6.7955 N.ar    1  UNL1       -0.3523
     43 C          61.5166   83.6906    7.4249 C.ar    1  UNL1        0.0563
     44 C          62.8472   84.1007    7.3479 C.ar    1  UNL1        0.0170
     45 C          63.2483   85.1869    8.1467 C.ar    1  UNL1        0.0015
     46 C          62.3216   85.8317    8.9952 C.ar    1  UNL1        0.0001
     47 C          60.9848   85.3979    9.0509 C.ar    1  UNL1        0.0012
     48 C          60.6154   84.3195    8.2451 C.ar    1  UNL1        0.0131
     49 H          61.4110   81.9791    6.1394 H       1  UNL1        0.1660
@<TRIPOS>BOND
     1     1     2    2
     2     2     3   am
     3     3    28    1
     4    28    39    1
     5    39    40    1
     6    40    41   ar
     7    41    42   ar
     8    42    43   ar
     9    43    44   ar
    10    44    45   ar
    11    45    46   ar
    12    46    47   ar
    13    47    48   ar
    14    28    29    1
    15    29    30    2
    16    29    31   am
    17    31    33    1
    18    33    34   ar
    19    34    35   ar
    20    35    36   ar
    21    36    37   ar
    22    37    38   ar
    23     2     5    1
    24     5     6   ar
    25     6     7   ar
    26     7     8   ar
    27     8    12    1
    28    12    13    1
    29    13    14    1
    30    14    15    1
    31    15    18    1
    32    18    19   ar
    33    19    20   ar
    34    20    21   ar
    35    21    24    1
    36    24    25    1
    37    24    26    1
    38    24    27    1
    39    21    22   ar
    40    22    23   ar
    41    15    16    1
    42    16    17    1
    43     8     9   ar
    44     9    10   ar
    45    10    11    1
    46    48    40   ar
    47    38    33   ar
    48    10     5   ar
    49    48    43   ar
    50    17    12    1
    51    23    18   ar
    52     3     4    1
    53    42    49    1
    54    31    32    1
@<TRIPOS>MOLECULE
*****
 49 54 0 0 0
SMALL
GASTEIGER

@<TRIPOS>ATOM
      1 O          59.0666   87.4522    6.6906 O.2     1  UNL1       -0.2701
      2 C          59.4731   86.8444    7.7157 C.2     1  UNL1        0.2483
      3 N          60.0777   87.5801    8.7941 N.am    1  UNL1       -0.2945
      4 H          60.1829   88.6148    8.6872 H       1  UNL1        0.1501
      5 C          59.3262   85.3850    7.7999 C.ar    1  UNL1        0.0808
      6 C          58.1323   84.8459    8.2938 C.ar    1  UNL1        0.0080
      7 C          58.0851   83.5156    8.7131 C.ar    1  UNL1        0.0148
      8 C          59.2332   82.7072    8.6515 C.ar    1  UNL1        0.0502
      9 C          60.4005   83.2280    8.0619 C.ar    1  UNL1        0.0443
     10 C          60.4471   84.5591    7.6390 C.ar    1  UNL1        0.1457
     11 F          61.6181   85.0716    7.1819 F       1  UNL1       -0.2040
     12 N          59.2511   81.4337    9.3318 N.pl3   1  UNL1       -0.3040
     13 C          58.6832   81.3527   10.6913 C.3     1  UNL1        0.1123
     14 C          59.5290   80.4403   11.5889 C.3     1  UNL1        0.1136
     15 N          60.9401   80.5401   11.1928 N.pl3   1  UNL1       -0.2897
     16 C          61.3119   80.1848    9.8145 C.3     1  UNL1        0.1136
     17 C          60.1049   80.3276    8.8720 C.3     1  UNL1        0.1123
     18 C          61.9205   81.1533   12.0487 C.ar    1  UNL1        0.1318
     19 C          62.1153   80.7034   13.3632 C.ar    1  UNL1        0.0343
     20 C          63.0398   81.3517   14.1823 C.ar    1  UNL1        0.0083
     21 C          63.7555   82.4578   13.7021 C.ar    1  UNL1        0.0906
     22 C          63.5427   82.8655   12.3755 C.ar    1  UNL1        0.1041
     23 N          62.6316   82.2227   11.5976 N.ar    1  UNL1       -0.2292
     24 C          64.7886   83.1373   14.5637 C.3     1  UNL1        0.4200
     25 F          64.3475   84.3884   14.9590 F       1  UNL1       -0.1658
     26 F          65.9762   83.2953   13.8708 F       1  UNL1       -0.1658
     27 F          65.0218   82.3666   15.6871 F       1  UNL1       -0.1658
     28 C          60.7294   86.9137    9.9298 C.3     1  UNL1        0.1535
     29 C          62.0575   87.5636   10.2147 C.2     1  UNL1        0.2443
     30 O          63.0327   87.3517    9.4434 O.2     1  UNL1       -0.2730
     31 N          62.2044   88.4187   11.3600 N.am    1  UNL1       -0.2825
     32 H          61.4606   88.3988   12.0938 H       1  UNL1        0.1549
     33 C          63.3799   89.1983   11.6210 C.ar    1  UNL1        0.0535
     34 C          63.9198   90.0508   10.6457 C.ar    1  UNL1        0.0353
     35 C          65.0527   90.8101   10.9487 C.ar    1  UNL1        0.1002
     36 N          65.6186   90.7295   12.1821 N.ar    1  UNL1       -0.2422
     37 C          65.1060   89.9235   13.1493 C.ar    1  UNL1        0.1002
     38 C          63.9716   89.1519   12.8889 C.ar    1  UNL1        0.0353
     39 C          59.8249   86.9319   11.1721 C.3     1  UNL1        0.0569
     40 C          60.1824   85.8111   12.1104 C.ar    1  UNL1       -0.0017
     41 C          59.9246   84.4573   11.9147 C.ar    1  UNL1        0.0681
     42 N          60.2334   83.7515   13.0264 N.ar    1  UNL1       -0.3523
     43 C          60.6677   84.6489   13.9283 C.ar    1  UNL1        0.0563
     44 C          61.0473   84.4038   15.2475 C.ar    1  UNL1        0.0170
     45 C          61.4090   85.5056   16.0437 C.ar    1  UNL1        0.0015
     46 C          61.3834   86.8129   15.5102 C.ar    1  UNL1        0.0001
     47 C          60.9982   87.0303   14.1750 C.ar    1  UNL1        0.0012
     48 C          60.6472   85.9176   13.4086 C.ar    1  UNL1        0.0131
     49 H          60.1183   82.7230   13.1652 H       1  UNL1        0.1660
@<TRIPOS>BOND
     1     1     2    2
     2     2     3   am
     3     3    28    1
     4    28    39    1
     5    39    40    1
     6    40    41   ar
     7    41    42   ar
     8    42    43   ar
     9    43    44   ar
    10    44    45   ar
    11    45    46   ar
    12    46    47   ar
    13    47    48   ar
    14    28    29    1
    15    29    30    2
    16    29    31   am
    17    31    33    1
    18    33    34   ar
    19    34    35   ar
    20    35    36   ar
    21    36    37   ar
    22    37    38   ar
    23     2     5    1
    24     5     6   ar
    25     6     7   ar
    26     7     8   ar
    27     8    12    1
    28    12    13    1
    29    13    14    1
    30    14    15    1
    31    15    18    1
    32    18    19   ar
    33    19    20   ar
    34    20    21   ar
    35    21    24    1
    36    24    25    1
    37    24    26    1
    38    24    27    1
    39    21    22   ar
    40    22    23   ar
    41    15    16    1
    42    16    17    1
    43     8     9   ar
    44     9    10   ar
    45    10    11    1
    46    48    40   ar
    47    38    33   ar
    48    10     5   ar
    49    48    43   ar
    50    17    12    1
    51    23    18   ar
    52     3     4    1
    53    42    49    1
    54    31    32    1
@<TRIPOS>MOLECULE
*****
 49 54 0 0 0
SMALL
GASTEIGER

@<TRIPOS>ATOM
      1 O          61.9159   88.6828   15.2323 O.2     1  UNL1       -0.2701
      2 C          62.1345   87.8502   14.3133 C.2     1  UNL1        0.2483
      3 N          61.9800   88.2419   12.9378 N.am    1  UNL1       -0.2945
      4 H          61.6659   89.2185   12.7353 H       1  UNL1        0.1501
      5 C          62.5456   86.4820   14.6566 C.ar    1  UNL1        0.0808
      6 C          63.9066   86.1542   14.6441 C.ar    1  UNL1        0.0080
      7 C          64.3047   84.8169   14.6161 C.ar    1  UNL1        0.0148
      8 C          63.3474   83.7880   14.5926 C.ar    1  UNL1        0.0502
      9 C          61.9852   84.1243   14.7058 C.ar    1  UNL1        0.0443
     10 C          61.5864   85.4633   14.7371 C.ar    1  UNL1        0.1457
     11 F          60.2627   85.7638   14.7282 F       1  UNL1       -0.2040
     12 N          63.7545   82.4361   14.2902 N.pl3   1  UNL1       -0.3040
     13 C          64.5533   82.1961   13.0731 C.3     1  UNL1        0.1123
     14 C          64.1211   80.8993   12.3766 C.3     1  UNL1        0.1136
     15 N          62.6805   80.6948   12.5789 N.pl3   1  UNL1       -0.2897
     16 C          62.1704   80.5875   13.9546 C.3     1  UNL1        0.1136
     17 C          63.1245   81.2784   14.9435 C.3     1  UNL1        0.1123
     18 C          61.7462   80.7911   11.4891 C.ar    1  UNL1        0.1318
     19 C          60.6416   79.9302   11.4054 C.ar    1  UNL1        0.0343
     20 C          59.7823   80.0181   10.3101 C.ar    1  UNL1        0.0083
     21 C          60.0313   80.9471    9.2897 C.ar    1  UNL1        0.0906
     22 C          61.1382   81.8011    9.4202 C.ar    1  UNL1        0.1041
     23 N          61.9659   81.6927   10.4933 N.ar    1  UNL1       -0.2292
     24 C          59.0846   81.0807    8.1246 C.3     1  UNL1        0.4200
     25 F          59.0219   82.3952    7.6953 F       1  UNL1       -0.1658
     26 F          57.8091   80.6801    8.4824 F       1  UNL1       -0.1658
     27 F          59.5302   80.2880    7.0836 F       1  UNL1       -0.1658
     28 C          62.0454   87.2740   11.8344 C.3     1  UNL1        0.1535
     29 C          60.7585   86.4963   11.7552 C.2     1  UNL1        0.2443
     30 O          59.6568   87.1082   11.8070 O.2     1  UNL1       -0.2730
     31 N          60.7940   85.0661   11.6212 N.am    1  UNL1       -0.2825
     32 H          61.6967   84.5721   11.8042 H       1  UNL1        0.1549
     33 C          59.6292   84.2635   11.3834 C.ar    1  UNL1        0.0535
     34 C          59.2318   83.2697   12.2911 C.ar    1  UNL1        0.0353
     35 C          58.0777   82.5259   12.0328 C.ar    1  UNL1        0.1002
     36 N          57.3424   82.7724   10.9163 N.ar    1  UNL1       -0.2422
     37 C          57.6970   83.7397   10.0295 C.ar    1  UNL1        0.1002
     38 C          58.8407   84.5092   10.2530 C.ar    1  UNL1        0.0353
     39 C          62.3517   87.9770   10.5025 C.3     1  UNL1        0.0569
     40 C          61.5992   87.3303    9.3711 C.ar    1  UNL1       -0.0017
     41 C          60.3194   87.6618    8.9355 C.ar    1  UNL1        0.0681
     42 N          59.8903   86.7745    8.0093 N.ar    1  UNL1       -0.3523
     43 C          60.8802   85.8758    7.8683 C.ar    1  UNL1        0.0563
     44 C          60.8776   84.7364    7.0644 C.ar    1  UNL1        0.0170
     45 C          62.0007   83.8911    7.1174 C.ar    1  UNL1        0.0015
     46 C          63.0890   84.1996    7.9629 C.ar    1  UNL1        0.0001
     47 C          63.0653   85.3572    8.7614 C.ar    1  UNL1        0.0012
     48 C          61.9387   86.1781    8.6859 C.ar    1  UNL1        0.0131
     49 H          58.9615   86.7695    7.5324 H       1  UNL1        0.1660
@<TRIPOS>BOND
     1     1     2    2
     2     2     3   am
     3     3    28    1
     4    28    39    1
     5    39    40    1
     6    40    41   ar
     7    41    42   ar
     8    42    43   ar
     9    43    44   ar
    10    44    45   ar
    11    45    46   ar
    12    46    47   ar
    13    47    48   ar
    14    28    29    1
    15    29    30    2
    16    29    31   am
    17    31    33    1
    18    33    34   ar
    19    34    35   ar
    20    35    36   ar
    21    36    37   ar
    22    37    38   ar
    23     2     5    1
    24     5     6   ar
    25     6     7   ar
    26     7     8   ar
    27     8    12    1
    28    12    13    1
    29    13    14    1
    30    14    15    1
    31    15    18    1
    32    18    19   ar
    33    19    20   ar
    34    20    21   ar
    35    21    24    1
    36    24    25    1
    37    24    26    1
    38    24    27    1
    39    21    22   ar
    40    22    23   ar
    41    15    16    1
    42    16    17    1
    43     8     9   ar
    44     9    10   ar
    45    10    11    1
    46    48    40   ar
    47    38    33   ar
    48    10     5   ar
    49    48    43   ar
    50    17    12    1
    51    23    18   ar
    52     3     4    1
    53    42    49    1
    54    31    32    1
@<TRIPOS>MOLECULE
*****
 49 54 0 0 0
SMALL
GASTEIGER

@<TRIPOS>ATOM
      1 O          62.5461   83.7880    5.9533 O.2     1  UNL1       -0.2701
      2 C          61.9905   83.9877    7.0655 C.2     1  UNL1        0.2483
      3 N          61.2424   85.1962    7.2877 N.am    1  UNL1       -0.2945
      4 H          61.1961   85.8971    6.5132 H       1  UNL1        0.1501
      5 C          62.1131   82.9813    8.1288 C.ar    1  UNL1        0.0808
      6 C          61.0391   82.1191    8.3806 C.ar    1  UNL1        0.0080
      7 C          60.9784   81.4076    9.5797 C.ar    1  UNL1        0.0148
      8 C          61.9870   81.5535   10.5476 C.ar    1  UNL1        0.0502
      9 C          63.1110   82.3448   10.2441 C.ar    1  UNL1        0.0443
     10 C          63.1737   83.0549    9.0422 C.ar    1  UNL1        0.1457
     11 F          64.2114   83.9020    8.8230 F       1  UNL1       -0.2040
     12 N          61.7832   81.0353   11.8798 N.pl3   1  UNL1       -0.3040
     13 C          60.5367   81.3834   12.5884 C.3     1  UNL1        0.1123
     14 C          60.8038   81.6508   14.0753 C.3     1  UNL1        0.1136
     15 N          62.1392   82.2429   14.2313 N.pl3   1  UNL1       -0.2897
     16 C          63.3063   81.4841   13.7554 C.3     1  UNL1        0.1136
     17 C          62.8940   80.4785   12.6672 C.3     1  UNL1        0.1123
     18 C          62.3129   83.6073   14.6527 C.ar    1  UNL1        0.1318
     19 C          63.4611   84.3324   14.3001 C.ar    1  UNL1        0.0343
     20 C          63.6207   85.6375   14.7661 C.ar    1  UNL1        0.0083
     21 C          62.6500   86.2144   15.5974 C.ar    1  UNL1        0.0906
     22 C          61.5083   85.4606   15.9130 C.ar    1  UNL1        0.1041
     23 N          61.3773   84.1879   15.4529 N.ar    1  UNL1       -0.2292
     24 C          62.7912   87.6387   16.0696 C.3     1  UNL1        0.4200
     25 F          61.5961   88.3217   15.9236 F       1  UNL1       -0.1658
     26 F          63.7618   88.3022   15.3393 F       1  UNL1       -0.1658
     27 F          63.1511   87.6416   17.4041 F       1  UNL1       -0.1658
     28 C          60.7257   85.5666    8.6123 C.3     1  UNL1        0.1535
     29 C          61.3146   86.8833    9.0445 C.2     1  UNL1        0.2443
     30 O          61.0036   87.9377    8.4260 O.2     1  UNL1       -0.2730
     31 N          62.2242   86.9298   10.1558 N.am    1  UNL1       -0.2825
     32 H          62.6330   86.0322   10.5013 H       1  UNL1        0.1549
     33 C          62.7093   88.1506   10.7320 C.ar    1  UNL1        0.0535
     34 C          62.6848   88.3614   12.1192 C.ar    1  UNL1        0.0353
     35 C          63.1883   89.5555   12.6412 C.ar    1  UNL1        0.1002
     36 N          63.7066   90.4986   11.8105 N.ar    1  UNL1       -0.2422
     37 C          63.7564   90.3123   10.4650 C.ar    1  UNL1        0.1002
     38 C          63.2683   89.1307    9.9032 C.ar    1  UNL1        0.0353
     39 C          59.1898   85.6200    8.6092 C.3     1  UNL1        0.0569
     40 C          58.6206   84.6990    9.6542 C.ar    1  UNL1       -0.0017
     41 C          57.7637   83.6253    9.4294 C.ar    1  UNL1        0.0681
     42 N          57.3219   83.1189   10.6031 N.ar    1  UNL1       -0.3523
     43 C          57.8781   83.8733   11.5668 C.ar    1  UNL1        0.0563
     44 C          57.6737   83.7708   12.9423 C.ar    1  UNL1        0.0170
     45 C          58.3090   84.7110   13.7739 C.ar    1  UNL1        0.0015
     46 C          59.1249   85.7212   13.2186 C.ar    1  UNL1        0.0001
     47 C          59.3150   85.7991   11.8272 C.ar    1  UNL1        0.0012
     48 C          58.6741   84.8511   11.0277 C.ar    1  UNL1        0.0131
     49 H          56.6526   82.3274   10.7293 H       1  UNL1        0.1660
@<TRIPOS>BOND
     1     1     2    2
     2     2     3   am
     3     3    28    1
     4    28    39    1
     5    39    40    1
     6    40    41   ar
     7    41    42   ar
     8    42    43   ar
     9    43    44   ar
    10    44    45   ar
    11    45    46   ar
    12    46    47   ar
    13    47    48   ar
    14    28    29    1
    15    29    30    2
    16    29    31   am
    17    31    33    1
    18    33    34   ar
    19    34    35   ar
    20    35    36   ar
    21    36    37   ar
    22    37    38   ar
    23     2     5    1
    24     5     6   ar
    25     6     7   ar
    26     7     8   ar
    27     8    12    1
    28    12    13    1
    29    13    14    1
    30    14    15    1
    31    15    18    1
    32    18    19   ar
    33    19    20   ar
    34    20    21   ar
    35    21    24    1
    36    24    25    1
    37    24    26    1
    38    24    27    1
    39    21    22   ar
    40    22    23   ar
    41    15    16    1
    42    16    17    1
    43     8     9   ar
    44     9    10   ar
    45    10    11    1
    46    48    40   ar
    47    38    33   ar
    48    10     5   ar
    49    48    43   ar
    50    17    12    1
    51    23    18   ar
    52     3     4    1
    53    42    49    1
    54    31    32    1
@<TRIPOS>MOLECULE
*****
 49 54 0 0 0
SMALL
GASTEIGER

@<TRIPOS>ATOM
      1 O          64.7515   81.3897   10.9773 O.2     1  UNL1       -0.2701
      2 C          63.6349   81.9698   10.9297 C.2     1  UNL1        0.2483
      3 N          62.9831   82.1698    9.6630 N.am    1  UNL1       -0.2945
      4 H          63.4716   81.8400    8.7994 H       1  UNL1        0.1501
      5 C          63.0076   82.4389   12.1726 C.ar    1  UNL1        0.0808
      6 C          61.6180   82.3438   12.3147 C.ar    1  UNL1        0.0080
      7 C          60.9626   83.0820   13.3012 C.ar    1  UNL1        0.0148
      8 C          61.6865   83.9319   14.1552 C.ar    1  UNL1        0.0502
      9 C          63.0915   83.9450   14.0700 C.ar    1  UNL1        0.0443
     10 C          63.7483   83.2034   13.0844 C.ar    1  UNL1        0.1457
     11 F          65.0935   83.3232   12.9471 F       1  UNL1       -0.2040
     12 N          60.9849   84.8874   14.9796 N.pl3   1  UNL1       -0.3040
     13 C          60.3094   86.0231   14.3231 C.3     1  UNL1        0.1123
     14 C          60.4753   87.3108   15.1404 C.3     1  UNL1        0.1136
     15 N          61.7773   87.2915   15.8205 N.pl3   1  UNL1       -0.2897
     16 C          62.0667   86.1947   16.7573 C.3     1  UNL1        0.1136
     17 C          61.2079   84.9610   16.4318 C.3     1  UNL1        0.1123
     18 C          62.8330   88.1961   15.4508 C.ar    1  UNL1        0.1318
     19 C          63.9020   87.7705   14.6479 C.ar    1  UNL1        0.0343
     20 C          64.9341   88.6598   14.3484 C.ar    1  UNL1        0.0083
     21 C          64.9138   89.9644   14.8621 C.ar    1  UNL1        0.0906
     22 C          63.8177   90.3552   15.6478 C.ar    1  UNL1        0.1041
     23 N          62.8265   89.4693   15.9323 N.ar    1  UNL1       -0.2292
     24 C          66.0009   90.9464   14.5081 C.3     1  UNL1        0.4200
     25 F          65.5318   91.8912   13.6117 F       1  UNL1       -0.1658
     26 F          67.0774   90.2968   13.9295 F       1  UNL1       -0.1658
     27 F          66.4260   91.5875   15.6565 F       1  UNL1       -0.1658
     28 C          61.7737   82.9925    9.5243 C.3     1  UNL1        0.1535
     29 C          62.1506   84.4457    9.4081 C.2     1  UNL1        0.2443
     30 O          62.6647   84.8722    8.3381 O.2     1  UNL1       -0.2730
     31 N          61.9224   85.3345   10.5137 N.am    1  UNL1       -0.2825
     32 H          61.7090   84.9198   11.4490 H       1  UNL1        0.1549
     33 C          62.1045   86.7554   10.4386 C.ar    1  UNL1        0.0535
     34 C          61.8838   87.4557    9.2427 C.ar    1  UNL1        0.0353
     35 C          62.0503   88.8427    9.2185 C.ar    1  UNL1        0.1002
     36 N          62.4128   89.5063   10.3482 N.ar    1  UNL1       -0.2422
     37 C          62.6172   88.8536   11.5228 C.ar    1  UNL1        0.1002
     38 C          62.4564   87.4681   11.5911 C.ar    1  UNL1        0.0353
     39 C          60.9341   82.5390    8.3196 C.3     1  UNL1        0.0569
     40 C          59.7040   81.8002    8.7730 C.ar    1  UNL1       -0.0017
     41 C          58.3920   82.2592    8.6997 C.ar    1  UNL1        0.0681
     42 N          57.5576   81.4114    9.3433 N.ar    1  UNL1       -0.3523
     43 C          58.3324   80.4300    9.8371 C.ar    1  UNL1        0.0563
     44 C          57.9301   79.3535   10.6268 C.ar    1  UNL1        0.0170
     45 C          58.9226   78.4728   11.0939 C.ar    1  UNL1        0.0015
     46 C          60.2796   78.6852   10.7654 C.ar    1  UNL1        0.0001
     47 C          60.6563   79.7786    9.9649 C.ar    1  UNL1        0.0012
     48 C          59.6494   80.6339    9.5140 C.ar    1  UNL1        0.0131
     49 H          56.5263   81.5217    9.4640 H       1  UNL1        0.1660
@<TRIPOS>BOND
     1     1     2    2
     2     2     3   am
     3     3    28    1
     4    28    39    1
     5    39    40    1
     6    40    41   ar
     7    41    42   ar
     8    42    43   ar
     9    43    44   ar
    10    44    45   ar
    11    45    46   ar
    12    46    47   ar
    13    47    48   ar
    14    28    29    1
    15    29    30    2
    16    29    31   am
    17    31    33    1
    18    33    34   ar
    19    34    35   ar
    20    35    36   ar
    21    36    37   ar
    22    37    38   ar
    23     2     5    1
    24     5     6   ar
    25     6     7   ar
    26     7     8   ar
    27     8    12    1
    28    12    13    1
    29    13    14    1
    30    14    15    1
    31    15    18    1
    32    18    19   ar
    33    19    20   ar
    34    20    21   ar
    35    21    24    1
    36    24    25    1
    37    24    26    1
    38    24    27    1
    39    21    22   ar
    40    22    23   ar
    41    15    16    1
    42    16    17    1
    43     8     9   ar
    44     9    10   ar
    45    10    11    1
    46    48    40   ar
    47    38    33   ar
    48    10     5   ar
    49    48    43   ar
    50    17    12    1
    51    23    18   ar
    52     3     4    1
    53    42    49    1
    54    31    32    1
