@<TRIPOS>MOLECULE
*****
 52 57 0 0 0
SMALL
GASTEIGER

@<TRIPOS>ATOM
      1 C          61.4420   86.7588   13.8535 C.ar    1  UNL1        0.0502
      2 C          60.1166   86.7263   14.3136 C.ar    1  UNL1        0.0148
      3 C          59.2520   85.7077   13.9068 C.ar    1  UNL1        0.0080
      4 C          59.6995   84.6939   13.0440 C.ar    1  UNL1        0.0808
      5 C          61.0217   84.7398   12.5622 C.ar    1  UNL1        0.1457
      6 F          61.4746   83.8189   11.6741 F       1  UNL1       -0.2040
      7 C          61.8830   85.7635   12.9685 C.ar    1  UNL1        0.0443
      8 N          63.6086   89.6899   12.2248 N.3     1  UNL1       -0.3053
      9 C          63.2665   89.9800   13.6197 C.3     1  UNL1        0.1490
     10 C          62.0152   89.2048   14.0652 C.3     1  UNL1        0.1273
     11 N          62.3443   87.7940   14.2872 N.pl3   1  UNL1       -0.3029
     12 C          63.4447   87.4927   15.2067 C.3     1  UNL1        0.1124
     13 C          64.7083   88.2421   14.7805 C.3     1  UNL1        0.1148
     14 N          64.4105   89.6546   14.4898 N.pl3   1  UNL1       -0.2790
     15 H          62.8255   90.0161   11.6128 H       1  UNL1        0.1203
     16 H          63.6957   88.6565   12.0917 H       1  UNL1        0.1203
     17 C          65.3781   90.6827   14.7881 C.ar    1  UNL1        0.1327
     18 C          65.0492   91.7833   15.5966 C.ar    1  UNL1        0.0343
     19 C          66.0143   92.7550   15.8650 C.ar    1  UNL1        0.0083
     20 C          67.3127   92.6231   15.3505 C.ar    1  UNL1        0.0906
     21 C          67.5961   91.5188   14.5325 C.ar    1  UNL1        0.1041
     22 N          66.6392   90.5865   14.2828 N.ar    1  UNL1       -0.2292
     23 C          68.3496   93.6904   15.5919 C.3     1  UNL1        0.4200
     24 F          67.9685   94.8837   15.0030 F       1  UNL1       -0.1658
     25 F          68.4938   93.8854   16.9527 F       1  UNL1       -0.1658
     26 F          69.5702   93.3146   15.0581 F       1  UNL1       -0.1658
     27 C          58.7855   83.5862   12.6893 C.2     1  UNL1        0.2483
     28 O          57.5524   83.7018   12.9289 O.2     1  UNL1       -0.2701
     29 N          59.2997   82.3579   12.1494 N.am    1  UNL1       -0.2945
     30 H          60.3371   82.2559   12.0756 H       1  UNL1        0.1501
     31 C          58.4902   81.1342   12.0825 C.3     1  UNL1        0.1535
     32 C          58.1397   80.7848   10.6537 C.2     1  UNL1        0.2443
     33 O          57.2263   79.9492   10.4091 O.2     1  UNL1       -0.2730
     34 N          58.8765   81.3861    9.5769 N.am    1  UNL1       -0.2825
     35 H          59.7971   81.8253    9.8052 H       1  UNL1        0.1549
     36 C          58.4733   81.3444    8.1969 C.ar    1  UNL1        0.0535
     37 C          58.9213   80.3353    7.3265 C.ar    1  UNL1        0.0353
     38 C          58.4787   80.3217    6.0014 C.ar    1  UNL1        0.1002
     39 N          57.6104   81.2702    5.5617 N.ar    1  UNL1       -0.2422
     40 C          57.1467   82.2470    6.3852 C.ar    1  UNL1        0.1002
     41 C          57.5627   82.2963    7.7177 C.ar    1  UNL1        0.0353
     42 C          59.2225   79.9692   12.7808 C.3     1  UNL1        0.0569
     43 C          60.7162   80.0437   12.6147 C.ar    1  UNL1       -0.0017
     44 C          61.4668   79.4447   11.6073 C.ar    1  UNL1        0.0681
     45 N          62.7617   79.8256   11.6921 N.ar    1  UNL1       -0.3523
     46 C          62.8345   80.6659   12.7390 C.ar    1  UNL1        0.0563
     47 C          63.9610   81.3476   13.1985 C.ar    1  UNL1        0.0170
     48 C          63.8046   82.2102   14.2991 C.ar    1  UNL1        0.0015
     49 C          62.5417   82.3673   14.9115 C.ar    1  UNL1        0.0001
     50 C          61.4244   81.6630   14.4291 C.ar    1  UNL1        0.0012
     51 C          61.6072   80.8220   13.3304 C.ar    1  UNL1        0.0131
     52 H          63.5396   79.5401   11.0567 H       1  UNL1        0.1660
@<TRIPOS>BOND
     1     8     9    1
     2     9    10    1
     3    10    11    1
     4    11     1    1
     5     1     2   ar
     6     2     3   ar
     7     3     4   ar
     8     4    27    1
     9    27    28    2
    10    27    29   am
    11    29    31    1
    12    31    42    1
    13    42    43    1
    14    43    44   ar
    15    44    45   ar
    16    45    46   ar
    17    46    47   ar
    18    47    48   ar
    19    48    49   ar
    20    49    50   ar
    21    50    51   ar
    22    31    32    1
    23    32    33    2
    24    32    34   am
    25    34    36    1
    26    36    37   ar
    27    37    38   ar
    28    38    39   ar
    29    39    40   ar
    30    40    41   ar
    31     4     5   ar
    32     5     6    1
    33     5     7   ar
    34    11    12    1
    35    12    13    1
    36    13    14    1
    37    14    17    1
    38    17    18   ar
    39    18    19   ar
    40    19    20   ar
    41    20    23    1
    42    23    24    1
    43    23    25    1
    44    23    26    1
    45    20    21   ar
    46    21    22   ar
    47    14     9    1
    48    22    17   ar
    49     7     1   ar
    50    51    43   ar
    51    41    36   ar
    52    51    46   ar
    53     8    15    1
    54     8    16    1
    55    29    30    1
    56    45    52    1
    57    34    35    1
@<TRIPOS>MOLECULE
*****
 52 57 0 0 0
SMALL
GASTEIGER

@<TRIPOS>ATOM
      1 C          62.3804   88.8261   11.5215 C.ar    1  UNL1        0.0502
      2 C          61.1525   88.7526   12.1971 C.ar    1  UNL1        0.0148
      3 C          60.0670   88.0896   11.6205 C.ar    1  UNL1        0.0080
      4 C          60.1918   87.4748   10.3640 C.ar    1  UNL1        0.0808
      5 C          61.4158   87.5695    9.6746 C.ar    1  UNL1        0.1457
      6 F          61.5592   87.0486    8.4296 F       1  UNL1       -0.2040
      7 C          62.4991   88.2377   10.2534 C.ar    1  UNL1        0.0443
      8 N          63.3781   90.3893   15.0568 N.3     1  UNL1       -0.3053
      9 C          64.5584   89.9633   14.3004 C.3     1  UNL1        0.1490
     10 C          64.2029   88.8855   13.2625 C.3     1  UNL1        0.1273
     11 N          63.5095   89.4890   12.1211 N.pl3   1  UNL1       -0.3029
     12 C          64.1708   90.6061   11.4414 C.3     1  UNL1        0.1124
     13 C          64.5260   91.7007   12.4493 C.3     1  UNL1        0.1148
     14 N          65.1739   91.1291   13.6417 N.pl3   1  UNL1       -0.2790
     15 H          63.0112   89.5707   15.5948 H       1  UNL1        0.1203
     16 H          62.6252   90.6876   14.3954 H       1  UNL1        0.1203
     17 C          66.2068   91.8606   14.3347 C.ar    1  UNL1        0.1327
     18 C          65.8943   92.7919   15.3389 C.ar    1  UNL1        0.0343
     19 C          66.9222   93.4766   15.9886 C.ar    1  UNL1        0.0083
     20 C          68.2614   93.2207   15.6586 C.ar    1  UNL1        0.0906
     21 C          68.5310   92.2966   14.6376 C.ar    1  UNL1        0.1041
     22 N          67.5132   91.6437   14.0170 N.ar    1  UNL1       -0.2292
     23 C          69.3782   93.9893   16.3178 C.3     1  UNL1        0.4200
     24 F          68.8734   94.8901   17.2396 F       1  UNL1       -0.1658
     25 F          70.2189   93.1042   16.9663 F       1  UNL1       -0.1658
     26 F          70.1066   94.6957   15.3762 F       1  UNL1       -0.1658
     27 C          59.0496   86.7151    9.8104 C.2     1  UNL1        0.2483
     28 O          58.1328   87.3331    9.2032 O.2     1  UNL1       -0.2701
     29 N          58.9398   85.2988   10.0260 N.am    1  UNL1       -0.2945
     30 H          59.6570   84.8424   10.6337 H       1  UNL1        0.1501
     31 C          57.6910   84.5655    9.7809 C.3     1  UNL1        0.1535
     32 C          57.9408   83.0789    9.6633 C.2     1  UNL1        0.2443
     33 O          57.8814   82.5110    8.5381 O.2     1  UNL1       -0.2730
     34 N          58.2138   82.3113   10.8467 N.am    1  UNL1       -0.2825
     35 H          57.9640   82.7363   11.7685 H       1  UNL1        0.1549
     36 C          58.7232   80.9663   10.8404 C.ar    1  UNL1        0.0535
     37 C          60.0809   80.6917   10.6004 C.ar    1  UNL1        0.0353
     38 C          60.5329   79.3701   10.6329 C.ar    1  UNL1        0.1002
     39 N          59.6675   78.3589   10.9082 N.ar    1  UNL1       -0.2422
     40 C          58.3535   78.5963   11.1617 C.ar    1  UNL1        0.1002
     41 C          57.8605   79.9031   11.1409 C.ar    1  UNL1        0.0353
     42 C          56.6623   84.8750   10.8886 C.3     1  UNL1        0.0569
     43 C          57.2756   85.5879   12.0633 C.ar    1  UNL1       -0.0017
     44 C          56.6812   86.5904   12.8242 C.ar    1  UNL1        0.0681
     45 N          57.4661   86.9132   13.8773 N.ar    1  UNL1       -0.3523
     46 C          58.5472   86.1184   13.7930 C.ar    1  UNL1        0.0563
     47 C          59.6225   86.0579   14.6788 C.ar    1  UNL1        0.0170
     48 C          60.6397   85.1218   14.4161 C.ar    1  UNL1        0.0015
     49 C          60.5625   84.2798   13.2848 C.ar    1  UNL1        0.0001
     50 C          59.4680   84.3667   12.4064 C.ar    1  UNL1        0.0012
     51 C          58.4696   85.2975   12.6973 C.ar    1  UNL1        0.0131
     52 H          57.2594   87.6212   14.6165 H       1  UNL1        0.1660
@<TRIPOS>BOND
     1     8     9    1
     2     9    10    1
     3    10    11    1
     4    11     1    1
     5     1     2   ar
     6     2     3   ar
     7     3     4   ar
     8     4    27    1
     9    27    28    2
    10    27    29   am
    11    29    31    1
    12    31    42    1
    13    42    43    1
    14    43    44   ar
    15    44    45   ar
    16    45    46   ar
    17    46    47   ar
    18    47    48   ar
    19    48    49   ar
    20    49    50   ar
    21    50    51   ar
    22    31    32    1
    23    32    33    2
    24    32    34   am
    25    34    36    1
    26    36    37   ar
    27    37    38   ar
    28    38    39   ar
    29    39    40   ar
    30    40    41   ar
    31     4     5   ar
    32     5     6    1
    33     5     7   ar
    34    11    12    1
    35    12    13    1
    36    13    14    1
    37    14    17    1
    38    17    18   ar
    39    18    19   ar
    40    19    20   ar
    41    20    23    1
    42    23    24    1
    43    23    25    1
    44    23    26    1
    45    20    21   ar
    46    21    22   ar
    47    14     9    1
    48    22    17   ar
    49     7     1   ar
    50    51    43   ar
    51    41    36   ar
    52    51    46   ar
    53     8    15    1
    54     8    16    1
    55    29    30    1
    56    45    52    1
    57    34    35    1
@<TRIPOS>MOLECULE
*****
 52 57 0 0 0
SMALL
GASTEIGER

@<TRIPOS>ATOM
      1 C          61.9572   86.7443   13.1522 C.ar    1  UNL1        0.0502
      2 C          61.0829   86.3356   14.1711 C.ar    1  UNL1        0.0148
      3 C          60.0894   85.3887   13.9124 C.ar    1  UNL1        0.0080
      4 C          59.9598   84.8213   12.6342 C.ar    1  UNL1        0.0808
      5 C          60.8204   85.2492   11.6053 C.ar    1  UNL1        0.1457
      6 F          60.6861   84.7772   10.3399 F       1  UNL1       -0.2040
      7 C          61.8111   86.2004   11.8672 C.ar    1  UNL1        0.0443
      8 N          63.3224   88.8683   16.2445 N.3     1  UNL1       -0.3053
      9 C          64.3671   88.6353   15.2440 C.3     1  UNL1        0.1490
     10 C          64.0572   87.3983   14.3843 C.3     1  UNL1        0.1273
     11 N          62.9976   87.7035   13.4189 N.pl3   1  UNL1       -0.3029
     12 C          63.1962   88.8583   12.5390 C.3     1  UNL1        0.1124
     13 C          63.4949   90.1083   13.3688 C.3     1  UNL1        0.1148
     14 N          64.5153   89.8294   14.3931 N.pl3   1  UNL1       -0.2790
     15 H          63.2970   88.0526   16.8989 H       1  UNL1        0.1203
     16 H          62.3897   88.9171   15.7743 H       1  UNL1        0.1203
     17 C          65.4697   90.8439   14.7703 C.ar    1  UNL1        0.1327
     18 C          65.2382   91.6943   15.8642 C.ar    1  UNL1        0.0343
     19 C          66.1875   92.6607   16.1996 C.ar    1  UNL1        0.0083
     20 C          67.3772   92.7685   15.4642 C.ar    1  UNL1        0.0906
     21 C          67.5625   91.9126   14.3678 C.ar    1  UNL1        0.1041
     22 N          66.6227   90.9807   14.0585 N.ar    1  UNL1       -0.2292
     23 C          68.3876   93.8403   15.7853 C.3     1  UNL1        0.4200
     24 F          68.2972   94.8835   14.8800 F       1  UNL1       -0.1658
     25 F          68.1477   94.3254   17.0572 F       1  UNL1       -0.1658
     26 F          69.6734   93.3307   15.7318 F       1  UNL1       -0.1658
     27 C          58.9484   83.7660   12.4072 C.2     1  UNL1        0.2483
     28 O          57.7776   83.9271   12.8484 O.2     1  UNL1       -0.2701
     29 N          59.3086   82.5345   11.7605 N.am    1  UNL1       -0.2945
     30 H          60.3141   82.3902   11.5153 H       1  UNL1        0.1501
     31 C          58.4414   81.3496   11.7974 C.3     1  UNL1        0.1535
     32 C          58.0793   80.8902   10.4030 C.2     1  UNL1        0.2443
     33 O          57.2614   79.9437   10.2377 O.2     1  UNL1       -0.2730
     34 N          58.6986   81.5169    9.2682 N.am    1  UNL1       -0.2825
     35 H          59.5696   82.0702    9.4353 H       1  UNL1        0.1549
     36 C          58.2502   81.3591    7.9108 C.ar    1  UNL1        0.0535
     37 C          58.2692   80.1095    7.2670 C.ar    1  UNL1        0.0353
     38 C          57.7965   80.0021    5.9567 C.ar    1  UNL1        0.1002
     39 N          57.3092   81.0964    5.3146 N.ar    1  UNL1       -0.2422
     40 C          57.2619   82.3132    5.9183 C.ar    1  UNL1        0.1002
     41 C          57.7230   82.4641    7.2281 C.ar    1  UNL1        0.0353
     42 C          59.1143   80.2187   12.6031 C.3     1  UNL1        0.0569
     43 C          60.4749   80.6058   13.1159 C.ar    1  UNL1       -0.0017
     44 C          60.9222   80.5060   14.4302 C.ar    1  UNL1        0.0681
     45 N          62.2350   80.8216   14.5084 N.ar    1  UNL1       -0.3523
     46 C          62.6230   81.1123   13.2545 C.ar    1  UNL1        0.0563
     47 C          63.9035   81.4602   12.8255 C.ar    1  UNL1        0.0170
     48 C          64.0968   81.6921   11.4512 C.ar    1  UNL1        0.0015
     49 C          63.0178   81.5766   10.5473 C.ar    1  UNL1        0.0001
     50 C          61.7363   81.2287   11.0097 C.ar    1  UNL1        0.0012
     51 C          61.5763   80.9953   12.3763 C.ar    1  UNL1        0.0131
     52 H          62.8284   80.8169   15.3676 H       1  UNL1        0.1660
@<TRIPOS>BOND
     1     8     9    1
     2     9    10    1
     3    10    11    1
     4    11     1    1
     5     1     2   ar
     6     2     3   ar
     7     3     4   ar
     8     4    27    1
     9    27    28    2
    10    27    29   am
    11    29    31    1
    12    31    42    1
    13    42    43    1
    14    43    44   ar
    15    44    45   ar
    16    45    46   ar
    17    46    47   ar
    18    47    48   ar
    19    48    49   ar
    20    49    50   ar
    21    50    51   ar
    22    31    32    1
    23    32    33    2
    24    32    34   am
    25    34    36    1
    26    36    37   ar
    27    37    38   ar
    28    38    39   ar
    29    39    40   ar
    30    40    41   ar
    31     4     5   ar
    32     5     6    1
    33     5     7   ar
    34    11    12    1
    35    12    13    1
    36    13    14    1
    37    14    17    1
    38    17    18   ar
    39    18    19   ar
    40    19    20   ar
    41    20    23    1
    42    23    24    1
    43    23    25    1
    44    23    26    1
    45    20    21   ar
    46    21    22   ar
    47    14     9    1
    48    22    17   ar
    49     7     1   ar
    50    51    43   ar
    51    41    36   ar
    52    51    46   ar
    53     8    15    1
    54     8    16    1
    55    29    30    1
    56    45    52    1
    57    34    35    1
@<TRIPOS>MOLECULE
*****
 52 57 0 0 0
SMALL
GASTEIGER

@<TRIPOS>ATOM
      1 C          59.7052   89.3859    7.6116 C.ar    1  UNL1        0.0502
      2 C          59.9955   90.2069    8.7121 C.ar    1  UNL1        0.0148
      3 C          60.0533   89.6690    9.9996 C.ar    1  UNL1        0.0080
      4 C          59.8365   88.2975   10.2104 C.ar    1  UNL1        0.0808
      5 C          59.5206   87.4777    9.1101 C.ar    1  UNL1        0.1457
      6 F          59.2373   86.1611    9.2776 F       1  UNL1       -0.2040
      7 C          59.4595   88.0209    7.8231 C.ar    1  UNL1        0.0443
      8 N          62.0336   91.5866    5.2298 N.3     1  UNL1       -0.3053
      9 C          61.1221   90.7358    4.4605 C.3     1  UNL1        0.1490
     10 C          60.6585   89.5208    5.2816 C.3     1  UNL1        0.1273
     11 N          59.6664   89.9309    6.2792 N.pl3   1  UNL1       -0.3029
     12 C          58.4892   90.6614    5.8020 C.3     1  UNL1        0.1124
     13 C          58.9206   91.8843    4.9905 C.3     1  UNL1        0.1148
     14 N          59.9624   91.5273    4.0129 N.pl3   1  UNL1       -0.2790
     15 H          62.8945   91.0371    5.4561 H       1  UNL1        0.1203
     16 H          61.5869   91.8499    6.1379 H       1  UNL1        0.1203
     17 C          60.0153   92.1821    2.7281 C.ar    1  UNL1        0.1327
     18 C          58.8609   92.7167    2.1323 C.ar    1  UNL1        0.0343
     19 C          58.9540   93.3458    0.8901 C.ar    1  UNL1        0.0083
     20 C          60.1962   93.4653    0.2493 C.ar    1  UNL1        0.0906
     21 C          61.3223   92.9022    0.8688 C.ar    1  UNL1        0.1041
     22 N          61.2068   92.2919    2.0777 N.ar    1  UNL1       -0.2292
     23 C          60.3021   94.0982   -1.1149 C.3     1  UNL1        0.4200
     24 F          61.4338   94.8908   -1.1989 F       1  UNL1       -0.1658
     25 F          60.3757   93.1046   -2.0731 F       1  UNL1       -0.1658
     26 F          59.1976   94.8919   -1.3718 F       1  UNL1       -0.1658
     27 C          59.9781   87.7409   11.5736 C.2     1  UNL1        0.2483
     28 O          59.0866   87.9788   12.4337 O.2     1  UNL1       -0.2701
     29 N          61.1534   87.0019   11.9435 N.am    1  UNL1       -0.2945
     30 H          61.9221   86.9267   11.2396 H       1  UNL1        0.1501
     31 C          61.4842   86.7098   13.3445 C.3     1  UNL1        0.1535
     32 C          61.1516   85.2784   13.7006 C.2     1  UNL1        0.2443
     33 O          61.1362   84.9105   14.9075 O.2     1  UNL1       -0.2730
     34 N          60.8857   84.3319   12.6530 N.am    1  UNL1       -0.2825
     35 H          61.1940   84.5802   11.6856 H       1  UNL1        0.1549
     36 C          60.3059   83.0326   12.8631 C.ar    1  UNL1        0.0535
     37 C          60.9832   82.0279   13.5762 C.ar    1  UNL1        0.0353
     38 C          60.3659   80.7909   13.7782 C.ar    1  UNL1        0.1002
     39 N          59.1139   80.5662   13.2998 N.ar    1  UNL1       -0.2422
     40 C          58.4284   81.5246   12.6226 C.ar    1  UNL1        0.1002
     41 C          59.0080   82.7759   12.4000 C.ar    1  UNL1        0.0353
     42 C          62.9692   87.0255   13.6208 C.3     1  UNL1        0.0569
     43 C          63.2416   88.5037   13.6924 C.ar    1  UNL1       -0.0017
     44 C          63.5829   89.2272   14.8314 C.ar    1  UNL1        0.0681
     45 N          63.8802   90.5062   14.5078 N.ar    1  UNL1       -0.3523
     46 C          63.7375   90.5954   13.1740 C.ar    1  UNL1        0.0563
     47 C          63.9706   91.7123   12.3722 C.ar    1  UNL1        0.0170
     48 C          63.7900   91.5746   10.9835 C.ar    1  UNL1        0.0015
     49 C          63.3813   90.3394   10.4340 C.ar    1  UNL1        0.0001
     50 C          63.1492   89.2315   11.2681 C.ar    1  UNL1        0.0012
     51 C          63.3455   89.3947   12.6402 C.ar    1  UNL1        0.0131
     52 H          64.1814   91.2622   15.1623 H       1  UNL1        0.1660
@<TRIPOS>BOND
     1     8     9    1
     2     9    10    1
     3    10    11    1
     4    11     1    1
     5     1     2   ar
     6     2     3   ar
     7     3     4   ar
     8     4    27    1
     9    27    28    2
    10    27    29   am
    11    29    31    1
    12    31    42    1
    13    42    43    1
    14    43    44   ar
    15    44    45   ar
    16    45    46   ar
    17    46    47   ar
    18    47    48   ar
    19    48    49   ar
    20    49    50   ar
    21    50    51   ar
    22    31    32    1
    23    32    33    2
    24    32    34   am
    25    34    36    1
    26    36    37   ar
    27    37    38   ar
    28    38    39   ar
    29    39    40   ar
    30    40    41   ar
    31     4     5   ar
    32     5     6    1
    33     5     7   ar
    34    11    12    1
    35    12    13    1
    36    13    14    1
    37    14    17    1
    38    17    18   ar
    39    18    19   ar
    40    19    20   ar
    41    20    23    1
    42    23    24    1
    43    23    25    1
    44    23    26    1
    45    20    21   ar
    46    21    22   ar
    47    14     9    1
    48    22    17   ar
    49     7     1   ar
    50    51    43   ar
    51    41    36   ar
    52    51    46   ar
    53     8    15    1
    54     8    16    1
    55    29    30    1
    56    45    52    1
    57    34    35    1
@<TRIPOS>MOLECULE
*****
 52 57 0 0 0
SMALL
GASTEIGER

@<TRIPOS>ATOM
      1 C          59.8982   89.3351    7.6911 C.ar    1  UNL1        0.0502
      2 C          59.5775   87.9943    7.9539 C.ar    1  UNL1        0.0148
      3 C          59.6851   87.4826    9.2490 C.ar    1  UNL1        0.0080
      4 C          60.1012   88.3047   10.3089 C.ar    1  UNL1        0.0808
      5 C          60.4470   89.6431   10.0415 C.ar    1  UNL1        0.1457
      6 F          60.9183   90.4530   11.0232 F       1  UNL1       -0.2040
      7 C          60.3420   90.1506    8.7429 C.ar    1  UNL1        0.0443
      8 N          61.9472   91.7261    5.2371 N.3     1  UNL1       -0.3053
      9 C          61.0866   90.7997    4.4970 C.3     1  UNL1        0.1490
     10 C          60.7571   89.5499    5.3305 C.3     1  UNL1        0.1273
     11 N          59.7677   89.8739    6.3620 N.pl3   1  UNL1       -0.3029
     12 C          58.5167   90.5003    5.9264 C.3     1  UNL1        0.1124
     13 C          58.8139   91.7552    5.1036 C.3     1  UNL1        0.1148
     14 N          59.8488   91.4884    4.0906 N.pl3   1  UNL1       -0.2790
     15 H          62.8592   91.2528    5.4330 H       1  UNL1        0.1203
     16 H          61.5105   91.9506    6.1603 H       1  UNL1        0.1203
     17 C          59.8018   92.1444    2.8062 C.ar    1  UNL1        0.1327
     18 C          60.9667   92.6340    2.1928 C.ar    1  UNL1        0.0343
     19 C          60.8803   93.2593    0.9481 C.ar    1  UNL1        0.0083
     20 C          59.6413   93.3783    0.3011 C.ar    1  UNL1        0.0906
     21 C          58.4988   92.8926    0.9552 C.ar    1  UNL1        0.1041
     22 N          58.6072   92.2896    2.1684 N.ar    1  UNL1       -0.2292
     23 C          59.5273   94.0954   -1.0201 C.3     1  UNL1        0.4200
     24 F          58.3945   94.8903   -1.0480 F       1  UNL1       -0.1658
     25 F          60.6418   94.8924   -1.2029 F       1  UNL1       -0.1658
     26 F          59.4455   93.1882   -2.0623 F       1  UNL1       -0.1658
     27 C          60.1339   87.7576   11.6828 C.2     1  UNL1        0.2483
     28 O          59.1787   88.0042   12.4690 O.2     1  UNL1       -0.2701
     29 N          61.2742   87.0179   12.1487 N.am    1  UNL1       -0.2945
     30 H          62.0953   86.9354   11.5075 H       1  UNL1        0.1501
     31 C          61.4935   86.7350   13.5732 C.3     1  UNL1        0.1535
     32 C          61.2444   85.2773   13.8885 C.2     1  UNL1        0.2443
     33 O          61.3723   84.8512   15.0693 O.2     1  UNL1       -0.2730
     34 N          60.8931   84.3738   12.8282 N.am    1  UNL1       -0.2825
     35 H          61.0859   84.6791   11.8473 H       1  UNL1        0.1549
     36 C          60.3785   83.0463   13.0321 C.ar    1  UNL1        0.0535
     37 C          59.1148   82.6618   12.5507 C.ar    1  UNL1        0.0353
     38 C          58.6710   81.3520   12.7494 C.ar    1  UNL1        0.1002
     39 N          59.4622   80.4529   13.3919 N.ar    1  UNL1       -0.2422
     40 C          60.6954   80.7915   13.8521 C.ar    1  UNL1        0.1002
     41 C          61.1782   82.0900   13.6730 C.ar    1  UNL1        0.0353
     42 C          62.9157   87.1636   13.9913 C.3     1  UNL1        0.0569
     43 C          62.9146   88.3755   14.8832 C.ar    1  UNL1       -0.0017
     44 C          62.2221   88.5190   16.0820 C.ar    1  UNL1        0.0681
     45 N          62.5508   89.6860   16.6814 N.ar    1  UNL1       -0.3523
     46 C          63.4504   90.2774   15.8761 C.ar    1  UNL1        0.0563
     47 C          64.1096   91.4874   16.0906 C.ar    1  UNL1        0.0170
     48 C          65.0448   91.9072   15.1267 C.ar    1  UNL1        0.0015
     49 C          65.2944   91.1196   13.9812 C.ar    1  UNL1        0.0001
     50 C          64.6108   89.9059   13.7895 C.ar    1  UNL1        0.0012
     51 C          63.6962   89.5101   14.7665 C.ar    1  UNL1        0.0131
     52 H          62.1929   90.0410   17.5959 H       1  UNL1        0.1660
@<TRIPOS>BOND
     1     8     9    1
     2     9    10    1
     3    10    11    1
     4    11     1    1
     5     1     2   ar
     6     2     3   ar
     7     3     4   ar
     8     4    27    1
     9    27    28    2
    10    27    29   am
    11    29    31    1
    12    31    42    1
    13    42    43    1
    14    43    44   ar
    15    44    45   ar
    16    45    46   ar
    17    46    47   ar
    18    47    48   ar
    19    48    49   ar
    20    49    50   ar
    21    50    51   ar
    22    31    32    1
    23    32    33    2
    24    32    34   am
    25    34    36    1
    26    36    37   ar
    27    37    38   ar
    28    38    39   ar
    29    39    40   ar
    30    40    41   ar
    31     4     5   ar
    32     5     6    1
    33     5     7   ar
    34    11    12    1
    35    12    13    1
    36    13    14    1
    37    14    17    1
    38    17    18   ar
    39    18    19   ar
    40    19    20   ar
    41    20    23    1
    42    23    24    1
    43    23    25    1
    44    23    26    1
    45    20    21   ar
    46    21    22   ar
    47    14     9    1
    48    22    17   ar
    49     7     1   ar
    50    51    43   ar
    51    41    36   ar
    52    51    46   ar
    53     8    15    1
    54     8    16    1
    55    29    30    1
    56    45    52    1
    57    34    35    1
