@<TRIPOS>MOLECULE
*****
 46 50 0 0 0
SMALL
GASTEIGER

@<TRIPOS>ATOM
      1 C         -22.0072   53.0003  -10.2519 C.3     1  UNL1        0.1562
      2 C         -20.9247   51.9146  -10.2295 C.3     1  UNL1        0.0622
      3 C         -19.6151   52.5847  -10.7168 C.3     1  UNL1        0.1294
      4 O         -19.3593   52.1874  -12.0480 O.3     1  UNL1       -0.3808
      5 C         -19.8792   54.1066  -10.6829 C.3     1  UNL1        0.1264
      6 N         -21.2995   54.2659  -10.4094 N.am    1  UNL1       -0.2544
      7 C         -21.9547   55.5487  -10.3562 C.2     1  UNL1        0.3081
      8 O         -23.1981   55.6280  -10.5431 O.2     1  UNL1       -0.2522
      9 N         -21.2102   56.7523  -10.1313 N.am    1  UNL1       -0.2681
     10 H         -20.1426   52.4338  -12.6071 H       1  UNL1        0.2107
     11 H         -21.4263   57.5774  -10.7350 H       1  UNL1        0.1564
     12 C         -18.4264   52.2058   -9.8195 C.ar    1  UNL1        0.0310
     13 C         -17.2146   51.7402  -10.3777 C.ar    1  UNL1        0.0026
     14 C         -16.1308   51.4075   -9.5605 C.ar    1  UNL1        0.0295
     15 C         -16.2311   51.5325   -8.1753 C.ar    1  UNL1        0.1424
     16 F         -15.1764   51.2100   -7.3867 F       1  UNL1       -0.2041
     17 C         -17.4175   51.9892   -7.6020 C.ar    1  UNL1        0.0590
     18 C         -18.5089   52.3232   -8.4095 C.ar    1  UNL1        0.1406
     19 F         -19.6441   52.7604   -7.8086 F       1  UNL1       -0.2044
     20 C         -20.3009   56.9268   -9.0320 C.ar    1  UNL1        0.0516
     21 C         -19.9988   55.8669   -8.1563 C.ar    1  UNL1        0.0156
     22 C         -19.1044   56.0583   -7.0992 C.ar    1  UNL1        0.0127
     23 C         -18.5155   57.3101   -6.8968 C.ar    1  UNL1        0.0578
     24 CL        -17.3901   57.5468   -5.5725 Cl      1  UNL1       -0.0822
     25 C         -18.8285   58.3740   -7.7489 C.ar    1  UNL1        0.0127
     26 C         -19.7214   58.1848   -8.8081 C.ar    1  UNL1        0.0156
     27 N         -23.9939   51.7575  -11.3202 N.am    1  UNL1       -0.2680
     28 C         -22.9745   52.7656  -11.3953 C.2     1  UNL1        0.2454
     29 O         -22.7983   53.3689  -12.4884 O.2     1  UNL1       -0.2730
     30 H         -24.2506   51.2585  -12.2015 H       1  UNL1        0.1563
     31 C         -25.8200   50.4466   -7.7467 C.ar    1  UNL1        0.2466
     32 C         -26.6227   50.8090   -8.8378 C.ar    1  UNL1        0.0736
     33 C         -26.0341   51.2501  -10.0234 C.ar    1  UNL1        0.0406
     34 C         -24.6372   51.3428  -10.1084 C.ar    1  UNL1        0.1346
     35 N         -23.8752   50.9538   -9.0504 N.ar    1  UNL1       -0.2228
     36 C         -24.4256   50.5194   -7.8856 C.ar    1  UNL1        0.1691
     37 N         -27.6325   46.8315   -4.9384 N.pl3   1  UNL1       -0.3496
     38 C         -27.3089   48.2122   -5.1426 C.2     1  UNL1        0.1495
     39 C         -27.5791   49.1451   -4.1374 C.2     1  UNL1        0.0301
     40 C         -27.2605   50.4859   -4.3286 C.2     1  UNL1        0.0770
     41 C         -26.6765   50.8887   -5.5288 C.2     1  UNL1        0.2906
     42 N         -26.4157   49.9809   -6.5185 N.am    1  UNL1       -0.0831
     43 C         -26.7152   48.6513   -6.3411 C.2     1  UNL1        0.4356
     44 O         -26.4462   47.8118   -7.2450 O.2     1  UNL1       -0.2121
     45 H         -27.4419   46.1137   -5.6724 H       1  UNL1        0.1426
     46 H         -28.0702   46.5140   -4.0448 H       1  UNL1        0.1426
@<TRIPOS>BOND
     1    37    38    1
     2    38    39    2
     3    39    40    1
     4    40    41    2
     5    41    42    1
     6    42    31    1
     7    31    32   ar
     8    32    33   ar
     9    33    34   ar
    10    34    27    1
    11    27    28   am
    12    28    29    2
    13    28     1    1
    14     1     2    1
    15     2     3    1
    16     3     4    1
    17     3    12    1
    18    12    13   ar
    19    13    14   ar
    20    14    15   ar
    21    15    16    1
    22    15    17   ar
    23    17    18   ar
    24    18    19    1
    25     3     5    1
    26     5     6    1
    27     6     7   am
    28     7     8    2
    29     7     9   am
    30     9    20    1
    31    20    21   ar
    32    21    22   ar
    33    22    23   ar
    34    23    24    1
    35    23    25   ar
    36    25    26   ar
    37    34    35   ar
    38    35    36   ar
    39    42    43    1
    40    43    44    2
    41    43    38    1
    42    36    31   ar
    43     6     1    1
    44    26    20   ar
    45    18    12   ar
    46    37    45    1
    47    37    46    1
    48    27    30    1
    49     4    10    1
    50     9    11    1
@<TRIPOS>MOLECULE
*****
 46 50 0 0 0
SMALL
GASTEIGER

@<TRIPOS>ATOM
      1 C         -21.9635   52.9378  -10.3588 C.3     1  UNL1        0.1562
      2 C         -20.8773   51.8572  -10.3015 C.3     1  UNL1        0.0622
      3 C         -19.5543   52.5354  -10.7389 C.3     1  UNL1        0.1294
      4 O         -19.2489   52.1445  -12.0615 O.3     1  UNL1       -0.3808
      5 C         -19.8269   54.0558  -10.7089 C.3     1  UNL1        0.1264
      6 N         -21.2568   54.2073  -10.4860 N.am    1  UNL1       -0.2544
      7 C         -21.9198   55.4868  -10.4516 C.2     1  UNL1        0.3081
      8 O         -23.1560   55.5609  -10.6828 O.2     1  UNL1       -0.2522
      9 N         -21.1897   56.6931  -10.1956 N.am    1  UNL1       -0.2681
     10 H         -20.0127   52.3893  -12.6474 H       1  UNL1        0.2107
     11 H         -21.3880   57.5195  -10.8036 H       1  UNL1        0.1564
     12 C         -18.3968   52.1586   -9.8008 C.ar    1  UNL1        0.0310
     13 C         -17.1599   51.7110  -10.3172 C.ar    1  UNL1        0.0026
     14 C         -16.1046   51.3803   -9.4627 C.ar    1  UNL1        0.0295
     15 C         -16.2588   51.4894   -8.0811 C.ar    1  UNL1        0.1424
     16 F         -15.2317   51.1690   -7.2562 F       1  UNL1       -0.2041
     17 C         -17.4708   51.9283   -7.5489 C.ar    1  UNL1        0.0590
     18 C         -18.5340   52.2601   -8.3939 C.ar    1  UNL1        0.1406
     19 F         -19.6957   52.6796   -7.8322 F       1  UNL1       -0.2044
     20 C         -20.3213   56.8676   -9.0637 C.ar    1  UNL1        0.0516
     21 C         -20.0647   55.8123   -8.1681 C.ar    1  UNL1        0.0156
     22 C         -19.2094   56.0035   -7.0791 C.ar    1  UNL1        0.0127
     23 C         -18.6150   57.2508   -6.8648 C.ar    1  UNL1        0.0578
     24 CL        -17.5387   57.4872   -5.5002 Cl      1  UNL1       -0.0822
     25 C         -18.8835   58.3103   -7.7372 C.ar    1  UNL1        0.0127
     26 C         -19.7371   58.1213   -8.8283 C.ar    1  UNL1        0.0156
     27 N         -23.9354   51.7225  -11.4847 N.am    1  UNL1       -0.2680
     28 C         -22.8879   52.7030  -11.5371 C.2     1  UNL1        0.2454
     29 O         -22.6507   53.2781  -12.6338 O.2     1  UNL1       -0.2730
     30 H         -24.1678   51.2113  -12.3658 H       1  UNL1        0.1563
     31 C         -26.0859   50.7047   -7.9972 C.ar    1  UNL1        0.2466
     32 C         -24.7022   50.9172   -7.9160 C.ar    1  UNL1        0.0736
     33 C         -23.9767   51.2480   -9.0609 C.ar    1  UNL1        0.0406
     34 C         -24.6392   51.3501  -10.2930 C.ar    1  UNL1        0.1346
     35 N         -25.9874   51.1740  -10.3444 N.ar    1  UNL1       -0.2228
     36 C         -26.7157   50.8525   -9.2423 C.ar    1  UNL1        0.1691
     37 N         -29.6722   51.6799   -4.7680 N.pl3   1  UNL1       -0.3496
     38 C         -28.6018   50.8489   -5.2332 C.2     1  UNL1        0.1495
     39 C         -28.2715   49.6849   -4.5334 C.2     1  UNL1        0.0301
     40 C         -27.2372   48.8713   -4.9851 C.2     1  UNL1        0.0770
     41 C         -26.5337   49.2292   -6.1343 C.2     1  UNL1        0.2906
     42 N         -26.8486   50.3707   -6.8196 N.am    1  UNL1       -0.0831
     43 C         -27.8742   51.1795   -6.3920 C.2     1  UNL1        0.4356
     44 O         -28.1811   52.2166   -7.0434 O.2     1  UNL1       -0.2121
     45 H         -29.9397   52.5549   -5.2711 H       1  UNL1        0.1426
     46 H         -30.2088   51.4254   -3.9088 H       1  UNL1        0.1426
@<TRIPOS>BOND
     1    37    38    1
     2    38    39    2
     3    39    40    1
     4    40    41    2
     5    41    42    1
     6    42    31    1
     7    31    32   ar
     8    32    33   ar
     9    33    34   ar
    10    34    27    1
    11    27    28   am
    12    28    29    2
    13    28     1    1
    14     1     2    1
    15     2     3    1
    16     3     4    1
    17     3    12    1
    18    12    13   ar
    19    13    14   ar
    20    14    15   ar
    21    15    16    1
    22    15    17   ar
    23    17    18   ar
    24    18    19    1
    25     3     5    1
    26     5     6    1
    27     6     7   am
    28     7     8    2
    29     7     9   am
    30     9    20    1
    31    20    21   ar
    32    21    22   ar
    33    22    23   ar
    34    23    24    1
    35    23    25   ar
    36    25    26   ar
    37    34    35   ar
    38    35    36   ar
    39    42    43    1
    40    43    44    2
    41    43    38    1
    42    36    31   ar
    43     6     1    1
    44    26    20   ar
    45    18    12   ar
    46    37    45    1
    47    37    46    1
    48    27    30    1
    49     4    10    1
    50     9    11    1
@<TRIPOS>MOLECULE
*****
 46 50 0 0 0
SMALL
GASTEIGER

@<TRIPOS>ATOM
      1 C         -27.3906   50.4091   -8.4902 C.3     1  UNL1        0.1562
      2 C         -26.5780   51.1274   -7.4064 C.3     1  UNL1        0.0622
      3 C         -27.5045   51.2570   -6.1709 C.3     1  UNL1        0.1294
      4 O         -27.9693   52.5878   -6.0785 O.3     1  UNL1       -0.3808
      5 C         -28.7021   50.3183   -6.4384 C.3     1  UNL1        0.1264
      6 N         -28.5648   49.8678   -7.8152 N.am    1  UNL1       -0.2544
      7 C         -29.5269   49.0148   -8.4669 C.2     1  UNL1        0.3081
      8 O         -29.6038   48.9996   -9.7243 O.2     1  UNL1       -0.2522
      9 N         -30.4328   48.2044   -7.7079 N.am    1  UNL1       -0.2681
     10 H         -28.4322   52.8202   -6.9261 H       1  UNL1        0.2107
     11 H         -31.4355   48.1906   -8.0018 H       1  UNL1        0.1564
     12 C         -26.7697   50.8678   -4.8785 C.ar    1  UNL1        0.0310
     13 C         -25.9434   51.7957   -4.2054 C.ar    1  UNL1        0.0026
     14 C         -25.2856   51.4435   -3.0237 C.ar    1  UNL1        0.0295
     15 C         -25.4378   50.1644   -2.4895 C.ar    1  UNL1        0.1424
     16 F         -24.7990   49.8277   -1.3420 F       1  UNL1       -0.2041
     17 C         -26.2478   49.2319   -3.1370 C.ar    1  UNL1        0.0590
     18 C         -26.9091   49.5725   -4.3207 C.ar    1  UNL1        0.1406
     19 F         -27.6843   48.6327   -4.9181 F       1  UNL1       -0.2044
     20 C         -30.0100   47.3030   -6.6713 C.ar    1  UNL1        0.0516
     21 C         -28.9555   46.3934   -6.8771 C.ar    1  UNL1        0.0156
     22 C         -28.5562   45.5325   -5.8507 C.ar    1  UNL1        0.0127
     23 C         -29.2134   45.5599   -4.6169 C.ar    1  UNL1        0.0578
     24 CL        -28.7078   44.4819   -3.3291 Cl      1  UNL1       -0.0822
     25 C         -30.2769   46.4448   -4.4128 C.ar    1  UNL1        0.0127
     26 C         -30.6772   47.3084   -5.4371 C.ar    1  UNL1        0.0156
     27 N         -26.8853   52.3940  -10.0514 N.am    1  UNL1       -0.2680
     28 C         -27.7855   51.3755   -9.5893 C.2     1  UNL1        0.2454
     29 O         -28.9730   51.3788  -10.0132 O.2     1  UNL1       -0.2730
     30 H         -27.2958   53.3071  -10.3503 H       1  UNL1        0.1563
     31 C         -22.6738   52.1205  -10.1590 C.ar    1  UNL1        0.2466
     32 C         -23.4460   51.0183  -10.5526 C.ar    1  UNL1        0.0736
     33 C         -24.8388   51.0912  -10.5166 C.ar    1  UNL1        0.0406
     34 C         -25.4577   52.2678  -10.0693 C.ar    1  UNL1        0.1346
     35 N         -24.6910   53.3377   -9.7246 N.ar    1  UNL1       -0.2228
     36 C         -23.3326   53.2910   -9.7528 C.ar    1  UNL1        0.1691
     37 N         -18.2912   52.2762   -7.9208 N.pl3   1  UNL1       -0.3496
     38 C         -19.0847   52.1419   -9.1062 C.2     1  UNL1        0.1495
     39 C         -18.4602   51.9556  -10.3428 C.2     1  UNL1        0.0301
     40 C         -19.2269   51.8180  -11.4957 C.2     1  UNL1        0.0770
     41 C         -20.6171   51.8724  -11.4066 C.2     1  UNL1        0.2906
     42 N         -21.2333   52.0610  -10.1997 N.am    1  UNL1       -0.0831
     43 C         -20.4905   52.1884   -9.0504 C.2     1  UNL1        0.4356
     44 O         -21.0634   52.3328   -7.9347 O.2     1  UNL1       -0.2121
     45 H         -18.7315   52.4167   -6.9845 H       1  UNL1        0.1426
     46 H         -17.2486   52.2375   -7.9710 H       1  UNL1        0.1426
@<TRIPOS>BOND
     1    37    38    1
     2    38    39    2
     3    39    40    1
     4    40    41    2
     5    41    42    1
     6    42    31    1
     7    31    32   ar
     8    32    33   ar
     9    33    34   ar
    10    34    27    1
    11    27    28   am
    12    28    29    2
    13    28     1    1
    14     1     2    1
    15     2     3    1
    16     3     4    1
    17     3    12    1
    18    12    13   ar
    19    13    14   ar
    20    14    15   ar
    21    15    16    1
    22    15    17   ar
    23    17    18   ar
    24    18    19    1
    25     3     5    1
    26     5     6    1
    27     6     7   am
    28     7     8    2
    29     7     9   am
    30     9    20    1
    31    20    21   ar
    32    21    22   ar
    33    22    23   ar
    34    23    24    1
    35    23    25   ar
    36    25    26   ar
    37    34    35   ar
    38    35    36   ar
    39    42    43    1
    40    43    44    2
    41    43    38    1
    42    36    31   ar
    43     6     1    1
    44    26    20   ar
    45    18    12   ar
    46    37    45    1
    47    37    46    1
    48    27    30    1
    49     4    10    1
    50     9    11    1
@<TRIPOS>MOLECULE
*****
 46 50 0 0 0
SMALL
GASTEIGER

@<TRIPOS>ATOM
      1 C         -27.6290   48.4451   -7.8150 C.3     1  UNL1        0.1562
      2 C         -27.0943   49.7066   -7.1267 C.3     1  UNL1        0.0622
      3 C         -27.8826   49.8557   -5.8009 C.3     1  UNL1        0.1294
      4 O         -28.8440   50.8803   -5.9465 O.3     1  UNL1       -0.3808
      5 C         -28.6059   48.5079   -5.5835 C.3     1  UNL1        0.1264
      6 N         -28.4138   47.7426   -6.8061 N.am    1  UNL1       -0.2544
      7 C         -28.9917   46.4397   -7.0214 C.2     1  UNL1        0.3081
      8 O         -29.1629   46.0139   -8.1947 O.2     1  UNL1       -0.2522
      9 N         -29.4152   45.6257   -5.9207 N.am    1  UNL1       -0.2681
     10 H         -29.4322   50.6545   -6.7145 H       1  UNL1        0.2107
     11 H         -30.3446   45.1537   -5.9947 H       1  UNL1        0.1564
     12 C         -26.9451   50.1801   -4.6272 C.ar    1  UNL1        0.0310
     13 C         -26.6431   49.2065   -3.6485 C.ar    1  UNL1        0.0026
     14 C         -25.7808   49.5000   -2.5885 C.ar    1  UNL1        0.0295
     15 C         -25.2027   50.7645   -2.4827 C.ar    1  UNL1        0.1424
     16 F         -24.3655   51.0441   -1.4535 F       1  UNL1       -0.2041
     17 C         -25.4868   51.7414   -3.4365 C.ar    1  UNL1        0.0590
     18 C         -26.3494   51.4598   -4.5001 C.ar    1  UNL1        0.1406
     19 F         -26.5997   52.4412   -5.4029 F       1  UNL1       -0.2044
     20 C         -28.5720   45.3073   -4.8012 C.ar    1  UNL1        0.0516
     21 C         -29.0775   45.2817   -3.4876 C.ar    1  UNL1        0.0156
     22 C         -28.2398   44.9605   -2.4156 C.ar    1  UNL1        0.0127
     23 C         -26.8894   44.6773   -2.6412 C.ar    1  UNL1        0.0578
     24 CL        -25.8412   44.2702   -1.2951 Cl      1  UNL1       -0.0822
     25 C         -26.3749   44.7234   -3.9408 C.ar    1  UNL1        0.0127
     26 C         -27.2109   45.0425   -5.0152 C.ar    1  UNL1        0.0156
     27 N         -28.2531   50.0231   -9.7523 N.am    1  UNL1       -0.2680
     28 C         -28.4791   48.8118   -9.0153 C.2     1  UNL1        0.2454
     29 O         -29.4918   48.1138   -9.2927 O.2     1  UNL1       -0.2730
     30 H         -29.0847   50.5072  -10.1593 H       1  UNL1        0.1563
     31 C         -24.4346   51.7691  -10.1927 C.ar    1  UNL1        0.2466
     32 C         -25.4239   52.4495   -9.4684 C.ar    1  UNL1        0.0736
     33 C         -26.6926   51.8883   -9.3195 C.ar    1  UNL1        0.0406
     34 C         -26.9735   50.6486   -9.9124 C.ar    1  UNL1        0.1346
     35 N         -25.9897   49.9887  -10.5818 N.ar    1  UNL1       -0.2228
     36 C         -24.7459   50.5146  -10.7389 C.ar    1  UNL1        0.1691
     37 N         -19.9182   52.6992   -8.4673 N.pl3   1  UNL1       -0.3496
     38 C         -20.9049   52.7957   -9.5016 C.2     1  UNL1        0.1495
     39 C         -20.5995   53.4589  -10.6935 C.2     1  UNL1        0.0301
     40 C         -21.5523   53.5494  -11.7034 C.2     1  UNL1        0.0770
     41 C         -22.8103   52.9790  -11.5138 C.2     1  UNL1        0.2906
     42 N         -23.1168   52.3343  -10.3467 N.am    1  UNL1       -0.0831
     43 C         -22.1832   52.2277   -9.3437 C.2     1  UNL1        0.4356
     44 O         -22.4597   51.6066   -8.2798 O.2     1  UNL1       -0.2121
     45 H         -20.1197   52.2100   -7.5671 H       1  UNL1        0.1426
     46 H         -18.9712   53.1212   -8.5942 H       1  UNL1        0.1426
@<TRIPOS>BOND
     1    37    38    1
     2    38    39    2
     3    39    40    1
     4    40    41    2
     5    41    42    1
     6    42    31    1
     7    31    32   ar
     8    32    33   ar
     9    33    34   ar
    10    34    27    1
    11    27    28   am
    12    28    29    2
    13    28     1    1
    14     1     2    1
    15     2     3    1
    16     3     4    1
    17     3    12    1
    18    12    13   ar
    19    13    14   ar
    20    14    15   ar
    21    15    16    1
    22    15    17   ar
    23    17    18   ar
    24    18    19    1
    25     3     5    1
    26     5     6    1
    27     6     7   am
    28     7     8    2
    29     7     9   am
    30     9    20    1
    31    20    21   ar
    32    21    22   ar
    33    22    23   ar
    34    23    24    1
    35    23    25   ar
    36    25    26   ar
    37    34    35   ar
    38    35    36   ar
    39    42    43    1
    40    43    44    2
    41    43    38    1
    42    36    31   ar
    43     6     1    1
    44    26    20   ar
    45    18    12   ar
    46    37    45    1
    47    37    46    1
    48    27    30    1
    49     4    10    1
    50     9    11    1
