@<TRIPOS>MOLECULE
*****
 46 51 0 0 0
SMALL
GASTEIGER

@<TRIPOS>ATOM
      1 C         -25.4354   50.2372   -7.4438 C.ar    1  UNL1        0.0702
      2 C         -26.0172   50.6478   -8.6530 C.ar    1  UNL1        0.0191
      3 C         -25.2395   51.2741   -9.6284 C.ar    1  UNL1        0.0356
      4 C         -23.8686   51.4818   -9.3978 C.ar    1  UNL1        0.1318
      5 N         -23.3234   51.0475   -8.2267 N.ar    1  UNL1       -0.2279
      6 C         -24.0611   50.4348   -7.2637 C.ar    1  UNL1        0.1149
      7 N         -23.0302   52.1242  -10.3826 N.pl3   1  UNL1       -0.2932
      8 C         -23.6088   53.1344  -11.2818 C.3     1  UNL1        0.0923
      9 C         -22.5482   54.1718  -11.6580 C.3     1  UNL1        0.0252
     10 C         -21.3170   53.5294  -12.3472 C.3     1  UNL1        0.0472
     11 C         -21.1193   52.0416  -11.9615 C.3     1  UNL1        0.0252
     12 C         -21.6215   51.7255  -10.5474 C.3     1  UNL1        0.0923
     13 C         -20.0399   54.3466  -12.0602 C.3     1  UNL1        0.2054
     14 O         -20.2275   55.2264  -10.9499 O.3     1  UNL1       -0.4755
     15 C         -19.8621   54.9576   -9.6204 C.ar    1  UNL1        0.1388
     16 C         -19.7386   56.0392   -8.7428 C.ar    1  UNL1        0.0369
     17 C         -19.3807   55.8334   -7.4100 C.ar    1  UNL1        0.0033
     18 C         -19.1392   54.5416   -6.9383 C.ar    1  UNL1        0.0066
     19 C         -19.2517   53.4370   -7.8008 C.ar    1  UNL1        0.0785
     20 C         -19.6260   53.6533   -9.1408 C.ar    1  UNL1        0.0433
     21 C         -19.0065   52.0573   -7.3130 C.2     1  UNL1        0.3381
     22 O         -18.8188   51.1256   -8.1400 O.2     1  UNL1       -0.2451
     23 O         -18.9615   51.7568   -5.9520 O.3     1  UNL1       -0.4771
     24 H         -19.0002   52.4690   -5.2346 H       1  UNL1        0.2954
     25 C         -26.4167   50.0917   -5.1070 C.2     1  UNL1        0.2839
     26 O         -25.7319   51.0641   -4.6896 O.2     1  UNL1       -0.2665
     27 N         -26.1974   49.5655   -6.4259 N.am    1  UNL1       -0.2766
     28 H         -26.5411   48.6001   -6.6321 H       1  UNL1        0.1553
     29 C         -30.2167   47.4055   -1.3134 C.ar    1  UNL1       -0.0001
     30 C         -31.1475   48.0462   -2.1684 C.ar    1  UNL1        0.0031
     31 C         -30.7043   48.8297   -3.2482 C.ar    1  UNL1        0.0375
     32 C         -29.3321   48.9441   -3.4511 C.ar    1  UNL1        0.1452
     33 O         -28.7205   49.6220   -4.3913 O.2     1  UNL1       -0.4492
     34 C         -27.4192   49.4639   -4.2252 C.ar    1  UNL1        0.1946
     35 C         -27.1735   48.6413   -3.1200 C.ar    1  UNL1        0.0202
     36 C         -25.8452   48.2084   -2.5767 C.3     1  UNL1        0.0345
     37 C         -28.4261   48.3176   -2.6359 C.ar    1  UNL1        0.0337
     38 C         -28.8323   47.5320   -1.5562 C.ar    1  UNL1        0.0028
     39 C         -30.7982   47.0838    1.1299 C.ar    1  UNL1       -0.0222
     40 C         -31.2391   46.2300    2.1573 C.ar    1  UNL1       -0.0043
     41 C         -31.5840   44.9051    1.8833 C.ar    1  UNL1       -0.0003
     42 C         -31.4793   44.4092    0.5842 C.ar    1  UNL1       -0.0000
     43 C         -31.0308   45.2366   -0.4462 C.ar    1  UNL1       -0.0003
     44 C         -30.6911   46.5748   -0.1897 C.ar    1  UNL1       -0.0040
     45 C         -30.1504   48.6208    2.9941 C.3     1  UNL1        0.0050
     46 C         -30.3630   48.4870    1.4894 C.3     1  UNL1        0.0264
@<TRIPOS>BOND
     1    45    46    1
     2    46    39    1
     3    39    40   ar
     4    40    41   ar
     5    41    42   ar
     6    42    43   ar
     7    43    44   ar
     8    44    29    1
     9    29    30   ar
    10    30    31   ar
    11    31    32   ar
    12    32    33   ar
    13    33    34   ar
    14    34    25    1
    15    25    26    2
    16    25    27   am
    17    27     1    1
    18     1     2   ar
    19     2     3   ar
    20     3     4   ar
    21     4     7    1
    22     7     8    1
    23     8     9    1
    24     9    10    1
    25    10    13    1
    26    13    14    1
    27    14    15    1
    28    15    16   ar
    29    16    17   ar
    30    17    18   ar
    31    18    19   ar
    32    19    21    1
    33    21    22    2
    34    21    23    1
    35    19    20   ar
    36    10    11    1
    37    11    12    1
    38     4     5   ar
    39     5     6   ar
    40    34    35   ar
    41    35    36    1
    42    35    37   ar
    43    37    38   ar
    44    44    39   ar
    45    38    29   ar
    46    37    32   ar
    47     6     1   ar
    48    12     7    1
    49    20    15   ar
    50    27    28    1
    51    23    24    1
@<TRIPOS>MOLECULE
*****
 46 51 0 0 0
SMALL
GASTEIGER

@<TRIPOS>ATOM
      1 C         -25.7294   50.1721   -9.5192 C.ar    1  UNL1        0.0702
      2 C         -26.7411   50.7998  -10.2619 C.ar    1  UNL1        0.0191
      3 C         -27.8487   50.0694  -10.6956 C.ar    1  UNL1        0.0356
      4 C         -27.9508   48.7046  -10.3757 C.ar    1  UNL1        0.1318
      5 N         -26.9681   48.1267   -9.6289 N.ar    1  UNL1       -0.2279
      6 C         -25.8817   48.8185   -9.1952 C.ar    1  UNL1        0.1149
      7 N         -29.0817   47.9152  -10.8042 N.pl3   1  UNL1       -0.2932
      8 C         -30.4282   48.5072  -10.7901 C.3     1  UNL1        0.0923
      9 C         -31.2826   47.8953  -11.9027 C.3     1  UNL1        0.0252
     10 C         -31.4073   46.3559  -11.7680 C.3     1  UNL1        0.0472
     11 C         -30.2199   45.7205  -11.0013 C.3     1  UNL1        0.0252
     12 C         -28.9128   46.5015  -11.1832 C.3     1  UNL1        0.0923
     13 C         -31.5841   45.6971  -13.1521 C.3     1  UNL1        0.2054
     14 O         -30.3704   45.7420  -13.9052 O.3     1  UNL1       -0.4755
     15 C         -30.2273   46.2719  -15.1983 C.ar    1  UNL1        0.1388
     16 C         -30.4399   45.4172  -16.2844 C.ar    1  UNL1        0.0369
     17 C         -30.3143   45.8879  -17.5919 C.ar    1  UNL1        0.0033
     18 C         -29.9717   47.2204  -17.8296 C.ar    1  UNL1        0.0066
     19 C         -29.7477   48.0996  -16.7556 C.ar    1  UNL1        0.0785
     20 C         -29.8894   47.6189  -15.4398 C.ar    1  UNL1        0.0433
     21 C         -29.3911   49.5204  -16.9915 C.2     1  UNL1        0.3381
     22 O         -30.0234   50.1893  -17.8518 O.2     1  UNL1       -0.2451
     23 O         -28.3766   50.1520  -16.2730 O.3     1  UNL1       -0.4771
     24 H         -27.8993   49.7089  -15.4989 H       1  UNL1        0.2954
     25 C         -23.4822   51.3041   -9.8564 C.2     1  UNL1        0.2839
     26 O         -23.3403   50.8210  -11.0119 O.2     1  UNL1       -0.2665
     27 N         -24.5864   50.8964   -9.0323 N.am    1  UNL1       -0.2766
     28 H         -24.5172   51.0622   -8.0026 H       1  UNL1        0.1553
     29 C         -19.6494   55.4711   -7.8584 C.ar    1  UNL1       -0.0001
     30 C         -19.0361   54.3095   -7.3267 C.ar    1  UNL1        0.0031
     31 C         -19.6027   53.0408   -7.5404 C.ar    1  UNL1        0.0375
     32 C         -20.7706   52.9665   -8.2938 C.ar    1  UNL1        0.1452
     33 O         -21.4505   51.8899   -8.6037 O.2     1  UNL1       -0.4492
     34 C         -22.4899   52.2608   -9.3305 C.ar    1  UNL1        0.1946
     35 C         -22.4844   53.6498   -9.5009 C.ar    1  UNL1        0.0202
     36 C         -23.4773   54.4853  -10.2513 C.3     1  UNL1        0.0345
     37 C         -21.3628   54.0841   -8.8214 C.ar    1  UNL1        0.0337
     38 C         -20.8261   55.3580   -8.6291 C.ar    1  UNL1        0.0028
     39 C         -19.3082   57.8984   -8.4934 C.ar    1  UNL1       -0.0222
     40 C         -18.6780   59.1297   -8.2376 C.ar    1  UNL1       -0.0043
     41 C         -17.8146   59.2754   -7.1500 C.ar    1  UNL1       -0.0003
     42 C         -17.5560   58.1913   -6.3119 C.ar    1  UNL1       -0.0000
     43 C         -18.1610   56.9577   -6.5571 C.ar    1  UNL1       -0.0003
     44 C         -19.0409   56.7976   -7.6397 C.ar    1  UNL1       -0.0040
     45 C         -20.2471   59.0934  -10.4804 C.3     1  UNL1        0.0050
     46 C         -20.1737   57.7689   -9.7271 C.3     1  UNL1        0.0264
@<TRIPOS>BOND
     1    45    46    1
     2    46    39    1
     3    39    40   ar
     4    40    41   ar
     5    41    42   ar
     6    42    43   ar
     7    43    44   ar
     8    44    29    1
     9    29    30   ar
    10    30    31   ar
    11    31    32   ar
    12    32    33   ar
    13    33    34   ar
    14    34    25    1
    15    25    26    2
    16    25    27   am
    17    27     1    1
    18     1     2   ar
    19     2     3   ar
    20     3     4   ar
    21     4     7    1
    22     7     8    1
    23     8     9    1
    24     9    10    1
    25    10    13    1
    26    13    14    1
    27    14    15    1
    28    15    16   ar
    29    16    17   ar
    30    17    18   ar
    31    18    19   ar
    32    19    21    1
    33    21    22    2
    34    21    23    1
    35    19    20   ar
    36    10    11    1
    37    11    12    1
    38     4     5   ar
    39     5     6   ar
    40    34    35   ar
    41    35    36    1
    42    35    37   ar
    43    37    38   ar
    44    44    39   ar
    45    38    29   ar
    46    37    32   ar
    47     6     1   ar
    48    12     7    1
    49    20    15   ar
    50    27    28    1
    51    23    24    1
