@<TRIPOS>MOLECULE
*****
 52 57 0 0 0
SMALL
GASTEIGER

@<TRIPOS>ATOM
      1 N         -29.5334   49.9162  -12.8390 N.am    1  UNL1       -0.2945
      2 C         -29.1472   51.1229  -12.1624 C.2     1  UNL1        0.2483
      3 O         -29.9886   52.0491  -12.0011 O.2     1  UNL1       -0.2701
      4 H         -28.7780   49.3239  -13.2487 H       1  UNL1        0.1501
      5 C         -27.7589   51.3122  -11.6826 C.ar    1  UNL1        0.0808
      6 C         -26.6964   51.2827  -12.6019 C.ar    1  UNL1        0.0080
      7 C         -25.3783   51.4523  -12.1709 C.ar    1  UNL1        0.0148
      8 C         -25.0971   51.6671  -10.8129 C.ar    1  UNL1        0.0502
      9 C         -26.1561   51.7117   -9.8944 C.ar    1  UNL1        0.0443
     10 C         -27.4769   51.5408  -10.3209 C.ar    1  UNL1        0.1457
     11 F         -28.4744   51.6431   -9.4062 F       1  UNL1       -0.2040
     12 N         -23.7404   51.8403  -10.3622 N.pl3   1  UNL1       -0.3040
     13 C         -22.6873   52.2345  -11.3054 C.3     1  UNL1        0.1122
     14 C         -21.3862   51.5045  -10.9707 C.3     1  UNL1        0.1122
     15 N         -21.0983   51.6171   -9.5356 N.pl3   1  UNL1       -0.3041
     16 C         -22.1518   51.2232   -8.5923 C.3     1  UNL1        0.1122
     17 C         -23.4527   51.9534   -8.9272 C.3     1  UNL1        0.1122
     18 C         -19.7411   51.7867   -9.0850 C.ar    1  UNL1        0.0479
     19 C         -18.6735   51.5955   -9.9750 C.ar    1  UNL1        0.0145
     20 C         -17.3540   51.7608   -9.5446 C.ar    1  UNL1        0.0051
     21 C         -17.0786   52.1397   -8.2196 C.ar    1  UNL1        0.0715
     22 C         -18.1479   52.3067   -7.3229 C.ar    1  UNL1        0.0051
     23 C         -19.4671   52.1421   -7.7543 C.ar    1  UNL1        0.0145
     24 C         -15.6539   52.2689   -7.7422 C.3     1  UNL1        0.4186
     25 F         -15.4729   53.4597   -7.0601 F       1  UNL1       -0.1659
     26 F         -15.3280   51.2285   -6.8893 F       1  UNL1       -0.1659
     27 F         -14.8047   52.2406   -8.8324 F       1  UNL1       -0.1659
     28 C         -30.9235   49.6345  -13.2159 C.3     1  UNL1        0.1535
     29 C         -30.9965   49.1041  -14.6273 C.2     1  UNL1        0.2443
     30 O         -31.5575   49.7886  -15.5263 O.2     1  UNL1       -0.2730
     31 N         -30.4334   47.8190  -14.9359 N.am    1  UNL1       -0.2825
     32 H         -30.2108   47.1843  -14.1359 H       1  UNL1        0.1549
     33 C         -30.2239   47.3189  -16.2691 C.ar    1  UNL1        0.0535
     34 C         -30.6084   46.0066  -16.5772 C.ar    1  UNL1        0.0353
     35 C         -30.3779   45.4993  -17.8581 C.ar    1  UNL1        0.1002
     36 N         -29.7676   46.2693  -18.7969 N.ar    1  UNL1       -0.2422
     37 C         -29.3662   47.5387  -18.5244 C.ar    1  UNL1        0.1002
     38 C         -29.5811   48.0861  -17.2574 C.ar    1  UNL1        0.0353
     39 C         -31.5840   48.6792  -12.1986 C.3     1  UNL1        0.0569
     40 C         -28.2775   46.9034   -8.9384 C.ar    1  UNL1        0.0228
     41 C         -27.7957   45.8542   -9.7571 C.ar    1  UNL1       -0.0004
     42 C         -28.3557   45.6131  -11.0285 C.ar    1  UNL1       -0.0002
     43 C         -29.3854   46.4293  -11.5202 C.ar    1  UNL1        0.0011
     44 C         -29.8190   47.4859  -10.7212 C.ar    1  UNL1        0.0129
     45 C         -30.7682   48.4644  -10.9507 C.ar    1  UNL1       -0.0017
     46 C         -30.7733   49.2554   -9.8077 C.ar    1  UNL1        0.0681
     47 N         -29.8675   48.8007   -8.9136 N.ar    1  UNL1       -0.3524
     48 C         -29.2898   47.7194   -9.4745 C.ar    1  UNL1        0.0546
     49 H         -29.6632   49.2271   -7.9834 H       1  UNL1        0.1660
     50 C         -27.6561   47.1879   -7.5937 C.3     1  UNL1        0.1701
     51 C         -29.0460   46.1748   -6.0593 C.3     1  UNL1        0.1746
     52 O         -27.8138   46.0747   -6.7373 O.3     1  UNL1       -0.3463
@<TRIPOS>BOND
     1    51    52    1
     2    52    50    1
     3    50    40    1
     4    40    41   ar
     5    41    42   ar
     6    42    43   ar
     7    43    44   ar
     8    44    45   ar
     9    45    39    1
    10    39    28    1
    11    28     1    1
    12     1     2   am
    13     2     3    2
    14     2     5    1
    15     5     6   ar
    16     6     7   ar
    17     7     8   ar
    18     8    12    1
    19    12    13    1
    20    13    14    1
    21    14    15    1
    22    15    18    1
    23    18    19   ar
    24    19    20   ar
    25    20    21   ar
    26    21    24    1
    27    24    25    1
    28    24    26    1
    29    24    27    1
    30    21    22   ar
    31    22    23   ar
    32    15    16    1
    33    16    17    1
    34     8     9   ar
    35     9    10   ar
    36    10    11    1
    37    28    29    1
    38    29    30    2
    39    29    31   am
    40    31    33    1
    41    33    34   ar
    42    34    35   ar
    43    35    36   ar
    44    36    37   ar
    45    37    38   ar
    46    45    46   ar
    47    46    47   ar
    48    47    48   ar
    49    48    40   ar
    50    48    44   ar
    51    10     5   ar
    52    38    33   ar
    53    17    12    1
    54    23    18   ar
    55     1     4    1
    56    31    32    1
    57    47    49    1
@<TRIPOS>MOLECULE
*****
 52 57 0 0 0
SMALL
GASTEIGER

@<TRIPOS>ATOM
      1 N         -29.5373   46.3235   -1.2851 N.am    1  UNL1       -0.2945
      2 C         -28.5825   45.7470   -2.1904 C.2     1  UNL1        0.2483
      3 O         -28.2964   44.5213   -2.1043 O.2     1  UNL1       -0.2701
      4 H         -29.5163   47.3579   -1.1483 H       1  UNL1        0.1501
      5 C         -27.8977   46.5826   -3.2034 C.ar    1  UNL1        0.0808
      6 C         -27.5201   46.0144   -4.4320 C.ar    1  UNL1        0.0080
      7 C         -26.8670   46.7820   -5.3996 C.ar    1  UNL1        0.0148
      8 C         -26.5894   48.1371   -5.1629 C.ar    1  UNL1        0.0502
      9 C         -26.9778   48.7115   -3.9437 C.ar    1  UNL1        0.0443
     10 C         -27.6301   47.9466   -2.9715 C.ar    1  UNL1        0.1457
     11 F         -28.0342   48.5555   -1.8278 F       1  UNL1       -0.2040
     12 N         -25.9146   48.9329   -6.1554 N.pl3   1  UNL1       -0.3040
     13 C         -25.6335   50.3517   -5.9065 C.3     1  UNL1        0.1122
     14 C         -25.8222   51.1553   -7.1936 C.3     1  UNL1        0.1122
     15 N         -25.1198   50.5020   -8.3048 N.pl3   1  UNL1       -0.3041
     16 C         -25.4008   49.0829   -8.5534 C.3     1  UNL1        0.1122
     17 C         -25.2119   48.2795   -7.2663 C.3     1  UNL1        0.1122
     18 C         -24.4482   51.2983   -9.2992 C.ar    1  UNL1        0.0479
     19 C         -23.1574   51.7907   -9.0544 C.ar    1  UNL1        0.0145
     20 C         -22.4992   52.5621  -10.0162 C.ar    1  UNL1        0.0051
     21 C         -23.1129   52.8392  -11.2497 C.ar    1  UNL1        0.0715
     22 C         -24.4155   52.3663  -11.4837 C.ar    1  UNL1        0.0051
     23 C         -25.0727   51.5941  -10.5217 C.ar    1  UNL1        0.0145
     24 C         -22.4233   53.7133  -12.2669 C.3     1  UNL1        0.4186
     25 F         -23.0225   53.5851  -13.5081 F       1  UNL1       -0.1659
     26 F         -22.4874   55.0442  -11.8915 F       1  UNL1       -0.1659
     27 F         -21.0971   53.3366  -12.3659 F       1  UNL1       -0.1659
     28 C         -30.3305   45.5118   -0.3548 C.3     1  UNL1        0.1535
     29 C         -30.6780   46.3047    0.8820 C.2     1  UNL1        0.2443
     30 O         -31.5838   45.8925    1.6573 O.2     1  UNL1       -0.2730
     31 N         -29.9801   47.5283    1.1637 N.am    1  UNL1       -0.2825
     32 H         -29.4299   47.9605    0.3872 H       1  UNL1        0.1549
     33 C         -30.0461   48.2357    2.4154 C.ar    1  UNL1        0.0535
     34 C         -31.1271   49.0932    2.6620 C.ar    1  UNL1        0.0353
     35 C         -31.1833   49.8113    3.8588 C.ar    1  UNL1        0.1002
     36 N         -30.1850   49.6922    4.7731 N.ar    1  UNL1       -0.2422
     37 C         -29.1145   48.8836    4.5561 C.ar    1  UNL1        0.1002
     38 C         -29.0211   48.1448    3.3744 C.ar    1  UNL1        0.0353
     39 C         -31.5838   44.9438   -1.0550 C.3     1  UNL1        0.0569
     40 C         -31.4422   46.9828   -5.5867 C.ar    1  UNL1        0.0228
     41 C         -31.4210   48.3301   -5.1536 C.ar    1  UNL1       -0.0004
     42 C         -31.5053   48.6509   -3.7831 C.ar    1  UNL1       -0.0002
     43 C         -31.5834   47.6365   -2.8172 C.ar    1  UNL1        0.0011
     44 C         -31.5583   46.3137   -3.2559 C.ar    1  UNL1        0.0129
     45 C         -31.5773   45.1251   -2.5502 C.ar    1  UNL1       -0.0017
     46 C         -31.5266   44.1204   -3.5094 C.ar    1  UNL1        0.0681
     47 N         -31.4693   44.6531   -4.7501 N.ar    1  UNL1       -0.3524
     48 C         -31.4917   45.9915   -4.5903 C.ar    1  UNL1        0.0546
     49 H         -31.4071   44.1145   -5.6418 H       1  UNL1        0.1660
     50 C         -31.3145   46.6345   -7.0488 C.3     1  UNL1        0.1701
     51 C         -30.7819   44.9745   -8.5566 C.3     1  UNL1        0.1746
     52 O         -31.0500   45.2545   -7.2010 O.3     1  UNL1       -0.3463
@<TRIPOS>BOND
     1    51    52    1
     2    52    50    1
     3    50    40    1
     4    40    41   ar
     5    41    42   ar
     6    42    43   ar
     7    43    44   ar
     8    44    45   ar
     9    45    39    1
    10    39    28    1
    11    28     1    1
    12     1     2   am
    13     2     3    2
    14     2     5    1
    15     5     6   ar
    16     6     7   ar
    17     7     8   ar
    18     8    12    1
    19    12    13    1
    20    13    14    1
    21    14    15    1
    22    15    18    1
    23    18    19   ar
    24    19    20   ar
    25    20    21   ar
    26    21    24    1
    27    24    25    1
    28    24    26    1
    29    24    27    1
    30    21    22   ar
    31    22    23   ar
    32    15    16    1
    33    16    17    1
    34     8     9   ar
    35     9    10   ar
    36    10    11    1
    37    28    29    1
    38    29    30    2
    39    29    31   am
    40    31    33    1
    41    33    34   ar
    42    34    35   ar
    43    35    36   ar
    44    36    37   ar
    45    37    38   ar
    46    45    46   ar
    47    46    47   ar
    48    47    48   ar
    49    48    40   ar
    50    48    44   ar
    51    10     5   ar
    52    38    33   ar
    53    17    12    1
    54    23    18   ar
    55     1     4    1
    56    31    32    1
    57    47    49    1
