@<TRIPOS>MOLECULE
*****
 37 42 0 0 0
SMALL
GASTEIGER

@<TRIPOS>ATOM
      1 C         -23.5866   -8.7803  -11.1314 C.ar    1  UNL1        0.1093
      2 N         -23.0410   -9.6426  -10.2377 N.ar    1  UNL1       -0.1677
      3 N         -23.9516   -9.9040   -9.3076 N.ar    1  UNL1       -0.2319
      4 C         -23.7668  -10.8619   -8.2260 C.3     1  UNL1        0.1554
      5 C         -25.0793   -9.2491   -9.6228 C.ar    1  UNL1        0.1654
      6 N         -26.2726   -9.3282   -8.9868 N.ar    1  UNL1       -0.2050
      7 C         -27.3213   -8.6185   -9.4963 C.ar    1  UNL1        0.2014
      8 N         -27.1577   -7.8422  -10.6131 N.ar    1  UNL1       -0.2089
      9 C         -25.9582   -7.7582  -11.2641 C.ar    1  UNL1        0.1379
     10 C         -24.8964   -8.5113  -10.7527 C.ar    1  UNL1        0.0865
     11 C         -22.1272   -7.2997  -12.6193 C.ar    1  UNL1        0.1113
     12 N         -21.6980   -7.3147  -13.8980 N.ar    1  UNL1       -0.1711
     13 N         -22.1956   -8.3964  -14.4786 N.ar    1  UNL1       -0.2490
     14 C         -21.9107   -8.7607  -15.8622 C.3     1  UNL1        0.1537
     15 C         -22.9521   -9.0838  -13.5939 C.ar    1  UNL1        0.0806
     16 C         -22.9217   -8.4095  -12.3863 C.ar    1  UNL1        0.0545
     17 C         -23.6065  -10.3815  -13.8546 C.ar    1  UNL1        0.0174
     18 C         -22.8851  -11.5766  -13.7167 C.ar    1  UNL1        0.0012
     19 C         -23.5078  -12.8068  -13.9460 C.ar    1  UNL1       -0.0042
     20 C         -24.8633  -12.8575  -14.3045 C.ar    1  UNL1       -0.0218
     21 C         -25.5212  -14.1752  -14.5882 C.3     1  UNL1        0.0310
     22 C         -25.5793  -11.6613  -14.4622 C.ar    1  UNL1       -0.0042
     23 C         -24.9562  -10.4313  -14.2324 C.ar    1  UNL1        0.0012
     24 C         -21.8551   -6.1861  -11.6486 C.3     1  UNL1        0.1894
     25 C         -21.6748   -5.9982   -9.3449 C.3     1  UNL1        0.1747
     26 O         -21.1985   -6.6680  -10.4913 O.3     1  UNL1       -0.3446
     27 N         -25.8081   -6.8589  -12.3715 N.pl3   1  UNL1       -0.2917
     28 C         -25.4696   -5.4543  -12.1774 C.3     1  UNL1        0.0937
     29 C         -26.0256   -4.7141  -13.3885 C.3     1  UNL1        0.0391
     30 C         -26.2531   -5.8066  -14.4417 C.3     1  UNL1        0.0790
     31 C         -26.4822   -7.0897  -13.6394 C.3     1  UNL1        0.1081
     32 N         -27.3048   -5.5058  -15.4518 N.3     1  UNL1       -0.2723
     33 C         -28.6118   -5.0404  -14.9154 C.3     1  UNL1        0.0721
     34 C         -29.4521   -4.3246  -15.9791 C.3     1  UNL1        0.0174
     35 C         -28.7286   -3.0825  -16.5185 C.3     1  UNL1        0.0029
     36 C         -27.1998   -3.2480  -16.5527 C.3     1  UNL1        0.0174
     37 C         -26.7847   -4.7253  -16.6049 C.3     1  UNL1        0.0721
@<TRIPOS>BOND
     1    25    26    1
     2    26    24    1
     3    24    11    1
     4    11    12   ar
     5    12    13   ar
     6    13    14    1
     7    13    15   ar
     8    15    17    1
     9    17    18   ar
    10    18    19   ar
    11    19    20   ar
    12    20    21    1
    13    20    22   ar
    14    22    23   ar
    15    15    16   ar
    16    16     1    1
    17     1     2   ar
    18     2     3   ar
    19     3     4    1
    20     3     5   ar
    21     5     6   ar
    22     6     7   ar
    23     7     8   ar
    24     8     9   ar
    25     9    27    1
    26    27    28    1
    27    28    29    1
    28    29    30    1
    29    30    32    1
    30    32    33    1
    31    33    34    1
    32    34    35    1
    33    35    36    1
    34    36    37    1
    35    30    31    1
    36     9    10   ar
    37    16    11   ar
    38    10     1   ar
    39    23    17   ar
    40    10     5   ar
    41    31    27    1
    42    37    32    1
@<TRIPOS>MOLECULE
*****
 37 42 0 0 0
SMALL
GASTEIGER

@<TRIPOS>ATOM
      1 C         -24.2009   -7.0206  -11.5672 C.ar    1  UNL1        0.1093
      2 N         -23.8036   -5.8146  -11.0901 N.ar    1  UNL1       -0.1677
      3 N         -22.5305   -5.6383  -11.4226 N.ar    1  UNL1       -0.2319
      4 C         -21.7772   -4.4188  -11.1639 C.3     1  UNL1        0.1554
      5 C         -22.1284   -6.6997  -12.1378 C.ar    1  UNL1        0.1654
      6 N         -20.9308   -6.8645  -12.7489 N.ar    1  UNL1       -0.2050
      7 C         -20.7316   -8.0013  -13.4778 C.ar    1  UNL1        0.2014
      8 N         -21.7176   -8.9476  -13.5726 N.ar    1  UNL1       -0.2089
      9 C         -22.9309   -8.7891  -12.9622 C.ar    1  UNL1        0.1379
     10 C         -23.1374   -7.6084  -12.2415 C.ar    1  UNL1        0.0865
     11 C         -26.2112   -8.2321  -10.5539 C.ar    1  UNL1        0.1113
     12 N         -27.5047   -8.4294  -10.8821 N.ar    1  UNL1       -0.1711
     13 N         -27.7272   -7.8159  -12.0349 N.ar    1  UNL1       -0.2490
     14 C         -29.0342   -7.7856  -12.6821 C.3     1  UNL1        0.1537
     15 C         -26.5898   -7.2266  -12.4667 C.ar    1  UNL1        0.0806
     16 C         -25.5983   -7.4682  -11.5327 C.ar    1  UNL1        0.0545
     17 C         -26.4670   -6.3867  -13.6749 C.ar    1  UNL1        0.0174
     18 C         -25.5494   -6.7257  -14.6804 C.ar    1  UNL1        0.0012
     19 C         -25.4443   -5.9416  -15.8327 C.ar    1  UNL1       -0.0042
     20 C         -26.2641   -4.8152  -15.9991 C.ar    1  UNL1       -0.0218
     21 C         -26.1242   -3.9521  -17.2177 C.3     1  UNL1        0.0310
     22 C         -27.1673   -4.4647  -14.9843 C.ar    1  UNL1       -0.0042
     23 C         -27.2723   -5.2494  -13.8323 C.ar    1  UNL1        0.0012
     24 C         -25.5391   -8.8437   -9.3579 C.3     1  UNL1        0.1894
     25 C         -25.5023  -10.9774   -8.4516 C.3     1  UNL1        0.1747
     26 O         -26.3228   -9.8879   -8.8115 O.3     1  UNL1       -0.3446
     27 N         -23.8973   -9.8481  -13.0087 N.pl3   1  UNL1       -0.2917
     28 C         -23.9628  -10.8716  -11.9726 C.3     1  UNL1        0.0937
     29 C         -24.5717  -12.1034  -12.6330 C.3     1  UNL1        0.0391
     30 C         -25.2504  -11.5695  -13.9014 C.3     1  UNL1        0.0790
     31 C         -24.4720  -10.3028  -14.2649 C.3     1  UNL1        0.1081
     32 N         -25.3916  -12.5548  -15.0087 N.3     1  UNL1       -0.2723
     33 C         -24.3717  -12.4746  -16.0885 C.3     1  UNL1        0.0721
     34 C         -24.2982  -13.7654  -16.9122 C.3     1  UNL1        0.0174
     35 C         -23.9184  -14.9663  -16.0344 C.3     1  UNL1        0.0029
     36 C         -24.4607  -14.8541  -14.5994 C.3     1  UNL1        0.0174
     37 C         -25.6827  -13.9279  -14.5198 C.3     1  UNL1        0.0721
@<TRIPOS>BOND
     1    25    26    1
     2    26    24    1
     3    24    11    1
     4    11    12   ar
     5    12    13   ar
     6    13    14    1
     7    13    15   ar
     8    15    17    1
     9    17    18   ar
    10    18    19   ar
    11    19    20   ar
    12    20    21    1
    13    20    22   ar
    14    22    23   ar
    15    15    16   ar
    16    16     1    1
    17     1     2   ar
    18     2     3   ar
    19     3     4    1
    20     3     5   ar
    21     5     6   ar
    22     6     7   ar
    23     7     8   ar
    24     8     9   ar
    25     9    27    1
    26    27    28    1
    27    28    29    1
    28    29    30    1
    29    30    32    1
    30    32    33    1
    31    33    34    1
    32    34    35    1
    33    35    36    1
    34    36    37    1
    35    30    31    1
    36     9    10   ar
    37    16    11   ar
    38    10     1   ar
    39    23    17   ar
    40    10     5   ar
    41    31    27    1
    42    37    32    1
@<TRIPOS>MOLECULE
*****
 37 42 0 0 0
SMALL
GASTEIGER

@<TRIPOS>ATOM
      1 C         -24.0652  -10.6226  -11.9156 C.ar    1  UNL1        0.1093
      2 N         -24.4754  -11.0810  -10.7067 N.ar    1  UNL1       -0.1677
      3 N         -25.1401  -10.1055  -10.0993 N.ar    1  UNL1       -0.2319
      4 C         -25.8141  -10.2485   -8.8159 C.3     1  UNL1        0.1554
      5 C         -25.1897   -9.0488  -10.9244 C.ar    1  UNL1        0.1654
      6 N         -25.8599   -7.8889  -10.7239 N.ar    1  UNL1       -0.2050
      7 C         -25.8289   -6.9489  -11.7131 C.ar    1  UNL1        0.2014
      8 N         -25.1272   -7.1776  -12.8673 N.ar    1  UNL1       -0.2089
      9 C         -24.4502   -8.3463  -13.0804 C.ar    1  UNL1        0.1379
     10 C         -24.5111   -9.3160  -12.0745 C.ar    1  UNL1        0.0865
     11 C         -24.0367  -11.9811  -14.0811 C.ar    1  UNL1        0.1113
     12 N         -23.1440  -12.7375  -14.7524 N.ar    1  UNL1       -0.1711
     13 N         -22.0144  -12.7392  -14.0605 N.ar    1  UNL1       -0.2490
     14 C         -20.8087  -13.4298  -14.5050 C.3     1  UNL1        0.1537
     15 C         -22.1630  -11.9978  -12.9398 C.ar    1  UNL1        0.0806
     16 C         -23.4496  -11.4894  -12.9276 C.ar    1  UNL1        0.0545
     17 C         -21.0976  -11.7049  -11.9603 C.ar    1  UNL1        0.0174
     18 C         -20.2916  -12.7397  -11.4630 C.ar    1  UNL1        0.0012
     19 C         -19.2712  -12.4616  -10.5492 C.ar    1  UNL1       -0.0042
     20 C         -19.0366  -11.1433  -10.1304 C.ar    1  UNL1       -0.0218
     21 C         -17.9670  -10.8502   -9.1205 C.3     1  UNL1        0.0310
     22 C         -19.8559  -10.1113  -10.6121 C.ar    1  UNL1       -0.0042
     23 C         -20.8760  -10.3899  -11.5264 C.ar    1  UNL1        0.0012
     24 C         -25.4704  -11.8005  -14.4912 C.3     1  UNL1        0.1894
     25 C         -26.1024  -13.8933  -13.7192 C.3     1  UNL1        0.1747
     26 O         -26.0602  -13.0386  -14.8405 O.3     1  UNL1       -0.3446
     27 N         -23.6508   -8.5032  -14.2612 N.pl3   1  UNL1       -0.2917
     28 C         -22.2109   -8.2758  -14.2473 C.3     1  UNL1        0.0937
     29 C         -21.8308   -7.8853  -15.6710 C.3     1  UNL1        0.0391
     30 C         -23.0088   -8.3596  -16.5323 C.3     1  UNL1        0.0790
     31 C         -24.2166   -8.3509  -15.5922 C.3     1  UNL1        0.1081
     32 N         -23.2043   -7.6146  -17.8066 N.3     1  UNL1       -0.2723
     33 C         -24.1256   -8.2388  -18.7935 C.3     1  UNL1        0.0721
     34 C         -24.6298   -7.2309  -19.8326 C.3     1  UNL1        0.0174
     35 C         -25.4058   -6.0852  -19.1674 C.3     1  UNL1        0.0029
     36 C         -24.8703   -5.7321  -17.7694 C.3     1  UNL1        0.0174
     37 C         -23.4056   -6.1575  -17.5929 C.3     1  UNL1        0.0721
@<TRIPOS>BOND
     1    25    26    1
     2    26    24    1
     3    24    11    1
     4    11    12   ar
     5    12    13   ar
     6    13    14    1
     7    13    15   ar
     8    15    17    1
     9    17    18   ar
    10    18    19   ar
    11    19    20   ar
    12    20    21    1
    13    20    22   ar
    14    22    23   ar
    15    15    16   ar
    16    16     1    1
    17     1     2   ar
    18     2     3   ar
    19     3     4    1
    20     3     5   ar
    21     5     6   ar
    22     6     7   ar
    23     7     8   ar
    24     8     9   ar
    25     9    27    1
    26    27    28    1
    27    28    29    1
    28    29    30    1
    29    30    32    1
    30    32    33    1
    31    33    34    1
    32    34    35    1
    33    35    36    1
    34    36    37    1
    35    30    31    1
    36     9    10   ar
    37    16    11   ar
    38    10     1   ar
    39    23    17   ar
    40    10     5   ar
    41    31    27    1
    42    37    32    1
@<TRIPOS>MOLECULE
*****
 37 42 0 0 0
SMALL
GASTEIGER

@<TRIPOS>ATOM
      1 C         -26.0755   -6.0594  -14.2996 C.ar    1  UNL1        0.1093
      2 N         -26.7207   -4.9292  -14.6820 N.ar    1  UNL1       -0.1677
      3 N         -26.2113   -4.5360  -15.8432 N.ar    1  UNL1       -0.2319
      4 C         -26.7107   -3.4076  -16.6172 C.3     1  UNL1        0.1554
      5 C         -25.2793   -5.4245  -16.2197 C.ar    1  UNL1        0.1654
      6 N         -24.5957   -5.4427  -17.3890 N.ar    1  UNL1       -0.2050
      7 C         -23.7206   -6.4674  -17.6065 C.ar    1  UNL1        0.2014
      8 N         -23.5380   -7.4385  -16.6577 N.ar    1  UNL1       -0.2089
      9 C         -24.2255   -7.4308  -15.4758 C.ar    1  UNL1        0.1379
     10 C         -25.1416   -6.3936  -15.2729 C.ar    1  UNL1        0.0865
     11 C         -27.6463   -7.6307  -13.0349 C.ar    1  UNL1        0.1113
     12 N         -27.6733   -8.2243  -11.8239 N.ar    1  UNL1       -0.1711
     13 N         -26.5810   -7.8583  -11.1700 N.ar    1  UNL1       -0.2490
     14 C         -26.2546   -8.3391   -9.8319 C.3     1  UNL1        0.1537
     15 C         -25.8447   -7.0251  -11.9390 C.ar    1  UNL1        0.0806
     16 C         -26.4981   -6.8652  -13.1479 C.ar    1  UNL1        0.0545
     17 C         -24.5239   -6.4719  -11.5789 C.ar    1  UNL1        0.0174
     18 C         -24.2356   -5.1200  -11.8178 C.ar    1  UNL1        0.0012
     19 C         -22.9921   -4.5905  -11.4615 C.ar    1  UNL1       -0.0042
     20 C         -22.0257   -5.4038  -10.8507 C.ar    1  UNL1       -0.0218
     21 C         -20.6777   -4.8450  -10.5037 C.3     1  UNL1        0.0310
     22 C         -22.3067   -6.7605  -10.6304 C.ar    1  UNL1       -0.0042
     23 C         -23.5506   -7.2895  -10.9866 C.ar    1  UNL1        0.0012
     24 C         -28.7534   -7.7209  -14.0461 C.3     1  UNL1        0.1894
     25 C         -29.8030   -6.0085  -15.2042 C.3     1  UNL1        0.1747
     26 O         -29.6296   -6.6145  -13.9423 O.3     1  UNL1       -0.3446
     27 N         -23.9319   -8.4131  -14.4725 N.pl3   1  UNL1       -0.2917
     28 C         -22.5931   -8.5623  -13.9150 C.3     1  UNL1        0.0937
     29 C         -22.4902  -10.0084  -13.4437 C.3     1  UNL1        0.0391
     30 C         -23.9439  -10.4880  -13.3386 C.3     1  UNL1        0.0790
     31 C         -24.7186   -9.6292  -14.3411 C.3     1  UNL1        0.1081
     32 N         -24.1410  -11.9560  -13.4909 N.3     1  UNL1       -0.2723
     33 C         -25.4909  -12.3908  -13.9391 C.3     1  UNL1        0.0721
     34 C         -25.4808  -13.8136  -14.5096 C.3     1  UNL1        0.0174
     35 C         -24.5553  -13.9186  -15.7301 C.3     1  UNL1        0.0029
     36 C         -23.3354  -12.9863  -15.6381 C.3     1  UNL1        0.0174
     37 C         -23.0050  -12.6172  -14.1848 C.3     1  UNL1        0.0721
@<TRIPOS>BOND
     1    25    26    1
     2    26    24    1
     3    24    11    1
     4    11    12   ar
     5    12    13   ar
     6    13    14    1
     7    13    15   ar
     8    15    17    1
     9    17    18   ar
    10    18    19   ar
    11    19    20   ar
    12    20    21    1
    13    20    22   ar
    14    22    23   ar
    15    15    16   ar
    16    16     1    1
    17     1     2   ar
    18     2     3   ar
    19     3     4    1
    20     3     5   ar
    21     5     6   ar
    22     6     7   ar
    23     7     8   ar
    24     8     9   ar
    25     9    27    1
    26    27    28    1
    27    28    29    1
    28    29    30    1
    29    30    32    1
    30    32    33    1
    31    33    34    1
    32    34    35    1
    33    35    36    1
    34    36    37    1
    35    30    31    1
    36     9    10   ar
    37    16    11   ar
    38    10     1   ar
    39    23    17   ar
    40    10     5   ar
    41    31    27    1
    42    37    32    1
@<TRIPOS>MOLECULE
*****
 37 42 0 0 0
SMALL
GASTEIGER

@<TRIPOS>ATOM
      1 C         -21.6960  -11.3426  -13.0806 C.ar    1  UNL1        0.1093
      2 N         -20.8352  -12.1144  -13.7901 N.ar    1  UNL1       -0.1677
      3 N         -21.5267  -13.1048  -14.3408 N.ar    1  UNL1       -0.2319
      4 C         -20.9624  -14.0903  -15.2529 C.3     1  UNL1        0.1554
      5 C         -22.8202  -12.9473  -14.0213 C.ar    1  UNL1        0.1654
      6 N         -23.8652  -13.6861  -14.4652 N.ar    1  UNL1       -0.2050
      7 C         -25.1204  -13.3322  -14.0621 C.ar    1  UNL1        0.2014
      8 N         -25.3057  -12.2653  -13.2230 N.ar    1  UNL1       -0.2089
      9 C         -24.2578  -11.5115  -12.7721 C.ar    1  UNL1        0.1379
     10 C         -22.9779  -11.8627  -13.2130 C.ar    1  UNL1        0.0865
     11 C         -20.6720   -9.8612  -11.2661 C.ar    1  UNL1        0.1113
     12 N         -20.4812   -8.5401  -11.0708 N.ar    1  UNL1       -0.1711
     13 N         -20.9736   -7.9011  -12.1215 N.ar    1  UNL1       -0.2490
     14 C         -20.9108   -6.4516  -12.2739 C.3     1  UNL1        0.1537
     15 C         -21.4913   -8.7912  -12.9974 C.ar    1  UNL1        0.0806
     16 C         -21.3057  -10.0611  -12.4809 C.ar    1  UNL1        0.0545
     17 C         -22.0597   -8.4593  -14.3191 C.ar    1  UNL1        0.0174
     18 C         -23.3344   -7.8816  -14.4148 C.ar    1  UNL1        0.0012
     19 C         -23.8666   -7.5505  -15.6642 C.ar    1  UNL1       -0.0042
     20 C         -23.1255   -7.7824  -16.8327 C.ar    1  UNL1       -0.0218
     21 C         -23.7123   -7.4629  -18.1756 C.3     1  UNL1        0.0310
     22 C         -21.8592   -8.3789  -16.7383 C.ar    1  UNL1       -0.0042
     23 C         -21.3272   -8.7094  -15.4886 C.ar    1  UNL1        0.0012
     24 C         -20.3328  -10.9228  -10.2591 C.3     1  UNL1        0.1894
     25 C         -18.2571  -10.6888   -9.2533 C.3     1  UNL1        0.1747
     26 O         -18.9628  -11.2707  -10.3272 O.3     1  UNL1       -0.3446
     27 N         -24.4894  -10.4642  -11.8195 N.pl3   1  UNL1       -0.2917
     28 C         -24.9985  -10.7437  -10.4824 C.3     1  UNL1        0.0937
     29 C         -25.7161   -9.4771  -10.0299 C.3     1  UNL1        0.0391
     30 C         -25.1808   -8.3753  -10.9540 C.3     1  UNL1        0.0790
     31 C         -24.7684   -9.0995  -12.2377 C.3     1  UNL1        0.1081
     32 N         -26.0943   -7.2170  -11.1567 N.3     1  UNL1       -0.2723
     33 C         -25.5186   -6.0491  -11.8756 C.3     1  UNL1        0.0721
     34 C         -26.6035   -5.1277  -12.4449 C.3     1  UNL1        0.0174
     35 C         -27.4943   -5.8703  -13.4510 C.3     1  UNL1        0.0029
     36 C         -27.6798   -7.3570  -13.1028 C.3     1  UNL1        0.0174
     37 C         -27.4489   -7.6286  -11.6093 C.3     1  UNL1        0.0721
@<TRIPOS>BOND
     1    25    26    1
     2    26    24    1
     3    24    11    1
     4    11    12   ar
     5    12    13   ar
     6    13    14    1
     7    13    15   ar
     8    15    17    1
     9    17    18   ar
    10    18    19   ar
    11    19    20   ar
    12    20    21    1
    13    20    22   ar
    14    22    23   ar
    15    15    16   ar
    16    16     1    1
    17     1     2   ar
    18     2     3   ar
    19     3     4    1
    20     3     5   ar
    21     5     6   ar
    22     6     7   ar
    23     7     8   ar
    24     8     9   ar
    25     9    27    1
    26    27    28    1
    27    28    29    1
    28    29    30    1
    29    30    32    1
    30    32    33    1
    31    33    34    1
    32    34    35    1
    33    35    36    1
    34    36    37    1
    35    30    31    1
    36     9    10   ar
    37    16    11   ar
    38    10     1   ar
    39    23    17   ar
    40    10     5   ar
    41    31    27    1
    42    37    32    1
@<TRIPOS>MOLECULE
*****
 37 42 0 0 0
SMALL
GASTEIGER

@<TRIPOS>ATOM
      1 C         -23.6206   -9.7766  -14.3559 C.ar    1  UNL1        0.1093
      2 N         -24.1549  -10.4732  -15.3899 N.ar    1  UNL1       -0.1677
      3 N         -23.4151  -10.2438  -16.4680 N.ar    1  UNL1       -0.2319
      4 C         -23.6218  -10.8906  -17.7567 C.3     1  UNL1        0.1554
      5 C         -22.3967   -9.4425  -16.1205 C.ar    1  UNL1        0.1654
      6 N         -21.3622   -9.0531  -16.9034 N.ar    1  UNL1       -0.2050
      7 C         -20.3916   -8.2722  -16.3454 C.ar    1  UNL1        0.2014
      8 N         -20.4771   -7.8893  -15.0329 N.ar    1  UNL1       -0.2089
      9 C         -21.5157   -8.2797  -14.2336 C.ar    1  UNL1        0.1379
     10 C         -22.4907   -9.1037  -14.8049 C.ar    1  UNL1        0.0865
     11 C         -23.5784  -10.7927  -12.0103 C.ar    1  UNL1        0.1113
     12 N         -24.2663  -10.6346  -10.8607 N.ar    1  UNL1       -0.1711
     13 N         -25.1855   -9.7029  -11.0647 N.ar    1  UNL1       -0.2490
     14 C         -26.0976   -9.2420  -10.0236 C.3     1  UNL1        0.1537
     15 C         -25.1100   -9.2566  -12.3385 C.ar    1  UNL1        0.0806
     16 C         -24.0810   -9.9313  -12.9707 C.ar    1  UNL1        0.0545
     17 C         -25.9222   -8.1649  -12.9120 C.ar    1  UNL1        0.0174
     18 C         -25.3552   -6.8995  -13.1244 C.ar    1  UNL1        0.0012
     19 C         -26.1176   -5.8700  -13.6834 C.ar    1  UNL1       -0.0042
     20 C         -27.4533   -6.0967  -14.0481 C.ar    1  UNL1       -0.0218
     21 C         -28.2825   -4.9813  -14.6121 C.3     1  UNL1        0.0310
     22 C         -28.0261   -7.3563  -13.8168 C.ar    1  UNL1       -0.0042
     23 C         -27.2632   -8.3858  -13.2581 C.ar    1  UNL1        0.0012
     24 C         -22.5058  -11.8233  -12.2194 C.3     1  UNL1        0.1894
     25 C         -21.5068  -12.8108  -14.0639 C.3     1  UNL1        0.1747
     26 O         -22.7298  -12.5579  -13.4081 O.3     1  UNL1       -0.3446
     27 N         -21.6140   -7.7764  -12.8939 N.pl3   1  UNL1       -0.2917
     28 C         -21.8813   -6.3693  -12.6219 C.3     1  UNL1        0.0937
     29 C         -21.2821   -6.0827  -11.2497 C.3     1  UNL1        0.0391
     30 C         -21.1054   -7.4643  -10.6060 C.3     1  UNL1        0.0790
     31 C         -20.9461   -8.4322  -11.7808 C.3     1  UNL1        0.1081
     32 N         -20.0346   -7.5523   -9.5751 N.3     1  UNL1       -0.2723
     33 C         -20.4929   -7.6375   -8.1627 C.3     1  UNL1        0.0721
     34 C         -19.4033   -8.1831   -7.2326 C.3     1  UNL1        0.0174
     35 C         -18.9761   -9.5991   -7.6444 C.3     1  UNL1        0.0029
     36 C         -19.0481   -9.8279   -9.1638 C.3     1  UNL1        0.0174
     37 C         -18.9599   -8.5098   -9.9462 C.3     1  UNL1        0.0721
@<TRIPOS>BOND
     1    25    26    1
     2    26    24    1
     3    24    11    1
     4    11    12   ar
     5    12    13   ar
     6    13    14    1
     7    13    15   ar
     8    15    17    1
     9    17    18   ar
    10    18    19   ar
    11    19    20   ar
    12    20    21    1
    13    20    22   ar
    14    22    23   ar
    15    15    16   ar
    16    16     1    1
    17     1     2   ar
    18     2     3   ar
    19     3     4    1
    20     3     5   ar
    21     5     6   ar
    22     6     7   ar
    23     7     8   ar
    24     8     9   ar
    25     9    27    1
    26    27    28    1
    27    28    29    1
    28    29    30    1
    29    30    32    1
    30    32    33    1
    31    33    34    1
    32    34    35    1
    33    35    36    1
    34    36    37    1
    35    30    31    1
    36     9    10   ar
    37    16    11   ar
    38    10     1   ar
    39    23    17   ar
    40    10     5   ar
    41    31    27    1
    42    37    32    1
@<TRIPOS>MOLECULE
*****
 37 42 0 0 0
SMALL
GASTEIGER

@<TRIPOS>ATOM
      1 C         -24.7923   -6.8974  -14.7001 C.ar    1  UNL1        0.1093
      2 N         -25.3160   -5.7224  -15.1302 N.ar    1  UNL1       -0.1677
      3 N         -26.5542   -5.6263  -14.6611 N.ar    1  UNL1       -0.2319
      4 C         -27.4084   -4.4594  -14.8355 C.3     1  UNL1        0.1554
      5 C         -26.8069   -6.7069  -13.9072 C.ar    1  UNL1        0.1654
      6 N         -27.9179   -6.9445  -13.1697 N.ar    1  UNL1       -0.2050
      7 C         -27.9630   -8.0871  -12.4243 C.ar    1  UNL1        0.2014
      8 N         -26.9134   -8.9675  -12.4380 N.ar    1  UNL1       -0.2089
      9 C         -25.7864   -8.7351  -13.1766 C.ar    1  UNL1        0.1379
     10 C         -25.7360   -7.5481  -13.9145 C.ar    1  UNL1        0.0865
     11 C         -22.3943   -7.3125  -13.9167 C.ar    1  UNL1        0.1113
     12 N         -21.2279   -7.6836  -14.4837 N.ar    1  UNL1       -0.1711
     13 N         -21.4463   -7.8610  -15.7782 N.ar    1  UNL1       -0.2490
     14 C         -20.4122   -8.3028  -16.7075 C.3     1  UNL1        0.1537
     15 C         -22.7420   -7.6016  -16.0636 C.ar    1  UNL1        0.0806
     16 C         -23.3808   -7.2544  -14.8866 C.ar    1  UNL1        0.0545
     17 C         -23.3757   -7.7650  -17.3872 C.ar    1  UNL1        0.0174
     18 C         -23.9872   -6.6710  -18.0173 C.ar    1  UNL1        0.0012
     19 C         -24.5721   -6.8198  -19.2780 C.ar    1  UNL1       -0.0042
     20 C         -24.5423   -8.0621  -19.9294 C.ar    1  UNL1       -0.0218
     21 C         -25.2037   -8.2311  -21.2650 C.3     1  UNL1        0.0310
     22 C         -23.9487   -9.1609  -19.2903 C.ar    1  UNL1       -0.0042
     23 C         -23.3635   -9.0115  -18.0297 C.ar    1  UNL1        0.0012
     24 C         -22.5485   -6.9279  -12.4729 C.3     1  UNL1        0.1894
     25 C         -21.6454   -5.1841  -11.2404 C.3     1  UNL1        0.1747
     26 O         -21.3559   -6.3578  -11.9673 O.3     1  UNL1       -0.3446
     27 N         -24.7542   -9.7295  -13.2362 N.pl3   1  UNL1       -0.2917
     28 C         -25.0307  -11.0962  -13.6617 C.3     1  UNL1        0.0937
     29 C         -23.9684  -11.9676  -13.0013 C.3     1  UNL1        0.0391
     30 C         -22.8574  -10.9890  -12.5985 C.3     1  UNL1        0.0790
     31 C         -23.5632   -9.6446  -12.4059 C.3     1  UNL1        0.1081
     32 N         -22.0153  -11.4221  -11.4495 N.3     1  UNL1       -0.2723
     33 C         -20.7579  -12.1380  -11.7943 C.3     1  UNL1        0.0721
     34 C         -19.7524  -12.1317  -10.6372 C.3     1  UNL1        0.0174
     35 C         -19.3539  -10.6998  -10.2523 C.3     1  UNL1        0.0029
     36 C         -20.4961   -9.6880  -10.4464 C.3     1  UNL1        0.0174
     37 C         -21.8734  -10.3659  -10.4133 C.3     1  UNL1        0.0721
@<TRIPOS>BOND
     1    25    26    1
     2    26    24    1
     3    24    11    1
     4    11    12   ar
     5    12    13   ar
     6    13    14    1
     7    13    15   ar
     8    15    17    1
     9    17    18   ar
    10    18    19   ar
    11    19    20   ar
    12    20    21    1
    13    20    22   ar
    14    22    23   ar
    15    15    16   ar
    16    16     1    1
    17     1     2   ar
    18     2     3   ar
    19     3     4    1
    20     3     5   ar
    21     5     6   ar
    22     6     7   ar
    23     7     8   ar
    24     8     9   ar
    25     9    27    1
    26    27    28    1
    27    28    29    1
    28    29    30    1
    29    30    32    1
    30    32    33    1
    31    33    34    1
    32    34    35    1
    33    35    36    1
    34    36    37    1
    35    30    31    1
    36     9    10   ar
    37    16    11   ar
    38    10     1   ar
    39    23    17   ar
    40    10     5   ar
    41    31    27    1
    42    37    32    1
@<TRIPOS>MOLECULE
*****
 37 42 0 0 0
SMALL
GASTEIGER

@<TRIPOS>ATOM
      1 C         -24.3837   -8.7311  -11.4649 C.ar    1  UNL1        0.1093
      2 N         -25.6856   -9.0051  -11.7291 N.ar    1  UNL1       -0.1677
      3 N         -26.3089   -7.8573  -11.9669 N.ar    1  UNL1       -0.2319
      4 C         -27.7020   -7.7512  -12.3787 C.3     1  UNL1        0.1554
      5 C         -25.4098   -6.8641  -11.8954 C.ar    1  UNL1        0.1654
      6 N         -25.6183   -5.5544  -12.1713 N.ar    1  UNL1       -0.2050
      7 C         -24.5551   -4.7025  -12.0888 C.ar    1  UNL1        0.2014
      8 N         -23.3188   -5.1674  -11.7253 N.ar    1  UNL1       -0.2089
      9 C         -23.0974   -6.4879  -11.4480 C.ar    1  UNL1        0.1379
     10 C         -24.1854   -7.3591  -11.5631 C.ar    1  UNL1        0.0865
     11 C         -22.9207  -10.3678  -10.1547 C.ar    1  UNL1        0.1113
     12 N         -21.9780  -11.2883  -10.4440 N.ar    1  UNL1       -0.1711
     13 N         -21.8115  -11.2971  -11.7581 N.ar    1  UNL1       -0.2490
     14 C         -20.8898  -12.2002  -12.4386 C.3     1  UNL1        0.1537
     15 C         -22.6305  -10.3857  -12.3293 C.ar    1  UNL1        0.0806
     16 C         -23.3633   -9.7770  -11.3261 C.ar    1  UNL1        0.0545
     17 C         -22.7814  -10.1622  -13.7810 C.ar    1  UNL1        0.0174
     18 C         -23.6971  -10.9244  -14.5215 C.ar    1  UNL1        0.0012
     19 C         -23.8538  -10.7020  -15.8925 C.ar    1  UNL1       -0.0042
     20 C         -23.1051   -9.7063  -16.5378 C.ar    1  UNL1       -0.0218
     21 C         -23.2452   -9.4941  -18.0160 C.3     1  UNL1        0.0310
     22 C         -22.1746   -8.9580  -15.8012 C.ar    1  UNL1       -0.0042
     23 C         -22.0185   -9.1805  -14.4300 C.ar    1  UNL1        0.0012
     24 C         -23.3339   -9.9893   -8.7611 C.3     1  UNL1        0.1894
     25 C         -25.5030  -10.7809   -8.5517 C.3     1  UNL1        0.1747
     26 O         -24.7022   -9.6311   -8.7149 O.3     1  UNL1       -0.3446
     27 N         -21.8102   -6.9129  -10.9785 N.pl3   1  UNL1       -0.2917
     28 C         -20.8282   -7.5131  -11.8732 C.3     1  UNL1        0.0937
     29 C         -19.9437   -8.3953  -10.9995 C.3     1  UNL1        0.0391
     30 C         -20.1826   -7.8915   -9.5700 C.3     1  UNL1        0.0790
     31 C         -21.5896   -7.2895   -9.5912 C.3     1  UNL1        0.1081
     32 N         -19.9493   -8.8955   -8.4955 N.3     1  UNL1       -0.2723
     33 C         -18.6773   -9.6616   -8.5821 C.3     1  UNL1        0.0721
     34 C         -18.2977  -10.3064   -7.2442 C.3     1  UNL1        0.0174
     35 C         -18.1015   -9.2470   -6.1503 C.3     1  UNL1        0.0029
     36 C         -19.0262   -8.0300   -6.3230 C.3     1  UNL1        0.0174
     37 C         -20.2779   -8.3736   -7.1431 C.3     1  UNL1        0.0721
@<TRIPOS>BOND
     1    25    26    1
     2    26    24    1
     3    24    11    1
     4    11    12   ar
     5    12    13   ar
     6    13    14    1
     7    13    15   ar
     8    15    17    1
     9    17    18   ar
    10    18    19   ar
    11    19    20   ar
    12    20    21    1
    13    20    22   ar
    14    22    23   ar
    15    15    16   ar
    16    16     1    1
    17     1     2   ar
    18     2     3   ar
    19     3     4    1
    20     3     5   ar
    21     5     6   ar
    22     6     7   ar
    23     7     8   ar
    24     8     9   ar
    25     9    27    1
    26    27    28    1
    27    28    29    1
    28    29    30    1
    29    30    32    1
    30    32    33    1
    31    33    34    1
    32    34    35    1
    33    35    36    1
    34    36    37    1
    35    30    31    1
    36     9    10   ar
    37    16    11   ar
    38    10     1   ar
    39    23    17   ar
    40    10     5   ar
    41    31    27    1
    42    37    32    1
@<TRIPOS>MOLECULE
*****
 37 42 0 0 0
SMALL
GASTEIGER

@<TRIPOS>ATOM
      1 C         -21.6331  -10.2407  -11.8830 C.ar    1  UNL1        0.1093
      2 N         -21.1385  -10.5153  -10.6502 N.ar    1  UNL1       -0.1677
      3 N         -20.6230   -9.3972  -10.1539 N.ar    1  UNL1       -0.2319
      4 C         -20.0779   -9.2724   -8.8089 C.3     1  UNL1        0.1554
      5 C         -20.8200   -8.4097  -11.0404 C.ar    1  UNL1        0.1654
      6 N         -20.5329   -7.0963  -10.8747 N.ar    1  UNL1       -0.2050
      7 C         -20.8592   -6.2346  -11.8818 C.ar    1  UNL1        0.2014
      8 N         -21.4495   -6.6972  -13.0282 N.ar    1  UNL1       -0.2089
      9 C         -21.7462   -8.0204  -13.2037 C.ar    1  UNL1        0.1379
     10 C         -21.4354   -8.8923  -12.1552 C.ar    1  UNL1        0.0865
     11 C         -21.9899  -12.3781  -13.2395 C.ar    1  UNL1        0.1113
     12 N         -23.0241  -12.9880  -13.8544 N.ar    1  UNL1       -0.1711
     13 N         -24.1006  -12.2372  -13.6751 N.ar    1  UNL1       -0.2490
     14 C         -25.4210  -12.6052  -14.1745 C.3     1  UNL1        0.1537
     15 C         -23.7780  -11.1389  -12.9560 C.ar    1  UNL1        0.0806
     16 C         -22.4297  -11.2036  -12.6528 C.ar    1  UNL1        0.0545
     17 C         -24.7299  -10.1094  -12.4931 C.ar    1  UNL1        0.0174
     18 C         -24.8589   -9.8314  -11.1242 C.ar    1  UNL1        0.0012
     19 C         -25.7468   -8.8450  -10.6856 C.ar    1  UNL1       -0.0042
     20 C         -26.5080   -8.1160  -11.6116 C.ar    1  UNL1       -0.0218
     21 C         -27.4888   -7.0846  -11.1385 C.3     1  UNL1        0.0310
     22 C         -26.3938   -8.4082  -12.9791 C.ar    1  UNL1       -0.0042
     23 C         -25.5055   -9.3945  -13.4173 C.ar    1  UNL1        0.0012
     24 C         -20.5702  -12.8667  -13.2868 C.3     1  UNL1        0.1894
     25 C         -19.3592  -13.2469  -11.3467 C.3     1  UNL1        0.1747
     26 O         -20.3113  -13.7823  -12.2393 O.3     1  UNL1       -0.3446
     27 N         -22.2754   -8.4733  -14.4577 N.pl3   1  UNL1       -0.2917
     28 C         -21.6599   -9.5676  -15.1985 C.3     1  UNL1        0.0937
     29 C         -22.0188   -9.3414  -16.6628 C.3     1  UNL1        0.0391
     30 C         -23.2121   -8.3776  -16.6266 C.3     1  UNL1        0.0790
     31 C         -23.0523   -7.5968  -15.3198 C.3     1  UNL1        0.1081
     32 N         -23.3837   -7.5333  -17.8410 N.3     1  UNL1       -0.2723
     33 C         -24.3073   -8.0630  -18.8797 C.3     1  UNL1        0.0721
     34 C         -24.7850   -6.9691  -19.8415 C.3     1  UNL1        0.0174
     35 C         -25.5464   -5.8641  -19.0956 C.3     1  UNL1        0.0029
     36 C         -25.0167   -5.6294  -17.6707 C.3     1  UNL1        0.0174
     37 C         -23.5612   -6.0936  -17.5171 C.3     1  UNL1        0.0721
@<TRIPOS>BOND
     1    25    26    1
     2    26    24    1
     3    24    11    1
     4    11    12   ar
     5    12    13   ar
     6    13    14    1
     7    13    15   ar
     8    15    17    1
     9    17    18   ar
    10    18    19   ar
    11    19    20   ar
    12    20    21    1
    13    20    22   ar
    14    22    23   ar
    15    15    16   ar
    16    16     1    1
    17     1     2   ar
    18     2     3   ar
    19     3     4    1
    20     3     5   ar
    21     5     6   ar
    22     6     7   ar
    23     7     8   ar
    24     8     9   ar
    25     9    27    1
    26    27    28    1
    27    28    29    1
    28    29    30    1
    29    30    32    1
    30    32    33    1
    31    33    34    1
    32    34    35    1
    33    35    36    1
    34    36    37    1
    35    30    31    1
    36     9    10   ar
    37    16    11   ar
    38    10     1   ar
    39    23    17   ar
    40    10     5   ar
    41    31    27    1
    42    37    32    1
