@<TRIPOS>MOLECULE
*****
 52 57 0 0 0
SMALL
GASTEIGER

@<TRIPOS>ATOM
      1 C          10.5417   79.4383   25.7677 C.ar    1  UNL1        0.0502
      2 C          10.3248   80.8235   25.8052 C.ar    1  UNL1        0.0148
      3 C          11.3191   81.7066   25.3782 C.ar    1  UNL1        0.0080
      4 C          12.5572   81.2260   24.9154 C.ar    1  UNL1        0.0808
      5 C          12.7724   79.8312   24.8794 C.ar    1  UNL1        0.1457
      6 F          13.9229   79.3040   24.3924 F       1  UNL1       -0.2040
      7 C          11.7717   78.9522   25.3036 C.ar    1  UNL1        0.0443
      8 N           7.9282   76.5499   27.3413 N.pl3   1  UNL1       -0.2897
      9 C           8.9483   76.1431   26.3657 C.3     1  UNL1        0.1136
     10 C           9.2552   77.3027   25.4201 C.3     1  UNL1        0.1123
     11 N           9.5165   78.5218   26.1942 N.pl3   1  UNL1       -0.3040
     12 C           8.5124   78.9349   27.1819 C.3     1  UNL1        0.1123
     13 C           8.1806   77.7698   28.1177 C.3     1  UNL1        0.1136
     14 C           5.0749   75.0223   29.2428 C.ar    1  UNL1        0.0155
     15 C           6.0186   75.9575   28.7893 C.ar    1  UNL1        0.0324
     16 C           6.9444   75.6050   27.8013 C.ar    1  UNL1        0.1315
     17 N           6.9303   74.3442   27.2966 N.ar    1  UNL1       -0.2292
     18 C           6.0312   73.4115   27.7001 C.ar    1  UNL1        0.1039
     19 C           5.0664   73.7172   28.6796 C.ar    1  UNL1        0.0890
     20 C           4.0582   72.6625   29.0954 C.3     1  UNL1        0.4198
     21 F           2.7745   72.9893   28.6922 F       1  UNL1       -0.1658
     22 F           4.0527   72.5400   30.4732 F       1  UNL1       -0.1658
     23 F           4.3867   71.4468   28.5242 F       1  UNL1       -0.1658
     24 C           4.1074   75.4723   30.3207 C.3     1  UNL1        0.1688
     25 C           3.9276   77.7617   30.6342 C.3     1  UNL1        0.1746
     26 O           3.4246   76.6481   29.9285 O.3     1  UNL1       -0.3463
     27 C          13.5775   82.1910   24.4320 C.2     1  UNL1        0.2483
     28 O          14.8011   81.9141   24.5674 O.2     1  UNL1       -0.2701
     29 N          13.1988   83.4268   23.8061 N.am    1  UNL1       -0.2945
     30 H          12.2437   83.4935   23.3894 H       1  UNL1        0.1501
     31 C          14.1460   84.5399   23.6394 C.3     1  UNL1        0.1535
     32 C          14.7646   84.5382   22.2603 C.2     1  UNL1        0.2443
     33 O          16.0182   84.5947   22.1297 O.2     1  UNL1       -0.2730
     34 N          13.9247   84.3681   21.1073 N.am    1  UNL1       -0.2825
     35 H          12.9503   84.0224   21.2621 H       1  UNL1        0.1549
     36 C          14.3764   84.5256   19.7514 C.ar    1  UNL1        0.0535
     37 C          15.4400   83.7646   19.2369 C.ar    1  UNL1        0.0353
     38 C          15.8598   83.9696   17.9201 C.ar    1  UNL1        0.1002
     39 N          15.2520   84.9088   17.1481 N.ar    1  UNL1       -0.2422
     40 C          14.2335   85.6719   17.6252 C.ar    1  UNL1        0.1002
     41 C          13.7838   85.4999   18.9366 C.ar    1  UNL1        0.0353
     42 C          13.4816   85.9009   23.9461 C.3     1  UNL1        0.0569
     43 C          13.9395   87.0039   23.0300 C.ar    1  UNL1       -0.0017
     44 C          15.1713   87.6519   23.0633 C.ar    1  UNL1        0.0681
     45 N          15.2655   88.5424   22.0503 N.ar    1  UNL1       -0.3523
     46 C          14.1036   88.4663   21.3789 C.ar    1  UNL1        0.0563
     47 C          13.7387   89.1837   20.2404 C.ar    1  UNL1        0.0170
     48 C          12.4692   88.9385   19.6867 C.ar    1  UNL1        0.0015
     49 C          11.5992   87.9985   20.2812 C.ar    1  UNL1        0.0001
     50 C          11.9923   87.2921   21.4320 C.ar    1  UNL1        0.0012
     51 C          13.2640   87.5441   21.9505 C.ar    1  UNL1        0.0131
     52 H          16.0812   89.1568   21.8322 H       1  UNL1        0.1660
@<TRIPOS>BOND
     1    25    26    1
     2    26    24    1
     3    24    14    1
     4    14    15   ar
     5    15    16   ar
     6    16     8    1
     7     8     9    1
     8     9    10    1
     9    10    11    1
    10    11     1    1
    11     1     2   ar
    12     2     3   ar
    13     3     4   ar
    14     4    27    1
    15    27    28    2
    16    27    29   am
    17    29    31    1
    18    31    42    1
    19    42    43    1
    20    43    44   ar
    21    44    45   ar
    22    45    46   ar
    23    46    47   ar
    24    47    48   ar
    25    48    49   ar
    26    49    50   ar
    27    50    51   ar
    28    31    32    1
    29    32    33    2
    30    32    34   am
    31    34    36    1
    32    36    37   ar
    33    37    38   ar
    34    38    39   ar
    35    39    40   ar
    36    40    41   ar
    37     4     5   ar
    38     5     6    1
    39     5     7   ar
    40    11    12    1
    41    12    13    1
    42    16    17   ar
    43    17    18   ar
    44    18    19   ar
    45    19    20    1
    46    20    21    1
    47    20    22    1
    48    20    23    1
    49    19    14   ar
    50    13     8    1
    51     7     1   ar
    52    51    43   ar
    53    41    36   ar
    54    51    46   ar
    55    29    30    1
    56    45    52    1
    57    34    35    1
@<TRIPOS>MOLECULE
*****
 52 57 0 0 0
SMALL
GASTEIGER

@<TRIPOS>ATOM
      1 C          10.5188   79.5071   25.8367 C.ar    1  UNL1        0.0502
      2 C          10.3256   80.8954   25.8836 C.ar    1  UNL1        0.0148
      3 C          11.3240   81.7637   25.4362 C.ar    1  UNL1        0.0080
      4 C          12.5429   81.2646   24.9430 C.ar    1  UNL1        0.0808
      5 C          12.7342   79.8665   24.8976 C.ar    1  UNL1        0.1457
      6 F          13.8642   79.3223   24.3821 F       1  UNL1       -0.2040
      7 C          11.7294   79.0025   25.3425 C.ar    1  UNL1        0.0443
      8 N           7.9160   76.5853   27.3659 N.pl3   1  UNL1       -0.2897
      9 C           8.7269   76.2782   26.1801 C.3     1  UNL1        0.1136
     10 C           8.9931   77.5560   25.3869 C.3     1  UNL1        0.1123
     11 N           9.4890   78.6060   26.2844 N.pl3   1  UNL1       -0.3040
     12 C           8.6963   78.9162   27.4801 C.3     1  UNL1        0.1123
     13 C           8.4035   77.6363   28.2672 C.3     1  UNL1        0.1136
     14 C           5.0279   75.0990   29.2475 C.ar    1  UNL1        0.0155
     15 C           5.9745   76.0267   28.7845 C.ar    1  UNL1        0.0324
     16 C           6.9293   75.6478   27.8347 C.ar    1  UNL1        0.1315
     17 N           6.9405   74.3692   27.3768 N.ar    1  UNL1       -0.2292
     18 C           6.0398   73.4427   27.7910 C.ar    1  UNL1        0.1039
     19 C           5.0467   73.7741   28.7329 C.ar    1  UNL1        0.0890
     20 C           4.0378   72.7250   29.1610 C.3     1  UNL1        0.4198
     21 F           2.7575   73.0374   28.7360 F       1  UNL1       -0.1658
     22 F           4.0170   72.6336   30.5411 F       1  UNL1       -0.1658
     23 F           4.3774   71.4980   28.6213 F       1  UNL1       -0.1658
     24 C           4.0281   75.5782   30.2824 C.3     1  UNL1        0.1688
     25 C           3.9828   77.8665   30.6485 C.3     1  UNL1        0.1746
     26 O           3.4434   76.8058   29.8902 O.3     1  UNL1       -0.3463
     27 C          13.5673   82.2145   24.4387 C.2     1  UNL1        0.2483
     28 O          14.7883   81.9090   24.5278 O.2     1  UNL1       -0.2701
     29 N          13.1950   83.4676   23.8442 N.am    1  UNL1       -0.2945
     30 H          12.2279   83.5614   23.4618 H       1  UNL1        0.1501
     31 C          14.1605   84.5622   23.6612 C.3     1  UNL1        0.1535
     32 C          14.6794   84.6108   22.2424 C.2     1  UNL1        0.2443
     33 O          15.9008   84.3981   22.0083 O.2     1  UNL1       -0.2730
     34 N          13.7573   84.7977   21.1568 N.am    1  UNL1       -0.2825
     35 H          12.7394   84.6650   21.3549 H       1  UNL1        0.1549
     36 C          14.1535   85.0346   19.7951 C.ar    1  UNL1        0.0535
     37 C          14.9948   84.1430   19.1077 C.ar    1  UNL1        0.0353
     38 C          15.3724   84.4274   17.7929 C.ar    1  UNL1        0.1002
     39 N          14.9399   85.5659   17.1893 N.ar    1  UNL1       -0.2422
     40 C          14.1408   86.4549   17.8361 C.ar    1  UNL1        0.1002
     41 C          13.7409   86.2095   19.1519 C.ar    1  UNL1        0.0353
     42 C          13.5601   85.9238   24.0777 C.3     1  UNL1        0.0569
     43 C          14.4842   86.7399   24.9412 C.ar    1  UNL1       -0.0017
     44 C          14.3557   86.9680   26.3086 C.ar    1  UNL1        0.0681
     45 N          15.4029   87.6889   26.7689 N.ar    1  UNL1       -0.3523
     46 C          16.1905   87.9218   25.7049 C.ar    1  UNL1        0.0563
     47 C          17.4017   88.6121   25.6871 C.ar    1  UNL1        0.0170
     48 C          18.0743   88.7296   24.4574 C.ar    1  UNL1        0.0015
     49 C          17.5236   88.1683   23.2846 C.ar    1  UNL1        0.0001
     50 C          16.2976   87.4806   23.3315 C.ar    1  UNL1        0.0012
     51 C          15.6602   87.3656   24.5685 C.ar    1  UNL1        0.0131
     52 H          15.5670   87.9935   27.7541 H       1  UNL1        0.1660
@<TRIPOS>BOND
     1    25    26    1
     2    26    24    1
     3    24    14    1
     4    14    15   ar
     5    15    16   ar
     6    16     8    1
     7     8     9    1
     8     9    10    1
     9    10    11    1
    10    11     1    1
    11     1     2   ar
    12     2     3   ar
    13     3     4   ar
    14     4    27    1
    15    27    28    2
    16    27    29   am
    17    29    31    1
    18    31    42    1
    19    42    43    1
    20    43    44   ar
    21    44    45   ar
    22    45    46   ar
    23    46    47   ar
    24    47    48   ar
    25    48    49   ar
    26    49    50   ar
    27    50    51   ar
    28    31    32    1
    29    32    33    2
    30    32    34   am
    31    34    36    1
    32    36    37   ar
    33    37    38   ar
    34    38    39   ar
    35    39    40   ar
    36    40    41   ar
    37     4     5   ar
    38     5     6    1
    39     5     7   ar
    40    11    12    1
    41    12    13    1
    42    16    17   ar
    43    17    18   ar
    44    18    19   ar
    45    19    20    1
    46    20    21    1
    47    20    22    1
    48    20    23    1
    49    19    14   ar
    50    13     8    1
    51     7     1   ar
    52    51    43   ar
    53    41    36   ar
    54    51    46   ar
    55    29    30    1
    56    45    52    1
    57    34    35    1
@<TRIPOS>MOLECULE
*****
 52 57 0 0 0
SMALL
GASTEIGER

@<TRIPOS>ATOM
      1 C          11.6155   79.5695   25.1268 C.ar    1  UNL1        0.0502
      2 C          12.1823   78.3409   24.7578 C.ar    1  UNL1        0.0148
      3 C          11.5053   77.1456   25.0101 C.ar    1  UNL1        0.0080
      4 C          10.2519   77.1502   25.6480 C.ar    1  UNL1        0.0808
      5 C           9.6843   78.3886   26.0186 C.ar    1  UNL1        0.1457
      6 F           8.4551   78.4632   26.5864 F       1  UNL1       -0.2040
      7 C          10.3647   79.5818   25.7591 C.ar    1  UNL1        0.0443
      8 N          13.4468   83.3392   24.8344 N.pl3   1  UNL1       -0.2897
      9 C          11.9912   83.2307   24.6693 C.3     1  UNL1        0.1136
     10 C          11.6339   81.8633   24.0901 C.3     1  UNL1        0.1123
     11 N          12.3020   80.8062   24.8583 N.pl3   1  UNL1       -0.3040
     12 C          13.7547   80.9067   25.0425 C.3     1  UNL1        0.1123
     13 C          14.1231   82.2843   25.5990 C.3     1  UNL1        0.1136
     14 C          15.2930   86.1494   23.1655 C.ar    1  UNL1        0.0155
     15 C          14.6314   84.9267   23.3611 C.ar    1  UNL1        0.0324
     16 C          14.1114   84.5976   24.6175 C.ar    1  UNL1        0.1315
     17 N          14.2668   85.4666   25.6497 N.ar    1  UNL1       -0.2292
     18 C          14.8922   86.6618   25.5034 C.ar    1  UNL1        0.1039
     19 C          15.4198   87.0512   24.2570 C.ar    1  UNL1        0.0890
     20 C          16.0935   88.4032   24.1160 C.3     1  UNL1        0.4198
     21 F          17.4055   88.2833   23.6900 F       1  UNL1       -0.1658
     22 F          16.1011   89.0503   25.3386 F       1  UNL1       -0.1658
     23 F          15.4142   89.1728   23.1896 F       1  UNL1       -0.1658
     24 C          15.8372   86.4356   21.7791 C.3     1  UNL1        0.1688
     25 C          14.8641   85.7750   19.7819 C.3     1  UNL1        0.1746
     26 O          15.5989   85.3463   20.9076 O.3     1  UNL1       -0.3463
     27 C           9.5416   75.8640   25.8656 C.2     1  UNL1        0.2483
     28 O          10.0917   74.9658   26.5604 O.2     1  UNL1       -0.2701
     29 N           8.2392   75.6271   25.3091 N.am    1  UNL1       -0.2945
     30 H           7.6582   76.4550   25.0495 H       1  UNL1        0.1501
     31 C           7.6689   74.2751   25.2046 C.3     1  UNL1        0.1535
     32 C           6.4367   74.1262   26.0671 C.2     1  UNL1        0.2443
     33 O           5.3067   74.4645   25.6191 O.2     1  UNL1       -0.2730
     34 N           6.5458   73.5033   27.3571 N.am    1  UNL1       -0.2825
     35 H           7.4188   72.9675   27.5662 H       1  UNL1        0.1549
     36 C           5.4849   73.4679   28.3269 C.ar    1  UNL1        0.0535
     37 C           4.5725   72.4003   28.3810 C.ar    1  UNL1        0.0353
     38 C           3.5431   72.4213   29.3255 C.ar    1  UNL1        0.1002
     39 N           3.4179   73.4744   30.1757 N.ar    1  UNL1       -0.2422
     40 C           4.2744   74.5289   30.1336 C.ar    1  UNL1        0.1002
     41 C           5.3168   74.5483   29.2038 C.ar    1  UNL1        0.0353
     42 C           7.3656   73.8991   23.7368 C.3     1  UNL1        0.0569
     43 C           8.4813   74.2548   22.7911 C.ar    1  UNL1       -0.0017
     44 C           8.5507   75.3819   21.9770 C.ar    1  UNL1        0.0681
     45 N           9.7265   75.4128   21.3101 N.ar    1  UNL1       -0.3523
     46 C          10.3997   74.3140   21.6921 C.ar    1  UNL1        0.0563
     47 C          11.6746   73.9221   21.2858 C.ar    1  UNL1        0.0170
     48 C          12.2001   72.7331   21.8230 C.ar    1  UNL1        0.0015
     49 C          11.4451   71.9666   22.7374 C.ar    1  UNL1        0.0001
     50 C          10.1597   72.3841   23.1265 C.ar    1  UNL1        0.0012
     51 C           9.6699   73.5765   22.5897 C.ar    1  UNL1        0.0131
     52 H          10.0463   76.1480   20.6411 H       1  UNL1        0.1660
@<TRIPOS>BOND
     1    25    26    1
     2    26    24    1
     3    24    14    1
     4    14    15   ar
     5    15    16   ar
     6    16     8    1
     7     8     9    1
     8     9    10    1
     9    10    11    1
    10    11     1    1
    11     1     2   ar
    12     2     3   ar
    13     3     4   ar
    14     4    27    1
    15    27    28    2
    16    27    29   am
    17    29    31    1
    18    31    42    1
    19    42    43    1
    20    43    44   ar
    21    44    45   ar
    22    45    46   ar
    23    46    47   ar
    24    47    48   ar
    25    48    49   ar
    26    49    50   ar
    27    50    51   ar
    28    31    32    1
    29    32    33    2
    30    32    34   am
    31    34    36    1
    32    36    37   ar
    33    37    38   ar
    34    38    39   ar
    35    39    40   ar
    36    40    41   ar
    37     4     5   ar
    38     5     6    1
    39     5     7   ar
    40    11    12    1
    41    12    13    1
    42    16    17   ar
    43    17    18   ar
    44    18    19   ar
    45    19    20    1
    46    20    21    1
    47    20    22    1
    48    20    23    1
    49    19    14   ar
    50    13     8    1
    51     7     1   ar
    52    51    43   ar
    53    41    36   ar
    54    51    46   ar
    55    29    30    1
    56    45    52    1
    57    34    35    1
@<TRIPOS>MOLECULE
*****
 52 57 0 0 0
SMALL
GASTEIGER

@<TRIPOS>ATOM
      1 C          10.7748   79.2937   25.2273 C.ar    1  UNL1        0.0502
      2 C          11.0703   77.9968   24.7828 C.ar    1  UNL1        0.0148
      3 C          10.2639   76.9198   25.1579 C.ar    1  UNL1        0.0080
      4 C           9.1509   77.1127   25.9958 C.ar    1  UNL1        0.0808
      5 C           8.8565   78.4194   26.4418 C.ar    1  UNL1        0.1457
      6 F           7.7664   78.6788   27.2057 F       1  UNL1       -0.2040
      7 C           9.6646   79.4939   26.0591 C.ar    1  UNL1        0.0443
      8 N          13.0926   82.7385   24.5866 N.pl3   1  UNL1       -0.2897
      9 C          11.6288   82.8532   24.6313 C.3     1  UNL1        0.1136
     10 C          10.9902   81.5549   24.1421 C.3     1  UNL1        0.1123
     11 N          11.5943   80.4102   24.8341 N.pl3   1  UNL1       -0.3040
     12 C          13.0567   80.2882   24.8090 C.3     1  UNL1        0.1123
     13 C          13.7046   81.5949   25.2738 C.3     1  UNL1        0.1136
     14 C          14.7530   86.1011   24.7513 C.ar    1  UNL1        0.0155
     15 C          13.9750   84.9860   25.1009 C.ar    1  UNL1        0.0324
     16 C          13.9013   83.8801   24.2471 C.ar    1  UNL1        0.1315
     17 N          14.5779   83.9029   23.0697 N.ar    1  UNL1       -0.2292
     18 C          15.3476   84.9561   22.6959 C.ar    1  UNL1        0.1039
     19 C          15.4709   86.0883   23.5245 C.ar    1  UNL1        0.0890
     20 C          16.3567   87.2418   23.0927 C.3     1  UNL1        0.4198
     21 F          16.7495   87.1231   21.7703 F       1  UNL1       -0.1658
     22 F          17.4978   87.2714   23.8740 F       1  UNL1       -0.1658
     23 F          15.6728   88.4360   23.2275 F       1  UNL1       -0.1658
     24 C          14.7801   87.2662   25.7218 C.3     1  UNL1        0.1688
     25 C          14.0972   87.5110   27.9232 C.3     1  UNL1        0.1746
     26 O          13.6792   87.2106   26.6094 O.3     1  UNL1       -0.3463
     27 C           8.2919   75.9519   26.3432 C.2     1  UNL1        0.2483
     28 O           8.8328   74.8732   26.7122 O.2     1  UNL1       -0.2701
     29 N           6.8599   76.0363   26.2762 N.am    1  UNL1       -0.2945
     30 H           6.4215   76.9832   26.3163 H       1  UNL1        0.1501
     31 C           6.0067   74.8380   26.2683 C.3     1  UNL1        0.1535
     32 C           6.0934   74.1058   24.9489 C.2     1  UNL1        0.2443
     33 O           6.4840   72.9065   24.9158 O.2     1  UNL1       -0.2730
     34 N           5.6315   74.7488   23.7501 N.am    1  UNL1       -0.2825
     35 H           5.0415   75.6056   23.8541 H       1  UNL1        0.1549
     36 C           5.8266   74.2215   22.4268 C.ar    1  UNL1        0.0535
     37 C           7.1002   73.8503   21.9628 C.ar    1  UNL1        0.0353
     38 C           7.2443   73.3651   20.6605 C.ar    1  UNL1        0.1002
     39 N           6.1616   73.2668   19.8447 N.ar    1  UNL1       -0.2422
     40 C           4.9214   73.6358   20.2605 C.ar    1  UNL1        0.1002
     41 C           4.7335   74.1272   21.5546 C.ar    1  UNL1        0.0353
     42 C           6.3406   73.8960   27.4468 C.3     1  UNL1        0.0569
     43 C           5.7173   74.3290   28.7467 C.ar    1  UNL1       -0.0017
     44 C           4.6415   73.7255   29.3922 C.ar    1  UNL1        0.0681
     45 N           4.3922   74.3386   30.5712 N.ar    1  UNL1       -0.3523
     46 C           5.2977   75.3264   30.6757 C.ar    1  UNL1        0.0563
     47 C           5.4498   76.2230   31.7325 C.ar    1  UNL1        0.0170
     48 C           6.4787   77.1778   31.6427 C.ar    1  UNL1        0.0015
     49 C           7.3179   77.2201   30.5080 C.ar    1  UNL1        0.0001
     50 C           7.1388   76.3056   29.4547 C.ar    1  UNL1        0.0012
     51 C           6.1200   75.3588   29.5780 C.ar    1  UNL1        0.0131
     52 H           3.6505   74.0869   31.2619 H       1  UNL1        0.1660
@<TRIPOS>BOND
     1    25    26    1
     2    26    24    1
     3    24    14    1
     4    14    15   ar
     5    15    16   ar
     6    16     8    1
     7     8     9    1
     8     9    10    1
     9    10    11    1
    10    11     1    1
    11     1     2   ar
    12     2     3   ar
    13     3     4   ar
    14     4    27    1
    15    27    28    2
    16    27    29   am
    17    29    31    1
    18    31    42    1
    19    42    43    1
    20    43    44   ar
    21    44    45   ar
    22    45    46   ar
    23    46    47   ar
    24    47    48   ar
    25    48    49   ar
    26    49    50   ar
    27    50    51   ar
    28    31    32    1
    29    32    33    2
    30    32    34   am
    31    34    36    1
    32    36    37   ar
    33    37    38   ar
    34    38    39   ar
    35    39    40   ar
    36    40    41   ar
    37     4     5   ar
    38     5     6    1
    39     5     7   ar
    40    11    12    1
    41    12    13    1
    42    16    17   ar
    43    17    18   ar
    44    18    19   ar
    45    19    20    1
    46    20    21    1
    47    20    22    1
    48    20    23    1
    49    19    14   ar
    50    13     8    1
    51     7     1   ar
    52    51    43   ar
    53    41    36   ar
    54    51    46   ar
    55    29    30    1
    56    45    52    1
    57    34    35    1
@<TRIPOS>MOLECULE
*****
 52 57 0 0 0
SMALL
GASTEIGER

@<TRIPOS>ATOM
      1 C          11.6065   79.5875   25.1579 C.ar    1  UNL1        0.0502
      2 C          12.1526   78.3408   24.8198 C.ar    1  UNL1        0.0148
      3 C          11.4515   77.1641   25.0931 C.ar    1  UNL1        0.0080
      4 C          10.1939   77.2060   25.7213 C.ar    1  UNL1        0.0808
      5 C           9.6471   78.4627   26.0607 C.ar    1  UNL1        0.1457
      6 F           8.4155   78.5726   26.6175 F       1  UNL1       -0.2040
      7 C          10.3516   79.6370   25.7804 C.ar    1  UNL1        0.0443
      8 N          13.5051   83.3175   24.7945 N.pl3   1  UNL1       -0.2897
      9 C          12.0509   83.2280   24.6066 C.3     1  UNL1        0.1136
     10 C          11.6811   81.8511   24.0589 C.3     1  UNL1        0.1123
     11 N          12.3180   80.8050   24.8676 N.pl3   1  UNL1       -0.3040
     12 C          13.7687   80.8871   25.0749 C.3     1  UNL1        0.1123
     13 C          14.1504   82.2735   25.5997 C.3     1  UNL1        0.1136
     14 C          14.8446   86.7933   25.2587 C.ar    1  UNL1        0.0155
     15 C          14.1838   85.5805   25.5104 C.ar    1  UNL1        0.0324
     16 C          14.1942   84.5585   24.5549 C.ar    1  UNL1        0.1315
     17 N          14.8371   84.7578   23.3753 N.ar    1  UNL1       -0.2292
     18 C          15.4949   85.9107   23.0937 C.ar    1  UNL1        0.1039
     19 C          15.5308   86.9659   24.0258 C.ar    1  UNL1        0.0890
     20 C          16.2932   88.2349   23.6944 C.3     1  UNL1        0.4198
     21 F          17.3226   88.4668   24.5909 F       1  UNL1       -0.1658
     22 F          15.4363   89.3198   23.7415 F       1  UNL1       -0.1658
     23 F          16.8447   88.1357   22.4302 F       1  UNL1       -0.1658
     24 C          14.7850   87.8584   26.3367 C.3     1  UNL1        0.1688
     25 C          13.5461   88.0059   28.2901 C.3     1  UNL1        0.1746
     26 O          13.4823   87.9541   26.8814 O.3     1  UNL1       -0.3463
     27 C           9.4580   75.9384   25.9615 C.2     1  UNL1        0.2483
     28 O           9.9142   75.1092   26.7960 O.2     1  UNL1       -0.2701
     29 N           8.2344   75.6432   25.2702 N.am    1  UNL1       -0.2945
     30 H           7.6929   76.4404   24.8682 H       1  UNL1        0.1501
     31 C           7.6774   74.2828   25.2153 C.3     1  UNL1        0.1535
     32 C           6.4368   74.1580   26.0697 C.2     1  UNL1        0.2443
     33 O           5.3159   74.5138   25.6125 O.2     1  UNL1       -0.2730
     34 N           6.5262   73.5381   27.3626 N.am    1  UNL1       -0.2825
     35 H           7.3885   72.9883   27.5797 H       1  UNL1        0.1549
     36 C           5.4582   73.5243   28.3250 C.ar    1  UNL1        0.0535
     37 C           5.2763   74.5774   29.2377 C.ar    1  UNL1        0.0353
     38 C           4.2385   74.5087   30.1707 C.ar    1  UNL1        0.1002
     39 N           3.4204   73.4238   30.2033 N.ar    1  UNL1       -0.2422
     40 C           3.5844   72.3827   29.3451 C.ar    1  UNL1        0.1002
     41 C           4.6103   72.4106   28.3974 C.ar    1  UNL1        0.0353
     42 C           7.3941   73.8439   23.7611 C.3     1  UNL1        0.0569
     43 C           8.5011   74.2040   22.8069 C.ar    1  UNL1       -0.0017
     44 C           8.5551   75.3264   21.9850 C.ar    1  UNL1        0.0681
     45 N           9.7269   75.3642   21.3115 N.ar    1  UNL1       -0.3523
     46 C          10.4128   74.2745   21.6970 C.ar    1  UNL1        0.0563
     47 C          11.6892   73.8922   21.2862 C.ar    1  UNL1        0.0170
     48 C          12.2291   72.7119   21.8283 C.ar    1  UNL1        0.0015
     49 C          11.4866   71.9443   22.7519 C.ar    1  UNL1        0.0001
     50 C          10.1994   72.3519   23.1452 C.ar    1  UNL1        0.0012
     51 C           9.6952   73.5359   22.6033 C.ar    1  UNL1        0.0131
     52 H          10.0360   76.0980   20.6359 H       1  UNL1        0.1660
@<TRIPOS>BOND
     1    25    26    1
     2    26    24    1
     3    24    14    1
     4    14    15   ar
     5    15    16   ar
     6    16     8    1
     7     8     9    1
     8     9    10    1
     9    10    11    1
    10    11     1    1
    11     1     2   ar
    12     2     3   ar
    13     3     4   ar
    14     4    27    1
    15    27    28    2
    16    27    29   am
    17    29    31    1
    18    31    42    1
    19    42    43    1
    20    43    44   ar
    21    44    45   ar
    22    45    46   ar
    23    46    47   ar
    24    47    48   ar
    25    48    49   ar
    26    49    50   ar
    27    50    51   ar
    28    31    32    1
    29    32    33    2
    30    32    34   am
    31    34    36    1
    32    36    37   ar
    33    37    38   ar
    34    38    39   ar
    35    39    40   ar
    36    40    41   ar
    37     4     5   ar
    38     5     6    1
    39     5     7   ar
    40    11    12    1
    41    12    13    1
    42    16    17   ar
    43    17    18   ar
    44    18    19   ar
    45    19    20    1
    46    20    21    1
    47    20    22    1
    48    20    23    1
    49    19    14   ar
    50    13     8    1
    51     7     1   ar
    52    51    43   ar
    53    41    36   ar
    54    51    46   ar
    55    29    30    1
    56    45    52    1
    57    34    35    1
@<TRIPOS>MOLECULE
*****
 52 57 0 0 0
SMALL
GASTEIGER

@<TRIPOS>ATOM
      1 C          10.4002   80.2579   25.8476 C.ar    1  UNL1        0.0502
      2 C          10.6275   80.3715   24.4683 C.ar    1  UNL1        0.0148
      3 C          11.5804   81.2685   23.9802 C.ar    1  UNL1        0.0080
      4 C          12.3191   82.0812   24.8588 C.ar    1  UNL1        0.0808
      5 C          12.0875   81.9648   26.2466 C.ar    1  UNL1        0.1457
      6 F          12.8057   82.6800   27.1474 F       1  UNL1       -0.2040
      7 C          11.1358   81.0618   26.7293 C.ar    1  UNL1        0.0443
      8 N           7.9763   77.1835   27.3716 N.pl3   1  UNL1       -0.2897
      9 C           8.4127   77.1291   25.9700 C.3     1  UNL1        0.1136
     10 C           8.6038   78.5447   25.4294 C.3     1  UNL1        0.1123
     11 N           9.4286   79.3263   26.3584 N.pl3   1  UNL1       -0.3040
     12 C           9.0126   79.3804   27.7648 C.3     1  UNL1        0.1123
     13 C           8.7942   77.9655   28.3067 C.3     1  UNL1        0.1136
     14 C           5.5827   75.3958   29.6443 C.ar    1  UNL1        0.0155
     15 C           6.4739   76.3610   29.1493 C.ar    1  UNL1        0.0324
     16 C           7.0475   76.2095   27.8823 C.ar    1  UNL1        0.1315
     17 N           6.7452   75.1111   27.1427 N.ar    1  UNL1       -0.2292
     18 C           5.8834   74.1580   27.5788 C.ar    1  UNL1        0.1039
     19 C           5.2645   74.2685   28.8390 C.ar    1  UNL1        0.0890
     20 C           4.2872   73.2001   29.2918 C.3     1  UNL1        0.4198
     21 F           4.3772   72.9626   30.6530 F       1  UNL1       -0.1658
     22 F           4.5564   72.0130   28.6347 F       1  UNL1       -0.1658
     23 F           2.9925   73.5989   29.0145 F       1  UNL1       -0.1658
     24 C           5.0054   75.6222   31.0284 C.3     1  UNL1        0.1688
     25 C           3.2517   77.0691   30.5774 C.3     1  UNL1        0.1746
     26 O           4.5280   76.9473   31.1665 O.3     1  UNL1       -0.3463
     27 C          13.3522   82.9957   24.3088 C.2     1  UNL1        0.2483
     28 O          14.5139   82.5539   24.0912 O.2     1  UNL1       -0.2701
     29 N          13.0522   84.3683   24.0117 N.am    1  UNL1       -0.2945
     30 H          12.0530   84.6306   23.8596 H       1  UNL1        0.1501
     31 C          14.1083   85.3717   23.8070 C.3     1  UNL1        0.1535
     32 C          14.5467   85.4264   22.3616 C.2     1  UNL1        0.2443
     33 O          15.7542   85.2206   22.0589 O.2     1  UNL1       -0.2730
     34 N          13.5643   85.6112   21.3298 N.am    1  UNL1       -0.2825
     35 H          12.5598   85.4727   21.5841 H       1  UNL1        0.1549
     36 C          13.8825   85.8535   19.9487 C.ar    1  UNL1        0.0535
     37 C          13.7262   87.1244   19.3694 C.ar    1  UNL1        0.0353
     38 C          14.0256   87.3062   18.0168 C.ar    1  UNL1        0.1002
     39 N          14.4512   86.2572   17.2646 N.ar    1  UNL1       -0.2422
     40 C          14.5937   85.0134   17.7938 C.ar    1  UNL1        0.1002
     41 C          14.3040   84.7879   19.1416 C.ar    1  UNL1        0.0353
     42 C          13.6695   86.7670   24.3054 C.3     1  UNL1        0.0569
     43 C          14.5717   87.3259   25.3728 C.ar    1  UNL1       -0.0017
     44 C          14.2924   87.4103   26.7341 C.ar    1  UNL1        0.0681
     45 N          15.3567   87.9038   27.4062 N.ar    1  UNL1       -0.3523
     46 C          16.3051   88.1357   26.4823 C.ar    1  UNL1        0.0563
     47 C          17.5907   88.6298   26.6990 C.ar    1  UNL1        0.0170
     48 C          18.4328   88.7853   25.5831 C.ar    1  UNL1        0.0015
     49 C          17.9736   88.4553   24.2893 C.ar    1  UNL1        0.0001
     50 C          16.6700   87.9626   24.0999 C.ar    1  UNL1        0.0012
     51 C          15.8618   87.8034   25.2273 C.ar    1  UNL1        0.0131
     52 H          15.4266   88.0630   28.4358 H       1  UNL1        0.1660
@<TRIPOS>BOND
     1    25    26    1
     2    26    24    1
     3    24    14    1
     4    14    15   ar
     5    15    16   ar
     6    16     8    1
     7     8     9    1
     8     9    10    1
     9    10    11    1
    10    11     1    1
    11     1     2   ar
    12     2     3   ar
    13     3     4   ar
    14     4    27    1
    15    27    28    2
    16    27    29   am
    17    29    31    1
    18    31    42    1
    19    42    43    1
    20    43    44   ar
    21    44    45   ar
    22    45    46   ar
    23    46    47   ar
    24    47    48   ar
    25    48    49   ar
    26    49    50   ar
    27    50    51   ar
    28    31    32    1
    29    32    33    2
    30    32    34   am
    31    34    36    1
    32    36    37   ar
    33    37    38   ar
    34    38    39   ar
    35    39    40   ar
    36    40    41   ar
    37     4     5   ar
    38     5     6    1
    39     5     7   ar
    40    11    12    1
    41    12    13    1
    42    16    17   ar
    43    17    18   ar
    44    18    19   ar
    45    19    20    1
    46    20    21    1
    47    20    22    1
    48    20    23    1
    49    19    14   ar
    50    13     8    1
    51     7     1   ar
    52    51    43   ar
    53    41    36   ar
    54    51    46   ar
    55    29    30    1
    56    45    52    1
    57    34    35    1
@<TRIPOS>MOLECULE
*****
 52 57 0 0 0
SMALL
GASTEIGER

@<TRIPOS>ATOM
      1 C           7.6035   75.9587   21.4294 C.ar    1  UNL1        0.0502
      2 C           8.4899   74.9299   21.7798 C.ar    1  UNL1        0.0148
      3 C           9.7556   75.2298   22.2886 C.ar    1  UNL1        0.0080
      4 C          10.1688   76.5648   22.4473 C.ar    1  UNL1        0.0808
      5 C           9.2742   77.5980   22.0932 C.ar    1  UNL1        0.1457
      6 F           9.5922   78.9037   22.2744 F       1  UNL1       -0.2040
      7 C           8.0070   77.2915   21.5890 C.ar    1  UNL1        0.0443
      8 N           3.6614   74.9007   20.4342 N.pl3   1  UNL1       -0.2897
      9 C           4.6704   73.8460   20.5998 C.3     1  UNL1        0.1136
     10 C           6.0506   74.3836   20.2275 C.3     1  UNL1        0.1123
     11 N           6.2926   75.6567   20.9163 N.pl3   1  UNL1       -0.3040
     12 C           5.2876   76.7165   20.7706 C.3     1  UNL1        0.1123
     13 C           3.8972   76.1783   21.1176 C.3     1  UNL1        0.1136
     14 C           0.4067   73.0956   19.9447 C.ar    1  UNL1        0.0155
     15 C           1.6915   73.4131   20.4134 C.ar    1  UNL1        0.0324
     16 C           2.3369   74.5742   19.9744 C.ar    1  UNL1        0.1315
     17 N           1.7140   75.3828   19.0785 N.ar    1  UNL1       -0.2292
     18 C           0.4699   75.1184   18.6055 C.ar    1  UNL1        0.1039
     19 C          -0.2323   73.9725   19.0264 C.ar    1  UNL1        0.0890
     20 C          -1.6313   73.7134   18.4995 C.3     1  UNL1        0.4198
     21 F          -1.9461   74.5485   17.4408 F       1  UNL1       -0.1658
     22 F          -2.5563   73.9337   19.5041 F       1  UNL1       -0.1658
     23 F          -1.7324   72.4077   18.0558 F       1  UNL1       -0.1658
     24 C          -0.2284   71.8177   20.4582 C.3     1  UNL1        0.1688
     25 C           0.7340   69.7135   20.5946 C.3     1  UNL1        0.1746
     26 O           0.2232   70.6971   19.7212 O.3     1  UNL1       -0.3463
     27 C          11.5061   76.8483   23.0280 C.2     1  UNL1        0.2483
     28 O          12.4725   76.0854   22.7519 O.2     1  UNL1       -0.2701
     29 N          11.7222   77.9773   23.8887 N.am    1  UNL1       -0.2945
     30 H          11.0473   78.7723   23.8343 H       1  UNL1        0.1501
     31 C          12.9123   78.0891   24.7460 C.3     1  UNL1        0.1535
     32 C          13.4653   79.4958   24.7442 C.2     1  UNL1        0.2443
     33 O          14.6307   79.7165   24.3141 O.2     1  UNL1       -0.2730
     34 N          12.6208   80.5895   25.1374 N.am    1  UNL1       -0.2825
     35 H          11.5915   80.4143   25.1913 H       1  UNL1        0.1549
     36 C          13.0870   81.9342   25.3415 C.ar    1  UNL1        0.0535
     37 C          13.0502   82.8902   24.3120 C.ar    1  UNL1        0.0353
     38 C          13.5367   84.1781   24.5503 C.ar    1  UNL1        0.1002
     39 N          14.0547   84.4983   25.7655 N.ar    1  UNL1       -0.2422
     40 C          14.1199   83.5889   26.7734 C.ar    1  UNL1        0.1002
     41 C          13.6456   82.2897   26.5768 C.ar    1  UNL1        0.0353
     42 C          12.6211   77.6109   26.1862 C.3     1  UNL1        0.0569
     43 C          11.2223   77.0846   26.3646 C.ar    1  UNL1       -0.0017
     44 C          10.8149   75.7580   26.2533 C.ar    1  UNL1        0.0681
     45 N           9.4998   75.6405   26.5446 N.ar    1  UNL1       -0.3523
     46 C           9.0709   76.8807   26.8354 C.ar    1  UNL1        0.0563
     47 C           7.7846   77.2607   27.2162 C.ar    1  UNL1        0.0170
     48 C           7.5538   78.6212   27.4885 C.ar    1  UNL1        0.0015
     49 C           8.5996   79.5622   27.3675 C.ar    1  UNL1        0.0001
     50 C           9.8867   79.1508   26.9774 C.ar    1  UNL1        0.0012
     51 C          10.0908   77.7920   26.7291 C.ar    1  UNL1        0.0131
     52 H           8.9370   74.7609   26.5497 H       1  UNL1        0.1660
@<TRIPOS>BOND
     1    25    26    1
     2    26    24    1
     3    24    14    1
     4    14    15   ar
     5    15    16   ar
     6    16     8    1
     7     8     9    1
     8     9    10    1
     9    10    11    1
    10    11     1    1
    11     1     2   ar
    12     2     3   ar
    13     3     4   ar
    14     4    27    1
    15    27    28    2
    16    27    29   am
    17    29    31    1
    18    31    42    1
    19    42    43    1
    20    43    44   ar
    21    44    45   ar
    22    45    46   ar
    23    46    47   ar
    24    47    48   ar
    25    48    49   ar
    26    49    50   ar
    27    50    51   ar
    28    31    32    1
    29    32    33    2
    30    32    34   am
    31    34    36    1
    32    36    37   ar
    33    37    38   ar
    34    38    39   ar
    35    39    40   ar
    36    40    41   ar
    37     4     5   ar
    38     5     6    1
    39     5     7   ar
    40    11    12    1
    41    12    13    1
    42    16    17   ar
    43    17    18   ar
    44    18    19   ar
    45    19    20    1
    46    20    21    1
    47    20    22    1
    48    20    23    1
    49    19    14   ar
    50    13     8    1
    51     7     1   ar
    52    51    43   ar
    53    41    36   ar
    54    51    46   ar
    55    29    30    1
    56    45    52    1
    57    34    35    1
@<TRIPOS>MOLECULE
*****
 52 57 0 0 0
SMALL
GASTEIGER

@<TRIPOS>ATOM
      1 C           6.3275   75.4373   22.7765 C.ar    1  UNL1        0.0502
      2 C           7.5635   75.7294   22.1816 C.ar    1  UNL1        0.0148
      3 C           8.7119   75.8619   22.9655 C.ar    1  UNL1        0.0080
      4 C           8.6489   75.7175   24.3631 C.ar    1  UNL1        0.0808
      5 C           7.4030   75.4239   24.9588 C.ar    1  UNL1        0.1457
      6 F           7.2869   75.2185   26.2942 F       1  UNL1       -0.2040
      7 C           6.2581   75.2879   24.1684 C.ar    1  UNL1        0.0443
      8 N           2.6751   74.6915   20.8392 N.pl3   1  UNL1       -0.2897
      9 C           3.6899   73.6310   20.8963 C.3     1  UNL1        0.1136
     10 C           5.0861   74.2489   20.9371 C.3     1  UNL1        0.1123
     11 N           5.1422   75.2868   21.9733 N.pl3   1  UNL1       -0.3040
     12 C           4.1276   76.3467   21.9371 C.3     1  UNL1        0.1123
     13 C           2.7259   75.7351   21.8703 C.3     1  UNL1        0.1136
     14 C          -0.1312   73.0489   18.9637 C.ar    1  UNL1        0.0155
     15 C           1.0379   73.2199   19.7220 C.ar    1  UNL1        0.0324
     16 C           1.4683   74.5028   20.0773 C.ar    1  UNL1        0.1315
     17 N           0.7518   75.5816   19.6681 N.ar    1  UNL1       -0.2292
     18 C          -0.3876   75.4619   18.9410 C.ar    1  UNL1        0.1039
     19 C          -0.8755   74.1940   18.5698 C.ar    1  UNL1        0.0890
     20 C          -2.1645   74.0882   17.7767 C.3     1  UNL1        0.4198
     21 F          -2.8760   72.9451   18.0995 F       1  UNL1       -0.1658
     22 F          -1.8776   74.0424   16.4243 F       1  UNL1       -0.1658
     23 F          -2.9708   75.1799   18.0417 F       1  UNL1       -0.1658
     24 C          -0.5329   71.6300   18.6094 C.3     1  UNL1        0.1688
     25 C          -0.2227   70.9474   20.8026 C.3     1  UNL1        0.1746
     26 O           0.1115   70.6959   19.4550 O.3     1  UNL1       -0.3463
     27 C           9.8959   75.8257   25.1626 C.2     1  UNL1        0.2483
     28 O          10.6976   74.8517   25.1894 O.2     1  UNL1       -0.2701
     29 N          10.2106   77.0190   25.8970 N.am    1  UNL1       -0.2945
     30 H           9.7524   77.9105   25.6047 H       1  UNL1        0.1501
     31 C          11.2304   77.0372   26.9571 C.3     1  UNL1        0.1535
     32 C          12.5847   77.4331   26.4152 C.2     1  UNL1        0.2443
     33 O          13.6049   77.3688   27.1547 O.2     1  UNL1       -0.2730
     34 N          12.7182   77.7828   25.0282 N.am    1  UNL1       -0.2825
     35 H          11.9317   77.5340   24.3860 H       1  UNL1        0.1549
     36 C          13.9104   78.3401   24.4492 C.ar    1  UNL1        0.0535
     37 C          14.6764   77.6263   23.5117 C.ar    1  UNL1        0.0353
     38 C          15.8408   78.1996   22.9942 C.ar    1  UNL1        0.1002
     39 N          16.2361   79.4330   23.4063 N.ar    1  UNL1       -0.2422
     40 C          15.5250   80.1381   24.3253 C.ar    1  UNL1        0.1002
     41 C          14.3555   79.6012   24.8687 C.ar    1  UNL1        0.0353
     42 C          10.8139   77.9539   28.1292 C.3     1  UNL1        0.0569
     43 C           9.4763   77.5929   28.7177 C.ar    1  UNL1       -0.0017
     44 C           8.4031   78.4545   28.9280 C.ar    1  UNL1        0.0681
     45 N           7.3380   77.7752   29.4099 N.ar    1  UNL1       -0.3523
     46 C           7.7287   76.4931   29.5099 C.ar    1  UNL1        0.0563
     47 C           6.9648   75.4099   29.9426 C.ar    1  UNL1        0.0170
     48 C           7.5714   74.1409   29.9574 C.ar    1  UNL1        0.0015
     49 C           8.9150   73.9858   29.5520 C.ar    1  UNL1        0.0001
     50 C           9.6631   75.0972   29.1240 C.ar    1  UNL1        0.0012
     51 C           9.0305   76.3418   29.1044 C.ar    1  UNL1        0.0131
     52 H           6.4006   78.1695   29.6471 H       1  UNL1        0.1660
@<TRIPOS>BOND
     1    25    26    1
     2    26    24    1
     3    24    14    1
     4    14    15   ar
     5    15    16   ar
     6    16     8    1
     7     8     9    1
     8     9    10    1
     9    10    11    1
    10    11     1    1
    11     1     2   ar
    12     2     3   ar
    13     3     4   ar
    14     4    27    1
    15    27    28    2
    16    27    29   am
    17    29    31    1
    18    31    42    1
    19    42    43    1
    20    43    44   ar
    21    44    45   ar
    22    45    46   ar
    23    46    47   ar
    24    47    48   ar
    25    48    49   ar
    26    49    50   ar
    27    50    51   ar
    28    31    32    1
    29    32    33    2
    30    32    34   am
    31    34    36    1
    32    36    37   ar
    33    37    38   ar
    34    38    39   ar
    35    39    40   ar
    36    40    41   ar
    37     4     5   ar
    38     5     6    1
    39     5     7   ar
    40    11    12    1
    41    12    13    1
    42    16    17   ar
    43    17    18   ar
    44    18    19   ar
    45    19    20    1
    46    20    21    1
    47    20    22    1
    48    20    23    1
    49    19    14   ar
    50    13     8    1
    51     7     1   ar
    52    51    43   ar
    53    41    36   ar
    54    51    46   ar
    55    29    30    1
    56    45    52    1
    57    34    35    1
@<TRIPOS>MOLECULE
*****
 52 57 0 0 0
SMALL
GASTEIGER

@<TRIPOS>ATOM
      1 C           7.4738   76.0257   21.5838 C.ar    1  UNL1        0.0502
      2 C           8.5640   75.1710   21.3649 C.ar    1  UNL1        0.0148
      3 C           9.8141   75.4646   21.9144 C.ar    1  UNL1        0.0080
      4 C          10.0060   76.6253   22.6851 C.ar    1  UNL1        0.0808
      5 C           8.9066   77.4838   22.9031 C.ar    1  UNL1        0.1457
      6 F           9.0136   78.5885   23.6823 F       1  UNL1       -0.2040
      7 C           7.6568   77.1821   22.3544 C.ar    1  UNL1        0.0443
      8 N           3.5682   74.9549   20.4663 N.pl3   1  UNL1       -0.2897
      9 C           4.5810   73.9052   20.6404 C.3     1  UNL1        0.1136
     10 C           5.9662   74.4599   20.3141 C.3     1  UNL1        0.1123
     11 N           6.1794   75.7227   21.0310 N.pl3   1  UNL1       -0.3040
     12 C           5.1700   76.7770   20.8770 C.3     1  UNL1        0.1123
     13 C           3.7754   76.2220   21.1776 C.3     1  UNL1        0.1136
     14 C           0.3354   73.1417   19.8725 C.ar    1  UNL1        0.0155
     15 C           1.6046   73.4611   20.3805 C.ar    1  UNL1        0.0324
     16 C           2.2590   74.6262   19.9659 C.ar    1  UNL1        0.1315
     17 N           1.6603   75.4368   19.0554 N.ar    1  UNL1       -0.2292
     18 C           0.4317   75.1705   18.5446 C.ar    1  UNL1        0.1039
     19 C          -0.2790   74.0206   18.9394 C.ar    1  UNL1        0.0890
     20 C          -1.6608   73.7595   18.3701 C.3     1  UNL1        0.4198
     21 F          -1.9261   74.5611   17.2727 F       1  UNL1       -0.1658
     22 F          -2.6192   74.0246   19.3316 F       1  UNL1       -0.1658
     23 F          -1.7621   72.4404   17.9675 F       1  UNL1       -0.1658
     24 C          -0.3105   71.8595   20.3614 C.3     1  UNL1        0.1688
     25 C           0.6928   69.7817   20.5815 C.3     1  UNL1        0.1746
     26 O           0.2028   70.7382   19.6671 O.3     1  UNL1       -0.3463
     27 C          11.3383   76.8867   23.2873 C.2     1  UNL1        0.2483
     28 O          12.2514   76.0249   23.1619 O.2     1  UNL1       -0.2701
     29 N          11.6096   78.1035   24.0001 N.am    1  UNL1       -0.2945
     30 H          11.0021   78.9308   23.8081 H       1  UNL1        0.1501
     31 C          12.7712   78.2436   24.8918 C.3     1  UNL1        0.1535
     32 C          13.3678   79.6299   24.8093 C.2     1  UNL1        0.2443
     33 O          14.5389   79.7889   24.3675 O.2     1  UNL1       -0.2730
     34 N          12.5586   80.7702   25.1389 N.am    1  UNL1       -0.2825
     35 H          11.5244   80.6307   25.2026 H       1  UNL1        0.1549
     36 C          13.0669   82.1092   25.2656 C.ar    1  UNL1        0.0535
     37 C          13.0523   83.0073   24.1847 C.ar    1  UNL1        0.0353
     38 C          13.5794   84.2908   24.3486 C.ar    1  UNL1        0.1002
     39 N          14.1152   84.6618   25.5414 N.ar    1  UNL1       -0.2422
     40 C          14.1595   83.8080   26.5980 C.ar    1  UNL1        0.1002
     41 C          13.6445   82.5152   26.4764 C.ar    1  UNL1        0.0353
     42 C          12.4136   77.8809   26.3507 C.3     1  UNL1        0.0569
     43 C          10.9645   78.1176   26.6822 C.ar    1  UNL1       -0.0017
     44 C          10.3968   79.3140   27.1117 C.ar    1  UNL1        0.0681
     45 N           9.0584   79.1805   27.2493 N.ar    1  UNL1       -0.3523
     46 C           8.7749   77.9100   26.9144 C.ar    1  UNL1        0.0563
     47 C           7.5185   77.3063   26.8831 C.ar    1  UNL1        0.0170
     48 C           7.4457   75.9583   26.4880 C.ar    1  UNL1        0.0015
     49 C           8.6177   75.2495   26.1448 C.ar    1  UNL1        0.0001
     50 C           9.8725   75.8830   26.1895 C.ar    1  UNL1        0.0012
     51 C           9.9130   77.2259   26.5698 C.ar    1  UNL1        0.0131
     52 H           8.3840   79.9199   27.5475 H       1  UNL1        0.1660
@<TRIPOS>BOND
     1    25    26    1
     2    26    24    1
     3    24    14    1
     4    14    15   ar
     5    15    16   ar
     6    16     8    1
     7     8     9    1
     8     9    10    1
     9    10    11    1
    10    11     1    1
    11     1     2   ar
    12     2     3   ar
    13     3     4   ar
    14     4    27    1
    15    27    28    2
    16    27    29   am
    17    29    31    1
    18    31    42    1
    19    42    43    1
    20    43    44   ar
    21    44    45   ar
    22    45    46   ar
    23    46    47   ar
    24    47    48   ar
    25    48    49   ar
    26    49    50   ar
    27    50    51   ar
    28    31    32    1
    29    32    33    2
    30    32    34   am
    31    34    36    1
    32    36    37   ar
    33    37    38   ar
    34    38    39   ar
    35    39    40   ar
    36    40    41   ar
    37     4     5   ar
    38     5     6    1
    39     5     7   ar
    40    11    12    1
    41    12    13    1
    42    16    17   ar
    43    17    18   ar
    44    18    19   ar
    45    19    20    1
    46    20    21    1
    47    20    22    1
    48    20    23    1
    49    19    14   ar
    50    13     8    1
    51     7     1   ar
    52    51    43   ar
    53    41    36   ar
    54    51    46   ar
    55    29    30    1
    56    45    52    1
    57    34    35    1
