@<TRIPOS>MOLECULE
*****
 62 67 0 0 0
SMALL
GASTEIGER

@<TRIPOS>ATOM
      1 C         -63.1711  -50.5272  -24.1606 C.ar    1  UNL1        0.0001
      2 C         -63.3800  -49.3434  -24.8862 C.ar    1  UNL1        0.0013
      3 C         -62.5373  -48.2435  -24.7088 C.ar    1  UNL1        0.0147
      4 C         -61.4565  -48.3089  -23.8097 C.ar    1  UNL1        0.0503
      5 C         -61.2491  -49.4941  -23.0880 C.ar    1  UNL1        0.0147
      6 C         -62.0924  -50.5941  -23.2641 C.ar    1  UNL1        0.0013
      7 C         -65.7447  -53.9436  -24.6361 C.ar    1  UNL1        0.0503
      8 C         -65.6266  -53.3110  -23.3859 C.ar    1  UNL1        0.0147
      9 C         -64.7977  -52.1962  -23.2331 C.ar    1  UNL1        0.0013
     10 C         -64.0864  -51.6810  -24.3295 C.ar    1  UNL1        0.0001
     11 C         -64.2526  -52.2784  -25.5900 C.ar    1  UNL1        0.0013
     12 C         -65.0817  -53.3920  -25.7415 C.ar    1  UNL1        0.0147
     13 C         -67.9783  -55.1458  -24.8100 C.2     1  UNL1        0.2442
     14 O         -68.6394  -54.0776  -24.9180 O.2     1  UNL1       -0.2730
     15 N         -66.5404  -55.1282  -24.8187 N.am    1  UNL1       -0.2826
     16 H         -66.0517  -56.0488  -24.7410 H       1  UNL1        0.1549
     17 C         -70.6667  -55.7221  -23.1460 C.2     1  UNL1        0.2482
     18 O         -71.9176  -55.6061  -23.0297 O.2     1  UNL1       -0.2727
     19 N         -70.1256  -56.2194  -24.3893 N.am    1  UNL1       -0.2714
     20 C         -70.9821  -56.5965  -25.5032 C.3     1  UNL1        0.0939
     21 C         -70.0453  -56.9849  -26.6390 C.3     1  UNL1        0.0237
     22 C         -68.6890  -57.2336  -25.9880 C.3     1  UNL1        0.0310
     23 C         -68.7127  -56.4540  -24.6721 C.3     1  UNL1        0.1521
     24 C         -69.7774  -55.2894  -21.9926 C.3     1  UNL1        0.1743
     25 C         -70.4891  -55.1777  -20.6517 C.ar    1  UNL1        0.0044
     26 C         -70.6618  -53.9004  -20.0878 C.ar    1  UNL1       -0.0022
     27 C         -71.2983  -53.7465  -18.8529 C.ar    1  UNL1       -0.0003
     28 C         -71.7813  -54.8634  -18.1699 C.ar    1  UNL1       -0.0000
     29 C         -71.6073  -56.1391  -18.7095 C.ar    1  UNL1       -0.0003
     30 C         -70.9553  -56.3015  -19.9360 C.ar    1  UNL1       -0.0022
     31 C         -67.3915  -55.8183  -21.1824 C.2     1  UNL1        0.4023
     32 O         -67.2982  -54.7088  -20.5937 O.2     1  UNL1       -0.2264
     33 N         -68.6016  -56.1656  -21.8859 N.am    1  UNL1       -0.2606
     34 H         -68.6699  -57.0995  -22.3470 H       1  UNL1        0.1535
     35 C         -65.6622  -57.2338  -22.2835 C.3     1  UNL1        0.2573
     36 O         -66.2977  -56.6908  -21.1326 O.3     1  UNL1       -0.4306
     37 N         -60.6123  -47.1724  -23.5416 N.am    1  UNL1       -0.2825
     38 C         -59.9562  -46.3694  -24.5383 C.2     1  UNL1        0.2451
     39 O         -59.7930  -46.8061  -25.7089 O.2     1  UNL1       -0.2730
     40 H         -60.4413  -46.9247  -22.5405 H       1  UNL1        0.1549
     41 C         -59.3285  -45.0497  -24.1662 C.3     1  UNL1        0.1619
     42 C         -58.9233  -45.0490  -22.6848 C.3     1  UNL1        0.0726
     43 S         -57.1520  -45.4353  -22.4462 S.3     1  UNL1       -0.1666
     44 C         -59.2862  -43.6622  -22.1596 C.3     1  UNL1        0.0342
     45 C         -60.3786  -43.1533  -23.0885 C.3     1  UNL1        0.0948
     46 N         -60.2627  -43.9347  -24.3114 N.am    1  UNL1       -0.2707
     47 C         -60.8679  -43.4904  -25.5454 C.2     1  UNL1        0.2483
     48 O         -61.6374  -42.4898  -25.5246 O.2     1  UNL1       -0.2727
     49 H         -56.6949  -44.3545  -23.2255 H       1  UNL1        0.1023
     50 C         -60.6083  -44.1705  -26.8746 C.3     1  UNL1        0.1743
     51 C         -61.6874  -45.1646  -27.2815 C.ar    1  UNL1        0.0044
     52 C         -62.9516  -45.2333  -26.6547 C.ar    1  UNL1       -0.0022
     53 C         -63.9148  -46.1448  -27.0989 C.ar    1  UNL1       -0.0003
     54 C         -63.6418  -46.9845  -28.1798 C.ar    1  UNL1       -0.0000
     55 C         -62.4030  -46.9172  -28.8190 C.ar    1  UNL1       -0.0003
     56 C         -61.4327  -46.0138  -28.3749 C.ar    1  UNL1       -0.0022
     57 N         -60.4637  -43.1515  -27.9182 N.am    1  UNL1       -0.2606
     58 C         -61.5920  -42.5624  -28.5750 C.2     1  UNL1        0.4023
     59 O         -62.7652  -42.8738  -28.2288 O.2     1  UNL1       -0.2264
     60 H         -59.5104  -42.9174  -28.2787 H       1  UNL1        0.1535
     61 O         -61.3791  -41.6419  -29.6046 O.3     1  UNL1       -0.4306
     62 C         -61.4833  -40.2367  -29.4098 C.3     1  UNL1        0.2573
@<TRIPOS>BOND
     1    35    36    1
     2    36    31    1
     3    31    32    2
     4    31    33   am
     5    33    24    1
     6    24    17    1
     7    17    18    2
     8    17    19   am
     9    19    20    1
    10    20    21    1
    11    21    22    1
    12    22    23    1
    13    23    13    1
    14    13    14    2
    15    13    15   am
    16    15     7    1
    17     7     8   ar
    18     8     9   ar
    19     9    10   ar
    20    10     1    1
    21     1     2   ar
    22     2     3   ar
    23     3     4   ar
    24     4    37    1
    25    37    38   am
    26    38    39    2
    27    38    41    1
    28    41    42    1
    29    42    43    1
    30    42    44    1
    31    44    45    1
    32    45    46    1
    33    46    47   am
    34    47    48    2
    35    47    50    1
    36    50    57    1
    37    57    58   am
    38    58    59    2
    39    58    61    1
    40    61    62    1
    41    50    51    1
    42    51    52   ar
    43    52    53   ar
    44    53    54   ar
    45    54    55   ar
    46    55    56   ar
    47     4     5   ar
    48     5     6   ar
    49    10    11   ar
    50    11    12   ar
    51    24    25    1
    52    25    26   ar
    53    26    27   ar
    54    27    28   ar
    55    28    29   ar
    56    29    30   ar
    57    23    19    1
    58    12     7   ar
    59    30    25   ar
    60     6     1   ar
    61    46    41    1
    62    56    51   ar
    63    33    34    1
    64    15    16    1
    65    37    40    1
    66    43    49    1
    67    57    60    1
@<TRIPOS>MOLECULE
*****
 62 67 0 0 0
SMALL
GASTEIGER

@<TRIPOS>ATOM
      1 C         -63.4299  -50.3287  -25.0144 C.ar    1  UNL1        0.0001
      2 C         -63.1028  -50.5706  -23.6704 C.ar    1  UNL1        0.0013
      3 C         -63.6813  -51.6379  -22.9796 C.ar    1  UNL1        0.0147
      4 C         -64.5913  -52.4969  -23.6237 C.ar    1  UNL1        0.0503
      5 C         -64.9142  -52.2539  -24.9672 C.ar    1  UNL1        0.0147
      6 C         -64.3368  -51.1857  -25.6584 C.ar    1  UNL1        0.0013
      7 C         -61.7952  -46.9241  -27.0776 C.ar    1  UNL1        0.0503
      8 C         -61.4166  -47.2011  -25.7521 C.ar    1  UNL1        0.0147
      9 C         -61.9406  -48.3116  -25.0847 C.ar    1  UNL1        0.0013
     10 C         -62.8371  -49.1764  -25.7342 C.ar    1  UNL1        0.0001
     11 C         -63.1672  -48.9308  -27.0774 C.ar    1  UNL1        0.0013
     12 C         -62.6424  -47.8211  -27.7434 C.ar    1  UNL1        0.0147
     13 C         -62.1535  -44.9169  -28.5967 C.2     1  UNL1        0.2442
     14 O         -63.4107  -44.9881  -28.5334 O.2     1  UNL1       -0.2730
     15 N         -61.3241  -45.7583  -27.7769 N.am    1  UNL1       -0.2826
     16 H         -60.2895  -45.6397  -27.8653 H       1  UNL1        0.1549
     17 C         -60.5319  -42.2424  -27.8579 C.2     1  UNL1        0.2482
     18 O         -59.4849  -41.6945  -27.4159 O.2     1  UNL1       -0.2727
     19 N         -60.4118  -43.2385  -28.8967 N.am    1  UNL1       -0.2714
     20 C         -59.1213  -43.6189  -29.4502 C.3     1  UNL1        0.0939
     21 C         -59.4050  -44.7369  -30.4443 C.3     1  UNL1        0.0237
     22 C         -60.8981  -44.6539  -30.7429 C.3     1  UNL1        0.0310
     23 C         -61.5199  -43.9330  -29.5456 C.3     1  UNL1        0.1521
     24 C         -61.8719  -41.8681  -27.2473 C.3     1  UNL1        0.1743
     25 C         -62.9423  -41.4815  -28.2581 C.ar    1  UNL1        0.0044
     26 C         -64.2862  -41.7663  -27.9546 C.ar    1  UNL1       -0.0022
     27 C         -65.3046  -41.4417  -28.8553 C.ar    1  UNL1       -0.0003
     28 C         -64.9971  -40.8183  -30.0653 C.ar    1  UNL1       -0.0000
     29 C         -63.6676  -40.5399  -30.3874 C.ar    1  UNL1       -0.0003
     30 C         -62.6424  -40.8784  -29.4986 C.ar    1  UNL1       -0.0022
     31 C         -61.8806  -43.1527  -25.0161 C.2     1  UNL1        0.4023
     32 O         -61.0066  -42.3913  -24.5237 O.2     1  UNL1       -0.2264
     33 N         -62.3555  -42.9364  -26.3606 N.am    1  UNL1       -0.2606
     34 H         -63.0980  -43.5625  -26.7430 H       1  UNL1        0.1535
     35 C         -61.7488  -44.6477  -23.0276 C.3     1  UNL1        0.2573
     36 O         -62.3690  -44.2011  -24.2272 O.3     1  UNL1       -0.4306
     37 N         -65.2673  -53.5607  -22.9254 N.am    1  UNL1       -0.2825
     38 C         -66.6924  -53.6833  -22.7744 C.2     1  UNL1        0.2451
     39 O         -67.4442  -52.6871  -22.9475 O.2     1  UNL1       -0.2730
     40 H         -64.6743  -54.2908  -22.4692 H       1  UNL1        0.1549
     41 C         -67.3009  -54.9679  -22.2709 C.3     1  UNL1        0.1619
     42 C         -66.4311  -55.5716  -21.1584 C.3     1  UNL1        0.0726
     43 S         -67.0513  -55.1609  -19.4880 S.3     1  UNL1       -0.1666
     44 C         -66.4208  -57.0766  -21.4149 C.3     1  UNL1        0.0342
     45 C         -66.7242  -57.2340  -22.8976 C.3     1  UNL1        0.0948
     46 N         -67.3634  -55.9930  -23.3111 N.am    1  UNL1       -0.2707
     47 C         -68.1269  -55.9143  -24.5348 C.2     1  UNL1        0.2483
     48 O         -68.1090  -56.8931  -25.3319 O.2     1  UNL1       -0.2727
     49 H         -68.3154  -55.7490  -19.6892 H       1  UNL1        0.1023
     50 C         -68.9633  -54.7045  -24.9001 C.3     1  UNL1        0.1743
     51 C         -69.4964  -54.7294  -26.3261 C.ar    1  UNL1        0.0044
     52 C         -68.8768  -55.4506  -27.3710 C.ar    1  UNL1       -0.0022
     53 C         -69.4363  -55.4637  -28.6527 C.ar    1  UNL1       -0.0003
     54 C         -70.6246  -54.7776  -28.9075 C.ar    1  UNL1       -0.0000
     55 C         -71.2566  -54.0736  -27.8815 C.ar    1  UNL1       -0.0003
     56 C         -70.6984  -54.0498  -26.5999 C.ar    1  UNL1       -0.0022
     57 N         -70.0832  -54.5905  -23.9614 N.am    1  UNL1       -0.2606
     58 C         -70.9622  -55.6861  -23.6812 C.2     1  UNL1        0.4023
     59 O         -70.7600  -56.8159  -24.2064 O.2     1  UNL1       -0.2264
     60 H         -70.3232  -53.6554  -23.5596 H       1  UNL1        0.1535
     61 O         -72.0471  -55.4890  -22.8227 O.3     1  UNL1       -0.4306
     62 C         -71.9125  -55.4839  -21.4066 C.3     1  UNL1        0.2573
@<TRIPOS>BOND
     1    35    36    1
     2    36    31    1
     3    31    32    2
     4    31    33   am
     5    33    24    1
     6    24    17    1
     7    17    18    2
     8    17    19   am
     9    19    20    1
    10    20    21    1
    11    21    22    1
    12    22    23    1
    13    23    13    1
    14    13    14    2
    15    13    15   am
    16    15     7    1
    17     7     8   ar
    18     8     9   ar
    19     9    10   ar
    20    10     1    1
    21     1     2   ar
    22     2     3   ar
    23     3     4   ar
    24     4    37    1
    25    37    38   am
    26    38    39    2
    27    38    41    1
    28    41    42    1
    29    42    43    1
    30    42    44    1
    31    44    45    1
    32    45    46    1
    33    46    47   am
    34    47    48    2
    35    47    50    1
    36    50    57    1
    37    57    58   am
    38    58    59    2
    39    58    61    1
    40    61    62    1
    41    50    51    1
    42    51    52   ar
    43    52    53   ar
    44    53    54   ar
    45    54    55   ar
    46    55    56   ar
    47     4     5   ar
    48     5     6   ar
    49    10    11   ar
    50    11    12   ar
    51    24    25    1
    52    25    26   ar
    53    26    27   ar
    54    27    28   ar
    55    28    29   ar
    56    29    30   ar
    57    23    19    1
    58    12     7   ar
    59    30    25   ar
    60     6     1   ar
    61    46    41    1
    62    56    51   ar
    63    33    34    1
    64    15    16    1
    65    37    40    1
    66    43    49    1
    67    57    60    1
@<TRIPOS>MOLECULE
*****
 62 67 0 0 0
SMALL
GASTEIGER

@<TRIPOS>ATOM
      1 C         -63.2956  -50.5076  -24.4116 C.ar    1  UNL1        0.0001
      2 C         -63.6578  -49.2736  -24.9754 C.ar    1  UNL1        0.0013
      3 C         -62.7976  -48.1761  -24.8950 C.ar    1  UNL1        0.0147
      4 C         -61.5474  -48.2929  -24.2593 C.ar    1  UNL1        0.0503
      5 C         -61.1874  -49.5278  -23.6990 C.ar    1  UNL1        0.0147
      6 C         -62.0479  -50.6258  -23.7781 C.ar    1  UNL1        0.0013
      7 C         -65.9097  -53.9224  -24.5717 C.ar    1  UNL1        0.0503
      8 C         -65.7454  -53.2087  -23.3715 C.ar    1  UNL1        0.0147
      9 C         -64.9033  -52.0944  -23.3213 C.ar    1  UNL1        0.0013
     10 C         -64.2248  -51.6609  -24.4724 C.ar    1  UNL1        0.0001
     11 C         -64.4373  -52.3398  -25.6838 C.ar    1  UNL1        0.0013
     12 C         -65.2795  -53.4528  -25.7328 C.ar    1  UNL1        0.0147
     13 C         -68.1548  -55.1157  -24.5496 C.2     1  UNL1        0.2442
     14 O         -68.8169  -54.0491  -24.6673 O.2     1  UNL1       -0.2730
     15 N         -66.7201  -55.1087  -24.6481 N.am    1  UNL1       -0.2826
     16 H         -66.2313  -56.0280  -24.5571 H       1  UNL1        0.1549
     17 C         -70.6943  -55.6072  -22.6424 C.2     1  UNL1        0.2482
     18 O         -71.9296  -55.4741  -22.4233 O.2     1  UNL1       -0.2727
     19 N         -70.2661  -56.1517  -23.9097 N.am    1  UNL1       -0.2714
     20 C         -71.2181  -56.5569  -24.9324 C.3     1  UNL1        0.0939
     21 C         -70.3856  -56.9931  -26.1304 C.3     1  UNL1        0.0237
     22 C         -68.9802  -57.2342  -25.5899 C.3     1  UNL1        0.0310
     23 C         -68.8846  -56.4106  -24.3044 C.3     1  UNL1        0.1521
     24 C         -69.7058  -55.1454  -21.5851 C.3     1  UNL1        0.1743
     25 C         -70.3047  -54.9544  -20.1988 C.ar    1  UNL1        0.0044
     26 C         -70.8076  -53.6867  -19.8537 C.ar    1  UNL1       -0.0022
     27 C         -71.3566  -53.4577  -18.5888 C.ar    1  UNL1       -0.0003
     28 C         -71.4217  -54.4932  -17.6557 C.ar    1  UNL1       -0.0000
     29 C         -70.9160  -55.7540  -17.9776 C.ar    1  UNL1       -0.0003
     30 C         -70.3491  -55.9847  -19.2350 C.ar    1  UNL1       -0.0022
     31 C         -67.2294  -55.6488  -21.0926 C.2     1  UNL1        0.4023
     32 O         -67.0201  -54.4677  -20.7086 O.2     1  UNL1       -0.2264
     33 N         -68.5449  -56.0458  -21.5305 N.am    1  UNL1       -0.2606
     34 H         -68.7052  -57.0353  -21.8218 H       1  UNL1        0.1535
     35 C         -65.2400  -56.7063  -22.1558 C.3     1  UNL1        0.2573
     36 O         -66.1586  -56.5507  -21.0811 O.3     1  UNL1       -0.4306
     37 N         -60.6659  -47.1660  -24.0879 N.am    1  UNL1       -0.2825
     38 C         -61.0486  -45.7845  -24.2061 C.2     1  UNL1        0.2451
     39 O         -62.1083  -45.4612  -24.8063 O.2     1  UNL1       -0.2730
     40 H         -59.6603  -47.3672  -23.8857 H       1  UNL1        0.1549
     41 C         -60.1218  -44.6910  -23.7379 C.3     1  UNL1        0.1619
     42 C         -59.0982  -45.2491  -22.7381 C.3     1  UNL1        0.0726
     43 S         -57.4949  -45.6389  -23.5261 S.3     1  UNL1       -0.1666
     44 C         -58.9623  -44.1854  -21.6514 C.3     1  UNL1        0.0342
     45 C         -60.2607  -43.3936  -21.6988 C.3     1  UNL1        0.0948
     46 N         -60.8327  -43.6379  -23.0152 N.am    1  UNL1       -0.2707
     47 C         -61.8506  -42.7717  -23.5630 C.2     1  UNL1        0.2483
     48 O         -62.3601  -41.8827  -22.8255 O.2     1  UNL1       -0.2727
     49 H         -57.2742  -44.3266  -23.9881 H       1  UNL1        0.1023
     50 C         -62.3283  -42.8768  -24.9974 C.3     1  UNL1        0.1743
     51 C         -63.4738  -41.9334  -25.3381 C.ar    1  UNL1        0.0044
     52 C         -63.9274  -41.7125  -26.6576 C.ar    1  UNL1       -0.0022
     53 C         -65.0094  -40.8609  -26.9024 C.ar    1  UNL1       -0.0003
     54 C         -65.6642  -40.2340  -25.8412 C.ar    1  UNL1       -0.0000
     55 C         -65.2374  -40.4549  -24.5309 C.ar    1  UNL1       -0.0003
     56 C         -64.1513  -41.2988  -24.2798 C.ar    1  UNL1       -0.0022
     57 N         -61.2020  -42.6246  -25.9009 N.am    1  UNL1       -0.2606
     58 C         -61.0436  -43.3236  -27.1410 C.2     1  UNL1        0.4023
     59 O         -61.9151  -44.1543  -27.5202 O.2     1  UNL1       -0.2264
     60 H         -60.4265  -41.9952  -25.5914 H       1  UNL1        0.1535
     61 O         -59.9127  -43.0775  -27.9241 O.3     1  UNL1       -0.4306
     62 C         -59.6121  -43.8294  -29.0936 C.3     1  UNL1        0.2573
@<TRIPOS>BOND
     1    35    36    1
     2    36    31    1
     3    31    32    2
     4    31    33   am
     5    33    24    1
     6    24    17    1
     7    17    18    2
     8    17    19   am
     9    19    20    1
    10    20    21    1
    11    21    22    1
    12    22    23    1
    13    23    13    1
    14    13    14    2
    15    13    15   am
    16    15     7    1
    17     7     8   ar
    18     8     9   ar
    19     9    10   ar
    20    10     1    1
    21     1     2   ar
    22     2     3   ar
    23     3     4   ar
    24     4    37    1
    25    37    38   am
    26    38    39    2
    27    38    41    1
    28    41    42    1
    29    42    43    1
    30    42    44    1
    31    44    45    1
    32    45    46    1
    33    46    47   am
    34    47    48    2
    35    47    50    1
    36    50    57    1
    37    57    58   am
    38    58    59    2
    39    58    61    1
    40    61    62    1
    41    50    51    1
    42    51    52   ar
    43    52    53   ar
    44    53    54   ar
    45    54    55   ar
    46    55    56   ar
    47     4     5   ar
    48     5     6   ar
    49    10    11   ar
    50    11    12   ar
    51    24    25    1
    52    25    26   ar
    53    26    27   ar
    54    27    28   ar
    55    28    29   ar
    56    29    30   ar
    57    23    19    1
    58    12     7   ar
    59    30    25   ar
    60     6     1   ar
    61    46    41    1
    62    56    51   ar
    63    33    34    1
    64    15    16    1
    65    37    40    1
    66    43    49    1
    67    57    60    1
@<TRIPOS>MOLECULE
*****
 62 67 0 0 0
SMALL
GASTEIGER

@<TRIPOS>ATOM
      1 C         -63.4919  -50.7885  -24.3622 C.ar    1  UNL1        0.0001
      2 C         -63.5332  -49.7384  -25.2934 C.ar    1  UNL1        0.0013
      3 C         -62.6611  -48.6533  -25.1795 C.ar    1  UNL1        0.0147
      4 C         -61.7171  -48.6016  -24.1370 C.ar    1  UNL1        0.0503
      5 C         -61.6768  -49.6535  -23.2095 C.ar    1  UNL1        0.0147
      6 C         -62.5497  -50.7387  -23.3223 C.ar    1  UNL1        0.0013
      7 C         -66.1628  -54.1502  -24.6565 C.ar    1  UNL1        0.0503
      8 C         -66.0142  -53.4649  -23.4377 C.ar    1  UNL1        0.0147
      9 C         -65.1535  -52.3678  -23.3440 C.ar    1  UNL1        0.0013
     10 C         -64.4402  -51.9229  -24.4694 C.ar    1  UNL1        0.0001
     11 C         -64.6361  -52.5722  -25.6997 C.ar    1  UNL1        0.0013
     12 C         -65.4969  -53.6680  -25.7921 C.ar    1  UNL1        0.0147
     13 C         -68.4204  -55.2838  -24.9448 C.2     1  UNL1        0.2442
     14 O         -69.0070  -54.2179  -25.2754 O.2     1  UNL1       -0.2730
     15 N         -66.9925  -55.3193  -24.7771 N.am    1  UNL1       -0.2826
     16 H         -66.5655  -56.2372  -24.5175 H       1  UNL1        0.1549
     17 C         -70.7985  -55.7333  -22.8305 C.2     1  UNL1        0.2482
     18 O         -71.9908  -55.5219  -22.4761 O.2     1  UNL1       -0.2727
     19 N         -70.5430  -56.2001  -24.1731 N.am    1  UNL1       -0.2714
     20 C         -71.6204  -56.4399  -25.1208 C.3     1  UNL1        0.0939
     21 C         -70.9478  -56.8371  -26.4279 C.3     1  UNL1        0.0237
     22 C         -69.5235  -57.2339  -26.0546 C.3     1  UNL1        0.0310
     23 C         -69.2336  -56.5331  -24.7262 C.3     1  UNL1        0.1521
     24 C         -69.6767  -55.4431  -21.8478 C.3     1  UNL1        0.1743
     25 C         -70.1104  -55.3889  -20.3898 C.ar    1  UNL1        0.0044
     26 C         -70.5008  -56.5851  -19.7607 C.ar    1  UNL1       -0.0022
     27 C         -70.9186  -56.5856  -18.4267 C.ar    1  UNL1       -0.0003
     28 C         -70.9413  -55.3949  -17.6996 C.ar    1  UNL1       -0.0000
     29 C         -70.5689  -54.1970  -18.3123 C.ar    1  UNL1       -0.0003
     30 C         -70.1672  -54.1870  -19.6517 C.ar    1  UNL1       -0.0022
     31 C         -67.2350  -56.1914  -21.5211 C.2     1  UNL1        0.4023
     32 O         -66.9580  -55.1524  -20.8656 O.2     1  UNL1       -0.2264
     33 N         -68.5704  -56.3948  -22.0263 N.am    1  UNL1       -0.2606
     34 H         -68.7876  -57.2735  -22.5462 H       1  UNL1        0.1535
     35 C         -64.9082  -56.7916  -22.1785 C.3     1  UNL1        0.2573
     36 O         -66.2187  -57.1290  -21.7406 O.3     1  UNL1       -0.4306
     37 N         -60.8535  -47.4649  -23.9402 N.am    1  UNL1       -0.2825
     38 C         -60.4183  -46.5619  -24.9716 C.2     1  UNL1        0.2451
     39 O         -60.4821  -46.8950  -26.1851 O.2     1  UNL1       -0.2730
     40 H         -60.4926  -47.2956  -22.9739 H       1  UNL1        0.1549
     41 C         -59.7493  -45.2583  -24.6151 C.3     1  UNL1        0.1619
     42 C         -58.9261  -45.4142  -23.3279 C.3     1  UNL1        0.0726
     43 S         -57.1522  -45.7023  -23.6653 S.3     1  UNL1       -0.1666
     44 C         -59.1602  -44.1325  -22.5320 C.3     1  UNL1        0.0342
     45 C         -60.4926  -43.5893  -23.0268 C.3     1  UNL1        0.0948
     46 N         -60.7182  -44.2020  -24.3281 N.am    1  UNL1       -0.2707
     47 C         -61.6731  -43.6506  -25.2611 C.2     1  UNL1        0.2483
     48 O         -62.4324  -42.7168  -24.8802 O.2     1  UNL1       -0.2727
     49 H         -56.9778  -44.5034  -24.3840 H       1  UNL1        0.1023
     50 C         -61.7958  -44.1397  -26.6903 C.3     1  UNL1        0.1743
     51 C         -62.7345  -43.3050  -27.5507 C.ar    1  UNL1        0.0044
     52 C         -62.5201  -41.9359  -27.8250 C.ar    1  UNL1       -0.0022
     53 C         -63.4001  -41.2323  -28.6536 C.ar    1  UNL1       -0.0003
     54 C         -64.4907  -41.8823  -29.2332 C.ar    1  UNL1       -0.0000
     55 C         -64.7066  -43.2384  -28.9840 C.ar    1  UNL1       -0.0003
     56 C         -63.8353  -43.9458  -28.1502 C.ar    1  UNL1       -0.0022
     57 N         -60.4660  -44.1705  -27.3058 N.am    1  UNL1       -0.2606
     58 C         -60.2306  -44.7557  -28.5918 C.2     1  UNL1        0.4023
     59 O         -61.1908  -45.2230  -29.2647 O.2     1  UNL1       -0.2264
     60 H         -59.6366  -43.8554  -26.7524 H       1  UNL1        0.1535
     61 O         -58.9263  -44.8059  -29.0909 O.3     1  UNL1       -0.4306
     62 C         -58.6374  -44.7821  -30.4836 C.3     1  UNL1        0.2573
@<TRIPOS>BOND
     1    35    36    1
     2    36    31    1
     3    31    32    2
     4    31    33   am
     5    33    24    1
     6    24    17    1
     7    17    18    2
     8    17    19   am
     9    19    20    1
    10    20    21    1
    11    21    22    1
    12    22    23    1
    13    23    13    1
    14    13    14    2
    15    13    15   am
    16    15     7    1
    17     7     8   ar
    18     8     9   ar
    19     9    10   ar
    20    10     1    1
    21     1     2   ar
    22     2     3   ar
    23     3     4   ar
    24     4    37    1
    25    37    38   am
    26    38    39    2
    27    38    41    1
    28    41    42    1
    29    42    43    1
    30    42    44    1
    31    44    45    1
    32    45    46    1
    33    46    47   am
    34    47    48    2
    35    47    50    1
    36    50    57    1
    37    57    58   am
    38    58    59    2
    39    58    61    1
    40    61    62    1
    41    50    51    1
    42    51    52   ar
    43    52    53   ar
    44    53    54   ar
    45    54    55   ar
    46    55    56   ar
    47     4     5   ar
    48     5     6   ar
    49    10    11   ar
    50    11    12   ar
    51    24    25    1
    52    25    26   ar
    53    26    27   ar
    54    27    28   ar
    55    28    29   ar
    56    29    30   ar
    57    23    19    1
    58    12     7   ar
    59    30    25   ar
    60     6     1   ar
    61    46    41    1
    62    56    51   ar
    63    33    34    1
    64    15    16    1
    65    37    40    1
    66    43    49    1
    67    57    60    1
