@<TRIPOS>MOLECULE
*****
 45 50 0 0 0
SMALL
GASTEIGER

@<TRIPOS>ATOM
      1 C          61.8366   87.5255   10.1000 C.ar    1  UNL1        0.0702
      2 C          60.8312   87.8040    9.1664 C.ar    1  UNL1        0.0191
      3 C          59.9925   86.7862    8.7103 C.ar    1  UNL1        0.0356
      4 C          60.1814   85.4743    9.1727 C.ar    1  UNL1        0.1318
      5 N          61.1715   85.2240   10.0740 N.ar    1  UNL1       -0.2279
      6 C          61.9967   86.2003   10.5360 C.ar    1  UNL1        0.1149
      7 N          59.3228   84.4010    8.7425 N.pl3   1  UNL1       -0.2932
      8 C          57.9164   84.3263    9.1625 C.3     1  UNL1        0.0923
      9 C          57.5788   82.9233    9.6956 C.3     1  UNL1        0.0252
     10 C          58.3835   81.7898    9.0044 C.3     1  UNL1        0.0472
     11 C          58.8938   82.2247    7.6167 C.3     1  UNL1        0.0252
     12 C          59.8287   83.4360    7.7549 C.3     1  UNL1        0.0923
     13 C          57.5423   80.5019    8.9097 C.3     1  UNL1        0.2054
     14 O          57.7865   79.6402   10.0230 O.3     1  UNL1       -0.4755
     15 C          58.7799   79.8252   10.9990 C.ar    1  UNL1        0.1388
     16 C          58.4176   79.6773   12.3404 C.ar    1  UNL1        0.0378
     17 C          59.3597   79.8553   13.3542 C.ar    1  UNL1        0.0147
     18 C          60.6849   80.1767   13.0429 C.ar    1  UNL1        0.0641
     19 CL         61.7936   80.4873   14.3756 Cl      1  UNL1       -0.0820
     20 C          61.0741   80.3152   11.6929 C.ar    1  UNL1        0.0890
     21 C          60.1114   80.1564   10.6806 C.ar    1  UNL1        0.0442
     22 C          62.4653   80.6386   11.3104 C.2     1  UNL1        0.3390
     23 O          62.8602   80.4063   10.1373 O.2     1  UNL1       -0.2451
     24 O          63.3687   81.1530   12.2373 O.3     1  UNL1       -0.4771
     25 H          63.1320   81.2398   13.2181 H       1  UNL1        0.2954
     26 C          62.4581   89.3928   11.7039 C.2     1  UNL1        0.2839
     27 O          61.3226   89.3878   12.2510 O.2     1  UNL1       -0.2665
     28 N          62.7065   88.5805   10.5451 N.am    1  UNL1       -0.2766
     29 H          63.5236   88.8249    9.9409 H       1  UNL1        0.1553
     30 C          64.2335   88.9012   14.3269 C.3     1  UNL1        0.0345
     31 C          64.3027   90.0552   13.3726 C.ar    1  UNL1        0.0202
     32 C          63.5250   90.2663   12.2284 C.ar    1  UNL1        0.1946
     33 O          63.8797   91.3966   11.6431 O.2     1  UNL1       -0.4492
     34 C          64.8463   91.9300   12.3493 C.ar    1  UNL1        0.1452
     35 C          65.5158   93.1225   12.0983 C.ar    1  UNL1        0.0375
     36 C          66.5278   93.5123   12.9926 C.ar    1  UNL1        0.0031
     37 C          66.8544   92.7089   14.1184 C.ar    1  UNL1        0.0002
     38 C          66.1486   91.5014   14.3372 C.ar    1  UNL1        0.0028
     39 C          65.1503   91.1451   13.4292 C.ar    1  UNL1        0.0337
     40 C          67.9253   93.1311   15.0564 C.ar    1  UNL1        0.0000
     41 C          68.7279   92.1728   15.7045 C.ar    1  UNL1        0.0000
     42 C          69.7356   92.5733   16.5873 C.ar    1  UNL1        0.0000
     43 C          69.9530   93.9306   16.8340 C.ar    1  UNL1        0.0000
     44 C          69.1633   94.8907   16.1977 C.ar    1  UNL1        0.0000
     45 C          68.1548   94.4963   15.3132 C.ar    1  UNL1        0.0000
@<TRIPOS>BOND
     1    30    31    1
     2    31    32   ar
     3    32    26    1
     4    26    27    2
     5    26    28   am
     6    28     1    1
     7     1     2   ar
     8     2     3   ar
     9     3     4   ar
    10     4     7    1
    11     7     8    1
    12     8     9    1
    13     9    10    1
    14    10    13    1
    15    13    14    1
    16    14    15    1
    17    15    16   ar
    18    16    17   ar
    19    17    18   ar
    20    18    19    1
    21    18    20   ar
    22    20    22    1
    23    22    23    2
    24    22    24    1
    25    20    21   ar
    26    10    11    1
    27    11    12    1
    28     4     5   ar
    29     5     6   ar
    30    32    33   ar
    31    33    34   ar
    32    34    35   ar
    33    35    36   ar
    34    36    37   ar
    35    37    40    1
    36    40    41   ar
    37    41    42   ar
    38    42    43   ar
    39    43    44   ar
    40    44    45   ar
    41    37    38   ar
    42    38    39   ar
    43    39    31   ar
    44     6     1   ar
    45    39    34   ar
    46    12     7    1
    47    45    40   ar
    48    21    15   ar
    49    28    29    1
    50    24    25    1
@<TRIPOS>MOLECULE
*****
 45 50 0 0 0
SMALL
GASTEIGER

@<TRIPOS>ATOM
      1 C          61.9367   87.6684    9.8223 C.ar    1  UNL1        0.0702
      2 C          62.3982   86.3467    9.8326 C.ar    1  UNL1        0.0191
      3 C          61.5907   85.3153    9.3514 C.ar    1  UNL1        0.0356
      4 C          60.3004   85.6079    8.8821 C.ar    1  UNL1        0.1318
      5 N          59.8682   86.8995    8.8897 N.ar    1  UNL1       -0.2279
      6 C          60.6390   87.9207    9.3487 C.ar    1  UNL1        0.1149
      7 N          59.4455   84.5745    8.3574 N.pl3   1  UNL1       -0.2932
      8 C          58.0038   84.5513    8.6423 C.3     1  UNL1        0.0923
      9 C          57.5634   83.1571    9.1206 C.3     1  UNL1        0.0252
     10 C          58.3853   82.0001    8.4916 C.3     1  UNL1        0.0472
     11 C          59.0410   82.4295    7.1645 C.3     1  UNL1        0.0252
     12 C          60.0048   83.6010    7.4077 C.3     1  UNL1        0.0923
     13 C          57.5077   80.7479    8.2993 C.3     1  UNL1        0.2054
     14 O          57.6909   79.8174    9.3681 O.3     1  UNL1       -0.4755
     15 C          58.6068   79.9541   10.4245 C.ar    1  UNL1        0.1388
     16 C          59.8771   80.4567   10.1310 C.ar    1  UNL1        0.0378
     17 C          60.8309   80.6085   11.1381 C.ar    1  UNL1        0.0147
     18 C          60.5273   80.2674   12.4601 C.ar    1  UNL1        0.0641
     19 CL         61.8117   80.3881   13.6592 Cl      1  UNL1       -0.0820
     20 C          59.2442   79.7725   12.7794 C.ar    1  UNL1        0.0890
     21 C          58.2986   79.6019   11.7531 C.ar    1  UNL1        0.0442
     22 C          58.8684   79.4123   14.1633 C.2     1  UNL1        0.3390
     23 O          58.7471   80.3157   15.0325 O.2     1  UNL1       -0.2451
     24 O          58.6912   78.0836   14.5416 O.3     1  UNL1       -0.4771
     25 H          58.8980   77.3194   13.9103 H       1  UNL1        0.2954
     26 C          62.5402   89.3869   11.5910 C.2     1  UNL1        0.2839
     27 O          61.4353   89.2593   12.1839 O.2     1  UNL1       -0.2665
     28 N          62.7720   88.7178   10.3408 N.am    1  UNL1       -0.2766
     29 H          63.5442   89.0711    9.7314 H       1  UNL1        0.1553
     30 C          64.2889   88.8334   14.2196 C.3     1  UNL1        0.0345
     31 C          64.3514   90.0208   13.3067 C.ar    1  UNL1        0.0202
     32 C          63.5854   90.2589   12.1599 C.ar    1  UNL1        0.1946
     33 O          63.9288   91.4144   11.6189 O.2     1  UNL1       -0.4492
     34 C          64.8771   91.9386   12.3563 C.ar    1  UNL1        0.1452
     35 C          65.5298   93.1498   12.1557 C.ar    1  UNL1        0.0375
     36 C          66.5232   93.5247   13.0767 C.ar    1  UNL1        0.0031
     37 C          66.8484   92.6881   14.1785 C.ar    1  UNL1        0.0002
     38 C          66.1600   91.4624   14.3458 C.ar    1  UNL1        0.0028
     39 C          65.1799   91.1217   13.4125 C.ar    1  UNL1        0.0337
     40 C          67.8997   93.0948   15.1452 C.ar    1  UNL1        0.0000
     41 C          68.2029   94.4556   15.3423 C.ar    1  UNL1        0.0000
     42 C          69.1934   94.8357   16.2531 C.ar    1  UNL1        0.0000
     43 C          69.8917   93.8654   16.9751 C.ar    1  UNL1        0.0000
     44 C          69.6006   92.5123   16.7881 C.ar    1  UNL1        0.0000
     45 C          68.6105   92.1263   15.8793 C.ar    1  UNL1        0.0000
@<TRIPOS>BOND
     1    30    31    1
     2    31    32   ar
     3    32    26    1
     4    26    27    2
     5    26    28   am
     6    28     1    1
     7     1     2   ar
     8     2     3   ar
     9     3     4   ar
    10     4     7    1
    11     7     8    1
    12     8     9    1
    13     9    10    1
    14    10    13    1
    15    13    14    1
    16    14    15    1
    17    15    16   ar
    18    16    17   ar
    19    17    18   ar
    20    18    19    1
    21    18    20   ar
    22    20    22    1
    23    22    23    2
    24    22    24    1
    25    20    21   ar
    26    10    11    1
    27    11    12    1
    28     4     5   ar
    29     5     6   ar
    30    32    33   ar
    31    33    34   ar
    32    34    35   ar
    33    35    36   ar
    34    36    37   ar
    35    37    40    1
    36    40    41   ar
    37    41    42   ar
    38    42    43   ar
    39    43    44   ar
    40    44    45   ar
    41    37    38   ar
    42    38    39   ar
    43    39    31   ar
    44     6     1   ar
    45    39    34   ar
    46    12     7    1
    47    45    40   ar
    48    21    15   ar
    49    28    29    1
    50    24    25    1
@<TRIPOS>MOLECULE
*****
 45 50 0 0 0
SMALL
GASTEIGER

@<TRIPOS>ATOM
      1 C          60.3604   89.1873    8.1848 C.ar    1  UNL1        0.0702
      2 C          60.0130   87.8380    8.3218 C.ar    1  UNL1        0.0191
      3 C          59.8464   87.2791    9.5896 C.ar    1  UNL1        0.0356
      4 C          60.0568   88.0721   10.7287 C.ar    1  UNL1        0.1318
      5 N          60.4032   89.3801   10.5725 N.ar    1  UNL1       -0.2279
      6 C          60.5659   89.9470    9.3478 C.ar    1  UNL1        0.1149
      7 N          59.8734   87.5379   12.0535 N.pl3   1  UNL1       -0.2932
      8 C          59.1518   88.2877   13.0915 C.3     1  UNL1        0.0923
      9 C          59.9592   88.3244   14.4004 C.3     1  UNL1        0.0252
     10 C          60.8228   87.0548   14.6293 C.3     1  UNL1        0.0472
     11 C          60.2783   85.8508   13.8361 C.3     1  UNL1        0.0252
     12 C          60.2998   86.1582   12.3309 C.3     1  UNL1        0.0923
     13 C          60.9286   86.7295   16.1320 C.3     1  UNL1        0.2054
     14 O          61.9868   87.4656   16.7485 O.3     1  UNL1       -0.4755
     15 C          62.8361   88.3773   16.0996 C.ar    1  UNL1        0.1388
     16 C          63.5019   87.9487   14.9483 C.ar    1  UNL1        0.0378
     17 C          64.3635   88.8077   14.2649 C.ar    1  UNL1        0.0147
     18 C          64.5678   90.1152   14.7174 C.ar    1  UNL1        0.0641
     19 CL         65.7464   91.1086   13.8652 Cl      1  UNL1       -0.0820
     20 C          63.8922   90.5719   15.8698 C.ar    1  UNL1        0.0890
     21 C          63.0445   89.6907   16.5637 C.ar    1  UNL1        0.0442
     22 C          64.0618   91.9493   16.3800 C.2     1  UNL1        0.3390
     23 O          63.0583   92.5918   16.7882 O.2     1  UNL1       -0.2451
     24 O          65.3067   92.5740   16.3747 O.3     1  UNL1       -0.4771
     25 H          66.1154   92.1432   15.9436 H       1  UNL1        0.2954
     26 C          59.5138   90.3950    6.1184 C.2     1  UNL1        0.2839
     27 O          58.3083   90.2861    6.4701 O.2     1  UNL1       -0.2665
     28 N          60.5491   89.7438    6.8724 N.am    1  UNL1       -0.2766
     29 H          61.4720   89.5899    6.4066 H       1  UNL1        0.1553
     30 C          62.3687   90.5069    4.6657 C.3     1  UNL1        0.0345
     31 C          61.1060   91.2100    4.2674 C.ar    1  UNL1        0.0202
     32 C          59.8613   91.1589    4.9051 C.ar    1  UNL1        0.1946
     33 O          58.9902   91.9119    4.2570 O.2     1  UNL1       -0.4492
     34 C          59.6060   92.4497    3.2327 C.ar    1  UNL1        0.1452
     35 C          59.0696   93.3129    2.2837 C.ar    1  UNL1        0.0375
     36 C          59.9146   93.7766    1.2607 C.ar    1  UNL1        0.0031
     37 C          61.2759   93.3729    1.2011 C.ar    1  UNL1        0.0002
     38 C          61.7822   92.4922    2.1870 C.ar    1  UNL1        0.0028
     39 C          60.9152   92.0515    3.1880 C.ar    1  UNL1        0.0337
     40 C          62.1592   93.8697    0.1156 C.ar    1  UNL1        0.0000
     41 C          63.5596   93.7944    0.2415 C.ar    1  UNL1        0.0000
     42 C          64.3889   94.2629   -0.7821 C.ar    1  UNL1        0.0000
     43 C          63.8324   94.8114   -1.9396 C.ar    1  UNL1        0.0000
     44 C          62.4448   94.8922   -2.0762 C.ar    1  UNL1        0.0000
     45 C          61.6105   94.4244   -1.0563 C.ar    1  UNL1        0.0000
@<TRIPOS>BOND
     1    30    31    1
     2    31    32   ar
     3    32    26    1
     4    26    27    2
     5    26    28   am
     6    28     1    1
     7     1     2   ar
     8     2     3   ar
     9     3     4   ar
    10     4     7    1
    11     7     8    1
    12     8     9    1
    13     9    10    1
    14    10    13    1
    15    13    14    1
    16    14    15    1
    17    15    16   ar
    18    16    17   ar
    19    17    18   ar
    20    18    19    1
    21    18    20   ar
    22    20    22    1
    23    22    23    2
    24    22    24    1
    25    20    21   ar
    26    10    11    1
    27    11    12    1
    28     4     5   ar
    29     5     6   ar
    30    32    33   ar
    31    33    34   ar
    32    34    35   ar
    33    35    36   ar
    34    36    37   ar
    35    37    40    1
    36    40    41   ar
    37    41    42   ar
    38    42    43   ar
    39    43    44   ar
    40    44    45   ar
    41    37    38   ar
    42    38    39   ar
    43    39    31   ar
    44     6     1   ar
    45    39    34   ar
    46    12     7    1
    47    45    40   ar
    48    21    15   ar
    49    28    29    1
    50    24    25    1
@<TRIPOS>MOLECULE
*****
 45 50 0 0 0
SMALL
GASTEIGER

@<TRIPOS>ATOM
      1 C          60.5253   88.4000    8.5384 C.ar    1  UNL1        0.0702
      2 C          59.8218   87.2192    8.8045 C.ar    1  UNL1        0.0191
      3 C          59.8905   86.6279   10.0667 C.ar    1  UNL1        0.0356
      4 C          60.6927   87.2099   11.0609 C.ar    1  UNL1        0.1318
      5 N          61.3759   88.3537   10.7776 N.ar    1  UNL1       -0.2279
      6 C          61.3199   88.9498    9.5574 C.ar    1  UNL1        0.1149
      7 N          60.7724   86.6421   12.3820 N.pl3   1  UNL1       -0.2932
      8 C          61.4756   87.3308   13.4735 C.3     1  UNL1        0.0923
      9 C          62.4442   86.3738   14.1894 C.3     1  UNL1        0.0252
     10 C          61.9554   84.9005   14.2086 C.3     1  UNL1        0.0472
     11 C          60.4274   84.8099   14.0288 C.3     1  UNL1        0.0252
     12 C          60.0193   85.4138   12.6763 C.3     1  UNL1        0.0923
     13 C          62.4068   84.1917   15.5005 C.3     1  UNL1        0.2054
     14 O          62.7356   82.8234   15.2534 O.3     1  UNL1       -0.4755
     15 C          62.6514   82.1727   14.0112 C.ar    1  UNL1        0.1388
     16 C          62.0048   80.9350   13.9612 C.ar    1  UNL1        0.0378
     17 C          61.8960   80.2387   12.7568 C.ar    1  UNL1        0.0147
     18 C          62.4258   80.7732   11.5779 C.ar    1  UNL1        0.0641
     19 CL         62.3424   79.7930   10.1170 Cl      1  UNL1       -0.0820
     20 C          63.0692   82.0296   11.6050 C.ar    1  UNL1        0.0890
     21 C          63.1934   82.7117   12.8281 C.ar    1  UNL1        0.0442
     22 C          63.6321   82.6452   10.3841 C.2     1  UNL1        0.3390
     23 O          62.8811   83.2953    9.6096 O.2     1  UNL1       -0.2451
     24 O          64.9727   82.4809   10.0440 O.3     1  UNL1       -0.4771
     25 H          65.5826   81.8664   10.5692 H       1  UNL1        0.2954
     26 C          59.7859   90.2187    6.9288 C.2     1  UNL1        0.2839
     27 O          58.9905   90.7250    7.7653 O.2     1  UNL1       -0.2665
     28 N          60.4614   88.9862    7.2269 N.am    1  UNL1       -0.2766
     29 H          60.8583   88.4393    6.4295 H       1  UNL1        0.1553
     30 C          57.5287   91.4203    4.9961 C.3     1  UNL1        0.0345
     31 C          59.0112   91.3966    4.7751 C.ar    1  UNL1        0.0202
     32 C          59.9936   90.8703    5.6216 C.ar    1  UNL1        0.1946
     33 O          61.1894   91.0371    5.0848 O.2     1  UNL1       -0.4492
     34 C          61.0331   91.6434    3.9334 C.ar    1  UNL1        0.1452
     35 C          62.0259   92.0135    3.0330 C.ar    1  UNL1        0.0375
     36 C          61.6344   92.6575    1.8466 C.ar    1  UNL1        0.0031
     37 C          60.2638   92.9212    1.5789 C.ar    1  UNL1        0.0002
     38 C          59.2845   92.5282    2.5226 C.ar    1  UNL1        0.0028
     39 C          59.7089   91.8913    3.6897 C.ar    1  UNL1        0.0337
     40 C          59.8622   93.6021    0.3218 C.ar    1  UNL1        0.0000
     41 C          58.5090   93.6520   -0.0643 C.ar    1  UNL1        0.0000
     42 C          58.1337   94.2938   -1.2485 C.ar    1  UNL1        0.0000
     43 C          59.1013   94.8907   -2.0595 C.ar    1  UNL1        0.0000
     44 C          60.4468   94.8475   -1.6878 C.ar    1  UNL1        0.0000
     45 C          60.8280   94.2079   -0.5042 C.ar    1  UNL1        0.0000
@<TRIPOS>BOND
     1    30    31    1
     2    31    32   ar
     3    32    26    1
     4    26    27    2
     5    26    28   am
     6    28     1    1
     7     1     2   ar
     8     2     3   ar
     9     3     4   ar
    10     4     7    1
    11     7     8    1
    12     8     9    1
    13     9    10    1
    14    10    13    1
    15    13    14    1
    16    14    15    1
    17    15    16   ar
    18    16    17   ar
    19    17    18   ar
    20    18    19    1
    21    18    20   ar
    22    20    22    1
    23    22    23    2
    24    22    24    1
    25    20    21   ar
    26    10    11    1
    27    11    12    1
    28     4     5   ar
    29     5     6   ar
    30    32    33   ar
    31    33    34   ar
    32    34    35   ar
    33    35    36   ar
    34    36    37   ar
    35    37    40    1
    36    40    41   ar
    37    41    42   ar
    38    42    43   ar
    39    43    44   ar
    40    44    45   ar
    41    37    38   ar
    42    38    39   ar
    43    39    31   ar
    44     6     1   ar
    45    39    34   ar
    46    12     7    1
    47    45    40   ar
    48    21    15   ar
    49    28    29    1
    50    24    25    1
@<TRIPOS>MOLECULE
*****
 45 50 0 0 0
SMALL
GASTEIGER

@<TRIPOS>ATOM
      1 C          60.6967   88.1346    8.4587 C.ar    1  UNL1        0.0702
      2 C          60.6701   88.9011    9.6299 C.ar    1  UNL1        0.0191
      3 C          60.8220   88.2896   10.8751 C.ar    1  UNL1        0.0356
      4 C          60.9738   86.8960   10.9479 C.ar    1  UNL1        0.1318
      5 N          60.9877   86.1685    9.7965 N.ar    1  UNL1       -0.2279
      6 C          60.8468   86.7430    8.5727 C.ar    1  UNL1        0.1149
      7 N          61.1552   86.2306   12.2122 N.pl3   1  UNL1       -0.2932
      8 C          62.3245   86.4990   13.0613 C.3     1  UNL1        0.0923
      9 C          62.9844   85.1852   13.5141 C.3     1  UNL1        0.0252
     10 C          61.9768   84.0183   13.6955 C.3     1  UNL1        0.0472
     11 C          60.5456   84.5394   13.9314 C.3     1  UNL1        0.0252
     12 C          60.0803   85.3671   12.7237 C.3     1  UNL1        0.0923
     13 C          62.4236   83.0826   14.8357 C.3     1  UNL1        0.2054
     14 O          62.4519   81.7199   14.4070 O.3     1  UNL1       -0.4755
     15 C          61.5252   81.1144   13.5421 C.ar    1  UNL1        0.1388
     16 C          60.2612   80.8020   14.0491 C.ar    1  UNL1        0.0378
     17 C          59.3016   80.1936   13.2392 C.ar    1  UNL1        0.0147
     18 C          59.5873   79.8943   11.9031 C.ar    1  UNL1        0.0641
     19 CL         58.3655   79.0343   10.9706 Cl      1  UNL1       -0.0820
     20 C          60.8534   80.2163   11.3679 C.ar    1  UNL1        0.0890
     21 C          61.8205   80.8080   12.1993 C.ar    1  UNL1        0.0442
     22 C          61.1998   79.9351    9.9582 C.2     1  UNL1        0.3390
     23 O          60.6515   80.5959    9.0369 O.2     1  UNL1       -0.2451
     24 O          62.0884   78.9167    9.6216 O.3     1  UNL1       -0.4771
     25 H          62.4571   78.2814   10.3186 H       1  UNL1        0.2954
     26 C          59.9360   90.0786    7.0139 C.2     1  UNL1        0.2839
     27 O          59.3140   90.6251    7.9642 O.2     1  UNL1       -0.2665
     28 N          60.5180   88.7761    7.1842 N.am    1  UNL1       -0.2766
     29 H          60.7483   88.2259    6.3259 H       1  UNL1        0.1553
     30 C          57.5051   91.0943    5.1882 C.3     1  UNL1        0.0345
     31 C          58.9738   91.2044    4.9085 C.ar    1  UNL1        0.0202
     32 C          60.0322   90.7589    5.7083 C.ar    1  UNL1        0.1946
     33 O          61.1859   91.0365    5.1270 O.2     1  UNL1       -0.4492
     34 C          60.9302   91.6378    3.9909 C.ar    1  UNL1        0.1452
     35 C          61.8492   92.1033    3.0570 C.ar    1  UNL1        0.0375
     36 C          61.3545   92.7218    1.8958 C.ar    1  UNL1        0.0031
     37 C          59.9563   92.8654    1.6860 C.ar    1  UNL1        0.0002
     38 C          59.0546   92.3779    2.6623 C.ar    1  UNL1        0.0028
     39 C          59.5805   91.7696    3.8030 C.ar    1  UNL1        0.0337
     40 C          59.4455   93.5204    0.4550 C.ar    1  UNL1        0.0000
     41 C          60.3064   94.2765   -0.3634 C.ar    1  UNL1        0.0000
     42 C          59.8227   94.8922   -1.5218 C.ar    1  UNL1        0.0000
     43 C          58.4781   94.7620   -1.8758 C.ar    1  UNL1        0.0000
     44 C          57.6139   94.0152   -1.0721 C.ar    1  UNL1        0.0000
     45 C          58.0922   93.3965    0.0871 C.ar    1  UNL1        0.0000
@<TRIPOS>BOND
     1    30    31    1
     2    31    32   ar
     3    32    26    1
     4    26    27    2
     5    26    28   am
     6    28     1    1
     7     1     2   ar
     8     2     3   ar
     9     3     4   ar
    10     4     7    1
    11     7     8    1
    12     8     9    1
    13     9    10    1
    14    10    13    1
    15    13    14    1
    16    14    15    1
    17    15    16   ar
    18    16    17   ar
    19    17    18   ar
    20    18    19    1
    21    18    20   ar
    22    20    22    1
    23    22    23    2
    24    22    24    1
    25    20    21   ar
    26    10    11    1
    27    11    12    1
    28     4     5   ar
    29     5     6   ar
    30    32    33   ar
    31    33    34   ar
    32    34    35   ar
    33    35    36   ar
    34    36    37   ar
    35    37    40    1
    36    40    41   ar
    37    41    42   ar
    38    42    43   ar
    39    43    44   ar
    40    44    45   ar
    41    37    38   ar
    42    38    39   ar
    43    39    31   ar
    44     6     1   ar
    45    39    34   ar
    46    12     7    1
    47    45    40   ar
    48    21    15   ar
    49    28    29    1
    50    24    25    1
@<TRIPOS>MOLECULE
*****
 45 50 0 0 0
SMALL
GASTEIGER

@<TRIPOS>ATOM
      1 C          60.4315   89.4666    8.3653 C.ar    1  UNL1        0.0702
      2 C          60.1748   88.0980    8.5105 C.ar    1  UNL1        0.0191
      3 C          59.9535   87.5535    9.7762 C.ar    1  UNL1        0.0356
      4 C          60.0176   88.3827   10.9071 C.ar    1  UNL1        0.1318
      5 N          60.2778   89.7097   10.7438 N.ar    1  UNL1       -0.2279
      6 C          60.4913   90.2627    9.5206 C.ar    1  UNL1        0.1149
      7 N          59.7734   87.8628   12.2278 N.pl3   1  UNL1       -0.2932
      8 C          59.5100   88.7525   13.3676 C.3     1  UNL1        0.0923
      9 C          60.3941   88.3777   14.5695 C.3     1  UNL1        0.0252
     10 C          60.7109   86.8603   14.6539 C.3     1  UNL1        0.0472
     11 C          59.6628   86.0215   13.8968 C.3     1  UNL1        0.0252
     12 C          59.6521   86.4086   12.4100 C.3     1  UNL1        0.0923
     13 C          60.8308   86.4079   16.1223 C.3     1  UNL1        0.2054
     14 O          62.0345   85.6697   16.3406 O.3     1  UNL1       -0.4755
     15 C          62.6746   84.8497   15.3964 C.ar    1  UNL1        0.1388
     16 C          63.7886   85.3644   14.7282 C.ar    1  UNL1        0.0378
     17 C          64.4614   84.5989   13.7750 C.ar    1  UNL1        0.0147
     18 C          64.0357   83.2998   13.4792 C.ar    1  UNL1        0.0641
     19 CL         64.8686   82.4312   12.1933 Cl      1  UNL1       -0.0820
     20 C          62.9216   82.7562   14.1549 C.ar    1  UNL1        0.0890
     21 C          62.2374   83.5447   15.0966 C.ar    1  UNL1        0.0442
     22 C          62.4414   81.3831   13.8901 C.2     1  UNL1        0.3390
     23 O          63.1491   80.3980   14.2291 O.2     1  UNL1       -0.2451
     24 O          61.2384   81.1534   13.2267 O.3     1  UNL1       -0.4771
     25 H          60.6985   81.9116   12.8278 H       1  UNL1        0.2954
     26 C          59.6438   90.3625    6.1242 C.2     1  UNL1        0.2839
     27 O          58.4598   89.9731    6.3122 O.2     1  UNL1       -0.2665
     28 N          60.6782   90.0095    7.0568 N.am    1  UNL1       -0.2766
     29 H          61.6707   90.0713    6.7348 H       1  UNL1        0.1553
     30 C          62.4692   90.4606    4.6138 C.3     1  UNL1        0.0345
     31 C          61.2106   91.1936    4.2588 C.ar    1  UNL1        0.0202
     32 C          59.9789   91.1484    4.9215 C.ar    1  UNL1        0.1946
     33 O          59.1073   91.9305    4.3095 O.2     1  UNL1       -0.4492
     34 C          59.7107   92.4817    3.2849 C.ar    1  UNL1        0.1452
     35 C          59.1694   93.3754    2.3675 C.ar    1  UNL1        0.0375
     36 C          60.0006   93.8486    1.3375 C.ar    1  UNL1        0.0031
     37 C          61.3532   93.4239    1.2397 C.ar    1  UNL1        0.0002
     38 C          61.8649   92.5123    2.1942 C.ar    1  UNL1        0.0028
     39 C          61.0116   92.0629    3.2031 C.ar    1  UNL1        0.0337
     40 C          62.2219   93.9309    0.1472 C.ar    1  UNL1        0.0000
     41 C          63.6226   93.9377    0.2913 C.ar    1  UNL1        0.0000
     42 C          64.4381   94.4158   -0.7390 C.ar    1  UNL1        0.0000
     43 C          63.8674   94.8922   -1.9213 C.ar    1  UNL1        0.0000
     44 C          62.4794   94.8911   -2.0761 C.ar    1  UNL1        0.0000
     45 C          61.6589   94.4135   -1.0496 C.ar    1  UNL1        0.0000
@<TRIPOS>BOND
     1    30    31    1
     2    31    32   ar
     3    32    26    1
     4    26    27    2
     5    26    28   am
     6    28     1    1
     7     1     2   ar
     8     2     3   ar
     9     3     4   ar
    10     4     7    1
    11     7     8    1
    12     8     9    1
    13     9    10    1
    14    10    13    1
    15    13    14    1
    16    14    15    1
    17    15    16   ar
    18    16    17   ar
    19    17    18   ar
    20    18    19    1
    21    18    20   ar
    22    20    22    1
    23    22    23    2
    24    22    24    1
    25    20    21   ar
    26    10    11    1
    27    11    12    1
    28     4     5   ar
    29     5     6   ar
    30    32    33   ar
    31    33    34   ar
    32    34    35   ar
    33    35    36   ar
    34    36    37   ar
    35    37    40    1
    36    40    41   ar
    37    41    42   ar
    38    42    43   ar
    39    43    44   ar
    40    44    45   ar
    41    37    38   ar
    42    38    39   ar
    43    39    31   ar
    44     6     1   ar
    45    39    34   ar
    46    12     7    1
    47    45    40   ar
    48    21    15   ar
    49    28    29    1
    50    24    25    1
@<TRIPOS>MOLECULE
*****
 45 50 0 0 0
SMALL
GASTEIGER

@<TRIPOS>ATOM
      1 C          61.6990   87.3578   10.7081 C.ar    1  UNL1        0.0702
      2 C          61.2286   86.5138   11.7211 C.ar    1  UNL1        0.0191
      3 C          60.2791   85.5319   11.4351 C.ar    1  UNL1        0.0356
      4 C          59.7771   85.4140   10.1295 C.ar    1  UNL1        0.1318
      5 N          60.2419   86.2516    9.1612 N.ar    1  UNL1       -0.2279
      6 C          61.1701   87.2115    9.4155 C.ar    1  UNL1        0.1149
      7 N          58.8130   84.3994    9.7900 N.pl3   1  UNL1       -0.2932
      8 C          57.8389   83.9049   10.7733 C.3     1  UNL1        0.0923
      9 C          57.8230   82.3669   10.8012 C.3     1  UNL1        0.0252
     10 C          58.1340   81.7208    9.4243 C.3     1  UNL1        0.0472
     11 C          57.8391   82.6925    8.2650 C.3     1  UNL1        0.0252
     12 C          58.7151   83.9480    8.3938 C.3     1  UNL1        0.0923
     13 C          57.3601   80.3991    9.2535 C.3     1  UNL1        0.2054
     14 O          57.7333   79.4471   10.2515 O.3     1  UNL1       -0.4755
     15 C          58.7288   79.6299   11.2256 C.ar    1  UNL1        0.1388
     16 C          58.3783   79.4432   12.5653 C.ar    1  UNL1        0.0378
     17 C          59.3229   79.6172   13.5775 C.ar    1  UNL1        0.0147
     18 C          60.6391   79.9733   13.2660 C.ar    1  UNL1        0.0641
     19 CL         61.7496   80.2759   14.5991 Cl      1  UNL1       -0.0820
     20 C          61.0167   80.1513   11.9173 C.ar    1  UNL1        0.0890
     21 C          60.0511   79.9961   10.9073 C.ar    1  UNL1        0.0442
     22 C          62.3985   80.5125   11.5344 C.2     1  UNL1        0.3390
     23 O          63.3630   80.1407   12.2539 O.2     1  UNL1       -0.2451
     24 O          62.6558   81.3004   10.4151 O.3     1  UNL1       -0.4771
     25 H          61.9075   81.7233    9.8796 H       1  UNL1        0.2954
     26 C          62.3800   89.5263   11.8393 C.2     1  UNL1        0.2839
     27 O          61.1888   89.8301   12.1176 O.2     1  UNL1       -0.2665
     28 N          62.6620   88.3785   11.0222 N.am    1  UNL1       -0.2766
     29 H          63.5973   88.3242   10.5590 H       1  UNL1        0.1553
     30 C          64.1378   89.0854   14.4831 C.3     1  UNL1        0.0345
     31 C          64.2582   90.1851   13.4715 C.ar    1  UNL1        0.0202
     32 C          63.4880   90.3743   12.3185 C.ar    1  UNL1        0.1946
     33 O          63.8935   91.4557   11.6765 O.2     1  UNL1       -0.4492
     34 C          64.8860   91.9783   12.3544 C.ar    1  UNL1        0.1452
     35 C          65.6098   93.1239   12.0430 C.ar    1  UNL1        0.0375
     36 C          66.6413   93.5106   12.9159 C.ar    1  UNL1        0.0031
     37 C          66.9332   92.7508   14.0809 C.ar    1  UNL1        0.0002
     38 C          66.1723   91.5903   14.3609 C.ar    1  UNL1        0.0028
     39 C          65.1560   91.2357   13.4725 C.ar    1  UNL1        0.0337
     40 C          68.0253   93.1693   14.9959 C.ar    1  UNL1        0.0000
     41 C          68.9916   92.2411   15.4288 C.ar    1  UNL1        0.0000
     42 C          70.0188   92.6380   16.2904 C.ar    1  UNL1        0.0000
     43 C          70.0932   93.9615   16.7298 C.ar    1  UNL1        0.0000
     44 C          69.1405   94.8915   16.3081 C.ar    1  UNL1        0.0000
     45 C          68.1115   94.5007   15.4457 C.ar    1  UNL1        0.0000
@<TRIPOS>BOND
     1    30    31    1
     2    31    32   ar
     3    32    26    1
     4    26    27    2
     5    26    28   am
     6    28     1    1
     7     1     2   ar
     8     2     3   ar
     9     3     4   ar
    10     4     7    1
    11     7     8    1
    12     8     9    1
    13     9    10    1
    14    10    13    1
    15    13    14    1
    16    14    15    1
    17    15    16   ar
    18    16    17   ar
    19    17    18   ar
    20    18    19    1
    21    18    20   ar
    22    20    22    1
    23    22    23    2
    24    22    24    1
    25    20    21   ar
    26    10    11    1
    27    11    12    1
    28     4     5   ar
    29     5     6   ar
    30    32    33   ar
    31    33    34   ar
    32    34    35   ar
    33    35    36   ar
    34    36    37   ar
    35    37    40    1
    36    40    41   ar
    37    41    42   ar
    38    42    43   ar
    39    43    44   ar
    40    44    45   ar
    41    37    38   ar
    42    38    39   ar
    43    39    31   ar
    44     6     1   ar
    45    39    34   ar
    46    12     7    1
    47    45    40   ar
    48    21    15   ar
    49    28    29    1
    50    24    25    1
