@<TRIPOS>MOLECULE
*****
 35 39 0 0 0
SMALL
GASTEIGER

@<TRIPOS>ATOM
      1 C          49.2092   12.2969  -23.6533 C.2     1  UNL1        0.2495
      2 O          48.9480   11.5386  -22.6801 O.2     1  UNL1       -0.2699
      3 N          48.3235   13.3985  -23.9469 N.am    1  UNL1       -0.2760
      4 C          48.8088   14.6365  -24.5711 C.3     1  UNL1        0.0954
      5 C          47.9435   15.0100  -25.7895 C.3     1  UNL1        0.0399
      6 C          46.4406   14.5949  -25.6601 C.3     1  UNL1        0.0645
      7 C          46.0651   14.4207  -24.1647 C.3     1  UNL1        0.0399
      8 C          46.9302   13.3454  -23.4807 C.3     1  UNL1        0.0954
      9 C          46.1761   13.2417  -26.4181 C.3     1  UNL1        0.0477
     10 C          46.1214   13.4540  -27.8995 C.ar    1  UNL1        0.0220
     11 C          46.1718   12.5481  -28.9336 C.ar    1  UNL1        0.0923
     12 N          45.8434   13.2014  -30.0786 N.ar    1  UNL1       -0.2534
     13 N          45.5364   14.4639  -29.7924 N.ar    1  UNL1       -0.1651
     14 C          45.7119   14.6187  -28.4692 C.ar    1  UNL1        0.1515
     15 C          45.3918   15.7802  -27.6532 C.2     1  UNL1        0.2650
     16 O          44.9140   16.8277  -28.1630 O.2     1  UNL1       -0.2684
     17 N          45.6083   15.6789  -26.2365 N.am    1  UNL1       -0.3023
     18 H          45.3251   16.4865  -25.6358 H       1  UNL1        0.1497
     19 C          51.1064   10.0996  -27.6490 C.ar    1  UNL1        0.2248
     20 N          52.1799    9.8217  -28.4414 N.ar    1  UNL1       -0.2101
     21 C          53.4287   10.2710  -28.1507 C.ar    1  UNL1        0.1021
     22 C          53.6468   11.0542  -27.0168 C.ar    1  UNL1        0.0209
     23 C          52.5694   11.3633  -26.1768 C.ar    1  UNL1        0.0065
     24 C          52.7534   12.1666  -25.0435 C.ar    1  UNL1        0.0070
     25 C          51.6716   12.4907  -24.2160 C.ar    1  UNL1        0.0389
     26 BR         52.0064   13.6750  -22.7426 Br      1  UNL1       -0.0489
     27 C          50.3825   11.9920  -24.5099 C.ar    1  UNL1        0.0599
     28 C          50.2087   11.1670  -25.6338 C.ar    1  UNL1        0.0096
     29 C          51.2834   10.8693  -26.4838 C.ar    1  UNL1        0.0534
     30 C          49.6170    8.4525  -28.7531 C.3     1  UNL1        0.2542
     31 O          49.8311    9.6399  -28.0007 O.3     1  UNL1       -0.4561
     32 C          45.6522   12.6165  -31.4218 C.3     1  UNL1        0.0867
     33 C          46.0633   13.6030  -32.5378 C.3     1  UNL1        0.0244
     34 C          46.5076   11.3433  -31.5352 C.3     1  UNL1        0.0244
     35 C          44.1659   12.2548  -31.6135 C.3     1  UNL1        0.0244
@<TRIPOS>BOND
     1    30    31    1
     2    31    19    1
     3    19    20   ar
     4    20    21   ar
     5    21    22   ar
     6    22    23   ar
     7    23    24   ar
     8    24    25   ar
     9    25    26    1
    10    25    27   ar
    11    27     1    1
    12     1     2    2
    13     1     3   am
    14     3     4    1
    15     4     5    1
    16     5     6    1
    17     6     7    1
    18     7     8    1
    19     6     9    1
    20     9    10    1
    21    10    11   ar
    22    11    12   ar
    23    12    32    1
    24    32    33    1
    25    32    34    1
    26    32    35    1
    27    12    13   ar
    28    13    14   ar
    29    14    15    1
    30    15    16    2
    31    15    17   am
    32    27    28   ar
    33    28    29   ar
    34    29    19   ar
    35    29    23   ar
    36     8     3    1
    37    14    10   ar
    38    17     6    1
    39    17    18    1
@<TRIPOS>MOLECULE
*****
 35 39 0 0 0
SMALL
GASTEIGER

@<TRIPOS>ATOM
      1 C          49.1856   13.1016  -24.7000 C.2     1  UNL1        0.2495
      2 O          49.3418   12.4574  -25.7729 O.2     1  UNL1       -0.2699
      3 N          49.5753   12.4945  -23.4495 N.am    1  UNL1       -0.2760
      4 C          50.0288   13.2989  -22.3070 C.3     1  UNL1        0.0954
      5 C          49.2625   12.9123  -21.0279 C.3     1  UNL1        0.0399
      6 C          48.8455   11.4059  -20.9608 C.3     1  UNL1        0.0645
      7 C          49.7546   10.5616  -21.8926 C.3     1  UNL1        0.0399
      8 C          49.6624   11.0299  -23.3570 C.3     1  UNL1        0.0954
      9 C          47.3468   11.2293  -21.4061 C.3     1  UNL1        0.0477
     10 C          46.4068   11.6688  -20.3263 C.ar    1  UNL1        0.0220
     11 C          45.0569   11.9301  -20.3697 C.ar    1  UNL1        0.0923
     12 N          44.6146   12.0602  -19.0918 N.ar    1  UNL1       -0.2534
     13 N          45.6220   11.8357  -18.2524 N.ar    1  UNL1       -0.1651
     14 C          46.7124   11.6045  -19.0030 C.ar    1  UNL1        0.1515
     15 C          48.0341   11.1890  -18.5583 C.2     1  UNL1        0.2650
     16 O          48.2938   11.0273  -17.3368 O.2     1  UNL1       -0.2684
     17 N          49.0267   10.9357  -19.5657 N.am    1  UNL1       -0.3023
     18 H          49.9604   10.5793  -19.2588 H       1  UNL1        0.1497
     19 C          49.5241   17.9638  -25.4977 C.ar    1  UNL1        0.2248
     20 N          48.9355   19.1920  -25.5493 N.ar    1  UNL1       -0.2101
     21 C          47.6201   19.3759  -25.2633 C.ar    1  UNL1        0.1021
     22 C          46.8190   18.2884  -24.9136 C.ar    1  UNL1        0.0209
     23 C          47.3855   17.0090  -24.8503 C.ar    1  UNL1        0.0065
     24 C          46.6011   15.8946  -24.5243 C.ar    1  UNL1        0.0070
     25 C          47.1651   14.6138  -24.4807 C.ar    1  UNL1        0.0389
     26 BR         45.9896   13.1397  -24.1192 Br      1  UNL1       -0.0489
     27 C          48.5413   14.4378  -24.7490 C.ar    1  UNL1        0.0599
     28 C          49.3279   15.5621  -25.0512 C.ar    1  UNL1        0.0096
     29 C          48.7588   16.8412  -25.1297 C.ar    1  UNL1        0.0534
     30 C          51.9302   18.3445  -25.0326 C.3     1  UNL1        0.2542
     31 O          50.8770   17.8147  -25.8275 O.3     1  UNL1       -0.4561
     32 C          43.2186   12.2303  -18.6386 C.3     1  UNL1        0.0867
     33 C          42.7562   11.0476  -17.7582 C.3     1  UNL1        0.0244
     34 C          43.1155   13.5326  -17.8268 C.3     1  UNL1        0.0244
     35 C          42.2908   12.3163  -19.8667 C.3     1  UNL1        0.0244
@<TRIPOS>BOND
     1    30    31    1
     2    31    19    1
     3    19    20   ar
     4    20    21   ar
     5    21    22   ar
     6    22    23   ar
     7    23    24   ar
     8    24    25   ar
     9    25    26    1
    10    25    27   ar
    11    27     1    1
    12     1     2    2
    13     1     3   am
    14     3     4    1
    15     4     5    1
    16     5     6    1
    17     6     7    1
    18     7     8    1
    19     6     9    1
    20     9    10    1
    21    10    11   ar
    22    11    12   ar
    23    12    32    1
    24    32    33    1
    25    32    34    1
    26    32    35    1
    27    12    13   ar
    28    13    14   ar
    29    14    15    1
    30    15    16    2
    31    15    17   am
    32    27    28   ar
    33    28    29   ar
    34    29    19   ar
    35    29    23   ar
    36     8     3    1
    37    14    10   ar
    38    17     6    1
    39    17    18    1
@<TRIPOS>MOLECULE
*****
 35 39 0 0 0
SMALL
GASTEIGER

@<TRIPOS>ATOM
      1 C          49.0063    8.2936  -27.8750 C.2     1  UNL1        0.2495
      2 O          48.5563    7.1435  -27.6193 O.2     1  UNL1       -0.2699
      3 N          50.1666    8.7719  -27.1614 N.am    1  UNL1       -0.2760
      4 C          51.1084    9.7239  -27.7652 C.3     1  UNL1        0.0954
      5 C          51.3607   10.9157  -26.8224 C.3     1  UNL1        0.0399
      6 C          51.2942   10.5553  -25.3015 C.3     1  UNL1        0.0645
      7 C          51.5422    9.0363  -25.1046 C.3     1  UNL1        0.0399
      8 C          50.4997    8.1861  -25.8548 C.3     1  UNL1        0.0954
      9 C          49.8851   10.9277  -24.7087 C.3     1  UNL1        0.0477
     10 C          49.7623   12.4047  -24.4941 C.ar    1  UNL1        0.0220
     11 C          48.6542   13.1821  -24.2490 C.ar    1  UNL1        0.0923
     12 N          49.0828   14.4198  -23.8882 N.ar    1  UNL1       -0.2534
     13 N          50.4125   14.4297  -23.8445 N.ar    1  UNL1       -0.1651
     14 C          50.8251   13.2070  -24.2193 C.ar    1  UNL1        0.1515
     15 C          52.1813   12.6796  -24.2162 C.2     1  UNL1        0.2650
     16 O          53.1596   13.3890  -23.8624 O.2     1  UNL1       -0.2684
     17 N          52.3629   11.3068  -24.5991 N.am    1  UNL1       -0.3023
     18 H          53.3255   10.9026  -24.5423 H       1  UNL1        0.1497
     19 C          46.3139   12.3203  -28.8391 C.ar    1  UNL1        0.2248
     20 N          45.6572   13.1106  -29.7344 N.ar    1  UNL1       -0.2101
     21 C          45.5862   12.8016  -31.0555 C.ar    1  UNL1        0.1021
     22 C          46.2063   11.6500  -31.5415 C.ar    1  UNL1        0.0209
     23 C          46.8926   10.8117  -30.6539 C.ar    1  UNL1        0.0065
     24 C          47.5443    9.6605  -31.1162 C.ar    1  UNL1        0.0070
     25 C          48.2464    8.8343  -30.2303 C.ar    1  UNL1        0.0389
     26 BR         49.1861    7.3342  -30.9734 Br      1  UNL1       -0.0489
     27 C          48.2873    9.1478  -28.8530 C.ar    1  UNL1        0.0599
     28 C          47.6114   10.2898  -28.3917 C.ar    1  UNL1        0.0096
     29 C          46.9368   11.1381  -29.2815 C.ar    1  UNL1        0.0534
     30 C          46.3289   14.0431  -27.0552 C.3     1  UNL1        0.2542
     31 O          46.3865   12.6906  -27.4903 O.3     1  UNL1       -0.4561
     32 C          48.2587   15.5537  -23.4213 C.3     1  UNL1        0.0867
     33 C          46.7491   15.2351  -23.5054 C.3     1  UNL1        0.0244
     34 C          48.6266   15.8664  -21.9609 C.3     1  UNL1        0.0244
     35 C          48.5465   16.7883  -24.2985 C.3     1  UNL1        0.0244
@<TRIPOS>BOND
     1    30    31    1
     2    31    19    1
     3    19    20   ar
     4    20    21   ar
     5    21    22   ar
     6    22    23   ar
     7    23    24   ar
     8    24    25   ar
     9    25    26    1
    10    25    27   ar
    11    27     1    1
    12     1     2    2
    13     1     3   am
    14     3     4    1
    15     4     5    1
    16     5     6    1
    17     6     7    1
    18     7     8    1
    19     6     9    1
    20     9    10    1
    21    10    11   ar
    22    11    12   ar
    23    12    32    1
    24    32    33    1
    25    32    34    1
    26    32    35    1
    27    12    13   ar
    28    13    14   ar
    29    14    15    1
    30    15    16    2
    31    15    17   am
    32    27    28   ar
    33    28    29   ar
    34    29    19   ar
    35    29    23   ar
    36     8     3    1
    37    14    10   ar
    38    17     6    1
    39    17    18    1
@<TRIPOS>MOLECULE
*****
 35 39 0 0 0
SMALL
GASTEIGER

@<TRIPOS>ATOM
      1 C          48.2119   10.9315  -23.6729 C.2     1  UNL1        0.2495
      2 O          48.9177    9.9258  -23.9574 O.2     1  UNL1       -0.2699
      3 N          47.2540   11.4169  -24.6379 N.am    1  UNL1       -0.2760
      4 C          46.0187   12.0973  -24.2271 C.3     1  UNL1        0.0954
      5 C          45.8514   13.4295  -24.9821 C.3     1  UNL1        0.0399
      6 C          46.4367   13.4222  -26.4330 C.3     1  UNL1        0.0645
      7 C          46.5378   11.9652  -26.9571 C.3     1  UNL1        0.0399
      8 C          47.4414   11.0978  -26.0607 C.3     1  UNL1        0.0954
      9 C          47.8675   14.0765  -26.4525 C.3     1  UNL1        0.0477
     10 C          47.7807   15.5686  -26.3589 C.ar    1  UNL1        0.0220
     11 C          48.7518   16.5040  -26.0865 C.ar    1  UNL1        0.0923
     12 N          48.2360   17.7324  -26.3520 N.ar    1  UNL1       -0.2534
     13 N          47.0023   17.5974  -26.8314 N.ar    1  UNL1       -0.1651
     14 C          46.7236   16.2828  -26.8291 C.ar    1  UNL1        0.1515
     15 C          45.5497   15.6153  -27.3714 C.2     1  UNL1        0.2650
     16 O          44.6123   16.2668  -27.9027 O.2     1  UNL1       -0.2684
     17 N          45.5120   14.1804  -27.3105 N.am    1  UNL1       -0.3023
     18 H          44.7007   13.6897  -27.7512 H       1  UNL1        0.1497
     19 C          46.6066   12.1698  -19.1693 C.ar    1  UNL1        0.2248
     20 N          46.8107   12.8029  -17.9797 N.ar    1  UNL1       -0.2101
     21 C          47.9477   13.4987  -17.7169 C.ar    1  UNL1        0.1021
     22 C          48.9611   13.5749  -18.6729 C.ar    1  UNL1        0.0209
     23 C          48.7907   12.9370  -19.9081 C.ar    1  UNL1        0.0065
     24 C          49.8002   12.9769  -20.8792 C.ar    1  UNL1        0.0070
     25 C          49.6359   12.3220  -22.1057 C.ar    1  UNL1        0.0389
     26 BR         51.1127   12.3535  -23.3320 Br      1  UNL1       -0.0489
     27 C          48.4365   11.6275  -22.3813 C.ar    1  UNL1        0.0599
     28 C          47.4181   11.6117  -21.4135 C.ar    1  UNL1        0.0096
     29 C          47.5935   12.2371  -20.1708 C.ar    1  UNL1        0.0534
     30 C          44.1388   11.9428  -19.0759 C.3     1  UNL1        0.2542
     31 O          45.4316   11.4399  -19.3884 O.3     1  UNL1       -0.4561
     32 C          48.9437   19.0289  -26.3187 C.3     1  UNL1        0.0867
     33 C          49.1087   19.6257  -27.7344 C.3     1  UNL1        0.0244
     34 C          48.1402   20.0107  -25.4490 C.3     1  UNL1        0.0244
     35 C          50.3445   18.8295  -25.7068 C.3     1  UNL1        0.0244
@<TRIPOS>BOND
     1    30    31    1
     2    31    19    1
     3    19    20   ar
     4    20    21   ar
     5    21    22   ar
     6    22    23   ar
     7    23    24   ar
     8    24    25   ar
     9    25    26    1
    10    25    27   ar
    11    27     1    1
    12     1     2    2
    13     1     3   am
    14     3     4    1
    15     4     5    1
    16     5     6    1
    17     6     7    1
    18     7     8    1
    19     6     9    1
    20     9    10    1
    21    10    11   ar
    22    11    12   ar
    23    12    32    1
    24    32    33    1
    25    32    34    1
    26    32    35    1
    27    12    13   ar
    28    13    14   ar
    29    14    15    1
    30    15    16    2
    31    15    17   am
    32    27    28   ar
    33    28    29   ar
    34    29    19   ar
    35    29    23   ar
    36     8     3    1
    37    14    10   ar
    38    17     6    1
    39    17    18    1
@<TRIPOS>MOLECULE
*****
 35 39 0 0 0
SMALL
GASTEIGER

@<TRIPOS>ATOM
      1 C          49.8041   10.9208  -19.2975 C.2     1  UNL1        0.2495
      2 O          50.9618   10.4271  -19.2166 O.2     1  UNL1       -0.2699
      3 N          48.9622   10.5658  -20.4153 N.am    1  UNL1       -0.2760
      4 C          47.4978   10.5389  -20.3033 C.3     1  UNL1        0.0954
      5 C          46.8476   11.3454  -21.4434 C.3     1  UNL1        0.0399
      6 C          47.6495   11.3182  -22.7864 C.3     1  UNL1        0.0645
      7 C          48.5786   10.0760  -22.8247 C.3     1  UNL1        0.0399
      8 C          49.5817   10.0775  -21.6559 C.3     1  UNL1        0.0954
      9 C          48.5230   12.6188  -22.9323 C.3     1  UNL1        0.0477
     10 C          47.6796   13.7963  -23.3126 C.ar    1  UNL1        0.0220
     11 C          47.9646   15.1420  -23.2934 C.ar    1  UNL1        0.0923
     12 N          46.9707   15.7897  -23.9552 N.ar    1  UNL1       -0.2534
     13 N          46.1069   14.8982  -24.4340 N.ar    1  UNL1       -0.1651
     14 C          46.5344   13.6876  -24.0375 C.ar    1  UNL1        0.1515
     15 C          46.0021   12.3847  -24.4069 C.2     1  UNL1        0.2650
     16 O          45.0017   12.2761  -25.1639 O.2     1  UNL1       -0.2684
     17 N          46.6796   11.2216  -23.9044 N.am    1  UNL1       -0.3023
     18 H          46.3404   10.2820  -24.2131 H       1  UNL1        0.1497
     19 C          48.7130   11.9826  -14.5991 C.ar    1  UNL1        0.2248
     20 N          48.3181   12.8853  -13.6574 N.ar    1  UNL1       -0.2101
     21 C          48.0223   14.1739  -13.9704 C.ar    1  UNL1        0.1021
     22 C          48.1286   14.6183  -15.2887 C.ar    1  UNL1        0.0209
     23 C          48.5325   13.7219  -16.2863 C.ar    1  UNL1        0.0065
     24 C          48.6704   14.1449  -17.6150 C.ar    1  UNL1        0.0070
     25 C          49.0932   13.2522  -18.6073 C.ar    1  UNL1        0.0389
     26 BR         49.3441   13.9495  -20.3782 Br      1  UNL1       -0.0489
     27 C          49.3679   11.9061  -18.2766 C.ar    1  UNL1        0.0599
     28 C          49.2042   11.4817  -16.9473 C.ar    1  UNL1        0.0096
     29 C          48.8145   12.3817  -15.9451 C.ar    1  UNL1        0.0534
     30 C          50.1409   10.3525  -13.3930 C.3     1  UNL1        0.2542
     31 O          49.0354   10.6710  -14.2287 O.3     1  UNL1       -0.4561
     32 C          46.9040   17.2274  -24.2895 C.3     1  UNL1        0.0867
     33 C          46.0062   17.4863  -25.5201 C.3     1  UNL1        0.0244
     34 C          46.3356   17.9918  -23.0819 C.3     1  UNL1        0.0244
     35 C          48.3222   17.7443  -24.6026 C.3     1  UNL1        0.0244
@<TRIPOS>BOND
     1    30    31    1
     2    31    19    1
     3    19    20   ar
     4    20    21   ar
     5    21    22   ar
     6    22    23   ar
     7    23    24   ar
     8    24    25   ar
     9    25    26    1
    10    25    27   ar
    11    27     1    1
    12     1     2    2
    13     1     3   am
    14     3     4    1
    15     4     5    1
    16     5     6    1
    17     6     7    1
    18     7     8    1
    19     6     9    1
    20     9    10    1
    21    10    11   ar
    22    11    12   ar
    23    12    32    1
    24    32    33    1
    25    32    34    1
    26    32    35    1
    27    12    13   ar
    28    13    14   ar
    29    14    15    1
    30    15    16    2
    31    15    17   am
    32    27    28   ar
    33    28    29   ar
    34    29    19   ar
    35    29    23   ar
    36     8     3    1
    37    14    10   ar
    38    17     6    1
    39    17    18    1
@<TRIPOS>MOLECULE
*****
 35 39 0 0 0
SMALL
GASTEIGER

@<TRIPOS>ATOM
      1 C          48.1725   15.1126  -22.8810 C.2     1  UNL1        0.2495
      2 O          48.6511   16.0874  -22.2397 O.2     1  UNL1       -0.2699
      3 N          48.3958   13.7712  -22.3963 N.am    1  UNL1       -0.2760
      4 C          47.4332   12.6892  -22.6421 C.3     1  UNL1        0.0954
      5 C          48.1398   11.4511  -23.2259 C.3     1  UNL1        0.0399
      6 C          49.6081   11.2543  -22.7231 C.3     1  UNL1        0.0645
      7 C          49.8120   11.9973  -21.3763 C.3     1  UNL1        0.0399
      8 C          49.5394   13.5073  -21.5108 C.3     1  UNL1        0.0954
      9 C          50.6313   11.8136  -23.7795 C.3     1  UNL1        0.0477
     10 C          50.7702   10.8815  -24.9434 C.ar    1  UNL1        0.0220
     11 C          51.3342   11.0785  -26.1825 C.ar    1  UNL1        0.0923
     12 N          51.4323    9.8698  -26.7947 N.ar    1  UNL1       -0.2534
     13 N          51.0040    8.9209  -25.9663 N.ar    1  UNL1       -0.1651
     14 C          50.5955    9.5368  -24.8440 C.ar    1  UNL1        0.1515
     15 C          50.1580    8.9280  -23.5968 C.2     1  UNL1        0.2650
     16 O          50.0934    7.6773  -23.4654 O.2     1  UNL1       -0.2684
     17 N          49.8339    9.8045  -22.5055 N.am    1  UNL1       -0.3023
     18 H          49.5765    9.3745  -21.5879 H       1  UNL1        0.1497
     19 C          46.7582   13.5804  -27.3582 C.ar    1  UNL1        0.2248
     20 N          46.0937   13.8107  -28.5256 N.ar    1  UNL1       -0.2101
     21 C          45.4507   14.9818  -28.7725 C.ar    1  UNL1        0.1021
     22 C          45.4439   15.9949  -27.8131 C.ar    1  UNL1        0.0209
     23 C          46.1142   15.7971  -26.5993 C.ar    1  UNL1        0.0065
     24 C          46.1057   16.7872  -25.6078 C.ar    1  UNL1        0.0070
     25 C          46.7598   16.5798  -24.3874 C.ar    1  UNL1        0.0389
     26 BR         46.6102   17.9554  -23.0566 Br      1  UNL1       -0.0489
     27 C          47.4525   15.3706  -24.1531 C.ar    1  UNL1        0.0599
     28 C          47.4782   14.3915  -25.1604 C.ar    1  UNL1        0.0096
     29 C          46.7949   14.5821  -26.3700 C.ar    1  UNL1        0.0534
     30 C          47.0330   11.1622  -27.8349 C.3     1  UNL1        0.2542
     31 O          47.3844   12.3480  -27.1333 O.3     1  UNL1       -0.4561
     32 C          52.0780    9.5695  -28.0892 C.3     1  UNL1        0.0867
     33 C          53.2072    8.5261  -27.9355 C.3     1  UNL1        0.0244
     34 C          51.0162    9.0230  -29.0585 C.3     1  UNL1        0.0244
     35 C          52.6844   10.8630  -28.6686 C.3     1  UNL1        0.0244
@<TRIPOS>BOND
     1    30    31    1
     2    31    19    1
     3    19    20   ar
     4    20    21   ar
     5    21    22   ar
     6    22    23   ar
     7    23    24   ar
     8    24    25   ar
     9    25    26    1
    10    25    27   ar
    11    27     1    1
    12     1     2    2
    13     1     3   am
    14     3     4    1
    15     4     5    1
    16     5     6    1
    17     6     7    1
    18     7     8    1
    19     6     9    1
    20     9    10    1
    21    10    11   ar
    22    11    12   ar
    23    12    32    1
    24    32    33    1
    25    32    34    1
    26    32    35    1
    27    12    13   ar
    28    13    14   ar
    29    14    15    1
    30    15    16    2
    31    15    17   am
    32    27    28   ar
    33    28    29   ar
    34    29    19   ar
    35    29    23   ar
    36     8     3    1
    37    14    10   ar
    38    17     6    1
    39    17    18    1
@<TRIPOS>MOLECULE
*****
 35 39 0 0 0
SMALL
GASTEIGER

@<TRIPOS>ATOM
      1 C          50.1911   15.9231  -24.0977 C.2     1  UNL1        0.2495
      2 O          50.8979   16.8825  -23.6848 O.2     1  UNL1       -0.2699
      3 N          50.3133   14.6324  -23.4626 N.am    1  UNL1       -0.2760
      4 C          49.1874   13.6910  -23.3999 C.3     1  UNL1        0.0954
      5 C          49.6124   12.2966  -23.8978 C.3     1  UNL1        0.0399
      6 C          51.1056   11.9370  -23.5999 C.3     1  UNL1        0.0645
      7 C          51.6340   12.7978  -22.4221 C.3     1  UNL1        0.0399
      8 C          51.5460   14.3040  -22.7317 C.3     1  UNL1        0.0954
      9 C          51.9982   12.1981  -24.8691 C.3     1  UNL1        0.0477
     10 C          51.8106   11.1211  -25.8925 C.ar    1  UNL1        0.0220
     11 C          52.1755   11.0759  -27.2181 C.ar    1  UNL1        0.0923
     12 N          52.0055    9.8012  -27.6558 N.ar    1  UNL1       -0.2534
     13 N          51.6027    9.0382  -26.6431 N.ar    1  UNL1       -0.1651
     14 C          51.4779    9.8420  -25.5735 C.ar    1  UNL1        0.1515
     15 C          51.1831    9.4648  -24.1994 C.2     1  UNL1        0.2650
     16 O          50.9758    8.2647  -23.8792 O.2     1  UNL1       -0.2684
     17 N          51.1700   10.5072  -23.2107 N.am    1  UNL1       -0.3023
     18 H          51.0184   10.2372  -22.2120 H       1  UNL1        0.1497
     19 C          45.8741   15.1386  -26.3651 C.ar    1  UNL1        0.2248
     20 N          45.0550   15.3331  -27.4369 N.ar    1  UNL1       -0.2101
     21 C          45.4383   16.0634  -28.5165 C.ar    1  UNL1        0.1021
     22 C          46.7014   16.6550  -28.5514 C.ar    1  UNL1        0.0209
     23 C          47.5730   16.4800  -27.4691 C.ar    1  UNL1        0.0065
     24 C          48.8390   17.0806  -27.4657 C.ar    1  UNL1        0.0070
     25 C          49.7011   16.9207  -26.3741 C.ar    1  UNL1        0.0389
     26 BR         51.3743   17.8608  -26.4211 Br      1  UNL1       -0.0489
     27 C          49.3051   16.1329  -25.2699 C.ar    1  UNL1        0.0599
     28 C          48.0444   15.5130  -25.2898 C.ar    1  UNL1        0.0096
     29 C          47.1650   15.6998  -26.3659 C.ar    1  UNL1        0.0534
     30 C          45.2354   12.9937  -25.2965 C.3     1  UNL1        0.2542
     31 O          45.4288   14.4019  -25.2603 O.3     1  UNL1       -0.4561
     32 C          52.3745    9.2491  -28.9757 C.3     1  UNL1        0.0867
     33 C          53.5457    8.2469  -28.8681 C.3     1  UNL1        0.0244
     34 C          51.1518    8.5322  -29.5732 C.3     1  UNL1        0.0244
     35 C          52.8011   10.3999  -29.9085 C.3     1  UNL1        0.0244
@<TRIPOS>BOND
     1    30    31    1
     2    31    19    1
     3    19    20   ar
     4    20    21   ar
     5    21    22   ar
     6    22    23   ar
     7    23    24   ar
     8    24    25   ar
     9    25    26    1
    10    25    27   ar
    11    27     1    1
    12     1     2    2
    13     1     3   am
    14     3     4    1
    15     4     5    1
    16     5     6    1
    17     6     7    1
    18     7     8    1
    19     6     9    1
    20     9    10    1
    21    10    11   ar
    22    11    12   ar
    23    12    32    1
    24    32    33    1
    25    32    34    1
    26    32    35    1
    27    12    13   ar
    28    13    14   ar
    29    14    15    1
    30    15    16    2
    31    15    17   am
    32    27    28   ar
    33    28    29   ar
    34    29    19   ar
    35    29    23   ar
    36     8     3    1
    37    14    10   ar
    38    17     6    1
    39    17    18    1
@<TRIPOS>MOLECULE
*****
 35 39 0 0 0
SMALL
GASTEIGER

@<TRIPOS>ATOM
      1 C          46.1988   14.7970  -25.6354 C.2     1  UNL1        0.2495
      2 O          45.0227   15.2512  -25.6074 O.2     1  UNL1       -0.2699
      3 N          46.4292   13.4136  -25.2924 N.am    1  UNL1       -0.2760
      4 C          47.5424   12.6483  -25.8694 C.3     1  UNL1        0.0954
      5 C          48.3549   11.9476  -24.7641 C.3     1  UNL1        0.0399
      6 C          47.5066   11.5095  -23.5247 C.3     1  UNL1        0.0645
      7 C          46.0130   11.3775  -23.9237 C.3     1  UNL1        0.0399
      8 C          45.4461   12.7056  -24.4597 C.3     1  UNL1        0.0954
      9 C          47.6384   12.5661  -22.3663 C.3     1  UNL1        0.0477
     10 C          48.9570   12.4404  -21.6677 C.ar    1  UNL1        0.0220
     11 C          49.5911   13.2962  -20.7970 C.ar    1  UNL1        0.0923
     12 N          50.6438   12.6334  -20.2511 N.ar    1  UNL1       -0.2534
     13 N          50.6588   11.3824  -20.7036 N.ar    1  UNL1       -0.1651
     14 C          49.6377   11.2675  -21.5696 C.ar    1  UNL1        0.1515
     15 C          49.1602   10.0658  -22.2368 C.2     1  UNL1        0.2650
     16 O          49.7258    8.9535  -22.0676 O.2     1  UNL1       -0.2684
     17 N          47.9969   10.1850  -23.0714 N.am    1  UNL1       -0.3023
     18 H          47.6116    9.3159  -23.5067 H       1  UNL1        0.1497
     19 C          50.6085   16.6946  -24.4749 C.ar    1  UNL1        0.2248
     20 N          51.6422   17.5339  -24.7656 N.ar    1  UNL1       -0.2101
     21 C          51.6389   18.3307  -25.8660 C.ar    1  UNL1        0.1021
     22 C          50.5606   18.3012  -26.7510 C.ar    1  UNL1        0.0209
     23 C          49.4787   17.4512  -26.4887 C.ar    1  UNL1        0.0065
     24 C          48.3922   17.3831  -27.3710 C.ar    1  UNL1        0.0070
     25 C          47.3207   16.5183  -27.1172 C.ar    1  UNL1        0.0389
     26 BR         45.9256   16.4258  -28.4327 Br      1  UNL1       -0.0489
     27 C          47.3194   15.7170  -25.9533 C.ar    1  UNL1        0.0599
     28 C          48.4000   15.8076  -25.0599 C.ar    1  UNL1        0.0096
     29 C          49.4906   16.6469  -25.3290 C.ar    1  UNL1        0.0534
     30 C          51.4213   14.6660  -23.3023 C.3     1  UNL1        0.2542
     31 O          50.6651   15.8695  -23.3446 O.3     1  UNL1       -0.4561
     32 C          51.5443   13.1072  -19.1798 C.3     1  UNL1        0.0867
     33 C          52.7583   12.1688  -18.9979 C.3     1  UNL1        0.0244
     34 C          52.0463   14.5157  -19.5402 C.3     1  UNL1        0.0244
     35 C          50.7678   13.1641  -17.8492 C.3     1  UNL1        0.0244
@<TRIPOS>BOND
     1    30    31    1
     2    31    19    1
     3    19    20   ar
     4    20    21   ar
     5    21    22   ar
     6    22    23   ar
     7    23    24   ar
     8    24    25   ar
     9    25    26    1
    10    25    27   ar
    11    27     1    1
    12     1     2    2
    13     1     3   am
    14     3     4    1
    15     4     5    1
    16     5     6    1
    17     6     7    1
    18     7     8    1
    19     6     9    1
    20     9    10    1
    21    10    11   ar
    22    11    12   ar
    23    12    32    1
    24    32    33    1
    25    32    34    1
    26    32    35    1
    27    12    13   ar
    28    13    14   ar
    29    14    15    1
    30    15    16    2
    31    15    17   am
    32    27    28   ar
    33    28    29   ar
    34    29    19   ar
    35    29    23   ar
    36     8     3    1
    37    14    10   ar
    38    17     6    1
    39    17    18    1
@<TRIPOS>MOLECULE
*****
 35 39 0 0 0
SMALL
GASTEIGER

@<TRIPOS>ATOM
      1 C          49.5762   10.7121  -24.2865 C.2     1  UNL1        0.2495
      2 O          50.3107    9.8196  -24.7911 O.2     1  UNL1       -0.2699
      3 N          48.3981   11.1434  -25.0009 N.am    1  UNL1       -0.2760
      4 C          47.2072   11.6417  -24.3000 C.3     1  UNL1        0.0954
      5 C          46.7534   12.9922  -24.8856 C.3     1  UNL1        0.0399
      6 C          47.0312   13.1529  -26.4169 C.3     1  UNL1        0.0645
      7 C          47.1753   11.7572  -27.0794 C.3     1  UNL1        0.0399
      8 C          48.3264   10.9457  -26.4559 C.3     1  UNL1        0.0954
      9 C          48.3527   13.9736  -26.6532 C.3     1  UNL1        0.0477
     10 C          48.1319   15.4348  -26.4109 C.ar    1  UNL1        0.0220
     11 C          49.0355   16.4592  -26.2480 C.ar    1  UNL1        0.0923
     12 N          48.3518   17.6321  -26.2974 N.ar    1  UNL1       -0.2534
     13 N          47.0676   17.3831  -26.5399 N.ar    1  UNL1       -0.1651
     14 C          46.9333   16.0474  -26.6021 C.ar    1  UNL1        0.1515
     15 C          45.7500   15.2824  -26.9654 C.2     1  UNL1        0.2650
     16 O          44.6620   15.8513  -27.2451 O.2     1  UNL1       -0.2684
     17 N          45.8746   13.8524  -27.0277 N.am    1  UNL1       -0.3023
     18 H          45.0466   13.2990  -27.3458 H       1  UNL1        0.1497
     19 C          49.7902   10.5719  -19.3543 C.ar    1  UNL1        0.2248
     20 N          50.1671   11.1432  -18.1757 N.ar    1  UNL1       -0.2101
     21 C          50.7954   12.3467  -18.1241 C.ar    1  UNL1        0.1021
     22 C          51.0874   13.0374  -19.3007 C.ar    1  UNL1        0.0209
     23 C          50.7177   12.4837  -20.5330 C.ar    1  UNL1        0.0065
     24 C          51.0179   13.1430  -21.7325 C.ar    1  UNL1        0.0070
     25 C          50.6649   12.5784  -22.9641 C.ar    1  UNL1        0.0389
     26 BR         51.2043   13.5105  -24.5534 Br      1  UNL1       -0.0489
     27 C          49.9834   11.3412  -23.0053 C.ar    1  UNL1        0.0599
     28 C          49.6634   10.6967  -21.7986 C.ar    1  UNL1        0.0096
     29 C          50.0463   11.2426  -20.5650 C.ar    1  UNL1        0.0534
     30 C          48.0905    8.9934  -20.2317 C.3     1  UNL1        0.2542
     31 O          49.1696    9.3164  -19.3639 O.3     1  UNL1       -0.4561
     32 C          48.9130   18.9988  -26.2849 C.3     1  UNL1        0.0867
     33 C          48.9977   19.5942  -27.7083 C.3     1  UNL1        0.0244
     34 C          48.0149   19.8961  -25.4166 C.3     1  UNL1        0.0244
     35 C          50.3331   18.9614  -25.6863 C.3     1  UNL1        0.0244
@<TRIPOS>BOND
     1    30    31    1
     2    31    19    1
     3    19    20   ar
     4    20    21   ar
     5    21    22   ar
     6    22    23   ar
     7    23    24   ar
     8    24    25   ar
     9    25    26    1
    10    25    27   ar
    11    27     1    1
    12     1     2    2
    13     1     3   am
    14     3     4    1
    15     4     5    1
    16     5     6    1
    17     6     7    1
    18     7     8    1
    19     6     9    1
    20     9    10    1
    21    10    11   ar
    22    11    12   ar
    23    12    32    1
    24    32    33    1
    25    32    34    1
    26    32    35    1
    27    12    13   ar
    28    13    14   ar
    29    14    15    1
    30    15    16    2
    31    15    17   am
    32    27    28   ar
    33    28    29   ar
    34    29    19   ar
    35    29    23   ar
    36     8     3    1
    37    14    10   ar
    38    17     6    1
    39    17    18    1
