@<TRIPOS>MOLECULE
*****
 50 55 0 0 0
SMALL
GASTEIGER

@<TRIPOS>ATOM
      1 C          13.3627   83.0381   24.9531 C.2     1  UNL1        0.2483
      2 O          14.0369   83.4029   25.9552 O.2     1  UNL1       -0.2701
      3 N          13.3707   83.8379   23.7595 N.am    1  UNL1       -0.2945
      4 H          12.6462   83.6563   23.0282 H       1  UNL1        0.1501
      5 C          10.9587   79.4733   25.2057 C.ar    1  UNL1        0.0502
      6 C          10.3728   80.7481   25.2919 C.ar    1  UNL1        0.0148
      7 C          11.1603   81.8991   25.2129 C.ar    1  UNL1        0.0080
      8 C          12.5501   81.8037   25.0366 C.ar    1  UNL1        0.0808
      9 C          13.1434   80.5287   24.9705 C.ar    1  UNL1        0.1457
     10 F          14.4899   80.3880   24.8754 F       1  UNL1       -0.2040
     11 C          12.3526   79.3782   25.0521 C.ar    1  UNL1        0.0443
     12 N           8.5476   76.0372   25.8650 N.pl3   1  UNL1       -0.3017
     13 C           8.0143   77.0534   24.9541 C.3     1  UNL1        0.1123
     14 C           8.6789   78.4020   25.2384 C.3     1  UNL1        0.1122
     15 N          10.1463   78.2818   25.2935 N.pl3   1  UNL1       -0.3040
     16 C          10.7795   76.9530   25.2786 C.3     1  UNL1        0.1122
     17 C           9.9879   75.9623   26.1407 C.3     1  UNL1        0.1123
     18 C           5.9145   73.4364   27.9538 C.ar    1  UNL1        0.1523
     19 C           6.0728   73.3097   26.5597 C.ar    1  UNL1        0.0759
     20 C           6.9364   74.1704   25.8535 C.ar    1  UNL1        0.1550
     21 C           7.6511   75.1553   26.5561 C.ar    1  UNL1        0.0834
     22 C           7.4874   75.2852   27.9404 C.ar    1  UNL1        0.0321
     23 C           6.6272   74.4325   28.6359 C.ar    1  UNL1        0.0929
     24 CL          6.4529   74.6222   30.3741 Cl      1  UNL1       -0.0790
     25 C           3.8242   73.0039   29.2628 C.3     1  UNL1        0.2525
     26 O           5.0616   72.5964   28.6881 O.3     1  UNL1       -0.4705
     27 O           7.0975   74.0855   24.4610 O.3     1  UNL1       -0.4701
     28 C           6.0329   74.1467   23.5178 C.3     1  UNL1        0.2525
     29 C          14.3226   84.9377   23.5701 C.3     1  UNL1        0.1535
     30 C          14.7415   85.0094   22.1232 C.2     1  UNL1        0.2443
     31 O          15.7365   84.3395   21.7329 O.2     1  UNL1       -0.2730
     32 N          13.9401   85.7456   21.1841 N.am    1  UNL1       -0.2825
     33 H          13.0514   86.1700   21.5342 H       1  UNL1        0.1549
     34 C          14.1405   85.7055   19.7624 C.ar    1  UNL1        0.0535
     35 C          14.4613   84.4880   19.1470 C.ar    1  UNL1        0.0353
     36 C          14.6589   84.4435   17.7655 C.ar    1  UNL1        0.1002
     37 N          14.5200   85.5719   17.0204 N.ar    1  UNL1       -0.2422
     38 C          14.1871   86.7623   17.5863 C.ar    1  UNL1        0.1002
     39 C          13.9849   86.8514   18.9660 C.ar    1  UNL1        0.0353
     40 C          13.6961   86.2736   24.0172 C.3     1  UNL1        0.0569
     41 C          14.5939   87.0182   24.9663 C.ar    1  UNL1       -0.0017
     42 C          14.4162   87.1419   26.3410 C.ar    1  UNL1        0.0681
     43 N          15.4815   87.7578   26.9021 N.ar    1  UNL1       -0.3523
     44 C          16.3371   88.0110   25.8966 C.ar    1  UNL1        0.0563
     45 C          17.6012   88.5914   25.9902 C.ar    1  UNL1        0.0170
     46 C          18.3557   88.7188   24.8096 C.ar    1  UNL1        0.0015
     47 C          17.8368   88.2661   23.5766 C.ar    1  UNL1        0.0001
     48 C          16.5584   87.6833   23.5123 C.ar    1  UNL1        0.0012
     49 C          15.8319   87.5732   24.6990 C.ar    1  UNL1        0.0131
     50 H          15.6210   87.9645   27.9161 H       1  UNL1        0.1660
@<TRIPOS>BOND
     1    25    26    1
     2    26    18    1
     3    18    19   ar
     4    19    20   ar
     5    20    27    1
     6    27    28    1
     7    20    21   ar
     8    21    12    1
     9    12    13    1
    10    13    14    1
    11    14    15    1
    12    15     5    1
    13     5     6   ar
    14     6     7   ar
    15     7     8   ar
    16     8     1    1
    17     1     2    2
    18     1     3   am
    19     3    29    1
    20    29    40    1
    21    40    41    1
    22    41    42   ar
    23    42    43   ar
    24    43    44   ar
    25    44    45   ar
    26    45    46   ar
    27    46    47   ar
    28    47    48   ar
    29    48    49   ar
    30    29    30    1
    31    30    31    2
    32    30    32   am
    33    32    34    1
    34    34    35   ar
    35    35    36   ar
    36    36    37   ar
    37    37    38   ar
    38    38    39   ar
    39     8     9   ar
    40     9    10    1
    41     9    11   ar
    42    15    16    1
    43    16    17    1
    44    21    22   ar
    45    22    23   ar
    46    23    24    1
    47    23    18   ar
    48    17    12    1
    49    11     5   ar
    50    49    41   ar
    51    39    34   ar
    52    49    44   ar
    53     3     4    1
    54    43    50    1
    55    32    33    1
@<TRIPOS>MOLECULE
*****
 50 55 0 0 0
SMALL
GASTEIGER

@<TRIPOS>ATOM
      1 C          13.4494   83.2217   24.9737 C.2     1  UNL1        0.2483
      2 O          14.1852   83.3837   25.9857 O.2     1  UNL1       -0.2701
      3 N          13.3948   84.2406   23.9621 N.am    1  UNL1       -0.2945
      4 H          12.6267   84.2050   23.2540 H       1  UNL1        0.1501
      5 C          11.0275   79.6749   24.6496 C.ar    1  UNL1        0.0502
      6 C          10.4421   80.9528   24.6477 C.ar    1  UNL1        0.0148
      7 C          11.2346   82.0979   24.7571 C.ar    1  UNL1        0.0080
      8 C          12.6310   81.9935   24.8615 C.ar    1  UNL1        0.0808
      9 C          13.2196   80.7148   24.8847 C.ar    1  UNL1        0.1457
     10 F          14.5571   80.5636   25.0588 F       1  UNL1       -0.2040
     11 C          12.4234   79.5702   24.7771 C.ar    1  UNL1        0.0443
     12 N           8.4187   76.3775   24.0359 N.pl3   1  UNL1       -0.3017
     13 C           9.8523   76.1259   23.8674 C.3     1  UNL1        0.1123
     14 C          10.5770   77.4414   23.5750 C.3     1  UNL1        0.1122
     15 N          10.2086   78.4894   24.5429 N.pl3   1  UNL1       -0.3040
     16 C           9.1127   78.2598   25.4985 C.3     1  UNL1        0.1122
     17 C           7.9485   77.5225   24.8259 C.3     1  UNL1        0.1123
     18 C           5.5801   73.9522   22.0060 C.ar    1  UNL1        0.1523
     19 C           5.9439   73.6521   23.3334 C.ar    1  UNL1        0.0759
     20 C           6.8895   74.4430   24.0157 C.ar    1  UNL1        0.1550
     21 C           7.4629   75.5466   23.3615 C.ar    1  UNL1        0.0834
     22 C           7.1062   75.8396   22.0398 C.ar    1  UNL1        0.0321
     23 C           6.1713   75.0505   21.3659 C.ar    1  UNL1        0.0929
     24 CL          5.7444   75.4536   19.7097 Cl      1  UNL1       -0.0790
     25 C           3.4038   73.6795   20.7980 C.3     1  UNL1        0.2525
     26 O           4.6423   73.1844   21.2967 O.3     1  UNL1       -0.4705
     27 O           7.2911   74.1558   25.3304 O.3     1  UNL1       -0.4701
     28 C           6.4545   74.2733   26.4762 C.3     1  UNL1        0.2525
     29 C          14.3447   85.3580   23.9358 C.3     1  UNL1        0.1535
     30 C          14.7759   85.6308   22.5167 C.2     1  UNL1        0.2443
     31 O          15.9984   85.5534   22.2154 O.2     1  UNL1       -0.2730
     32 N          13.7847   85.8626   21.5019 N.am    1  UNL1       -0.2825
     33 H          12.7801   85.7814   21.7789 H       1  UNL1        0.1549
     34 C          14.0819   85.9286   20.0983 C.ar    1  UNL1        0.0535
     35 C          14.6192   84.8053   19.4554 C.ar    1  UNL1        0.0353
     36 C          14.9119   84.8644   18.0913 C.ar    1  UNL1        0.1002
     37 N          14.6568   85.9993   17.3881 N.ar    1  UNL1       -0.2422
     38 C          14.1148   87.0968   17.9796 C.ar    1  UNL1        0.1002
     39 C          13.8112   87.0812   19.3434 C.ar    1  UNL1        0.0353
     40 C          13.7100   86.6177   24.5583 C.3     1  UNL1        0.0569
     41 C          14.5850   87.2097   25.6284 C.ar    1  UNL1       -0.0017
     42 C          14.4091   87.0759   27.0024 C.ar    1  UNL1        0.0681
     43 N          15.4543   87.6178   27.6680 N.ar    1  UNL1       -0.3523
     44 C          16.2958   88.0794   26.7268 C.ar    1  UNL1        0.0563
     45 C          17.5389   88.6782   26.9265 C.ar    1  UNL1        0.0170
     46 C          18.2831   89.0442   25.7901 C.ar    1  UNL1        0.0015
     47 C          17.7751   88.8040   24.4944 C.ar    1  UNL1        0.0001
     48 C          16.5180   88.1971   24.3231 C.ar    1  UNL1        0.0012
     49 C          15.8012   87.8479   25.4686 C.ar    1  UNL1        0.0131
     50 H          15.5910   87.6422   28.7030 H       1  UNL1        0.1660
@<TRIPOS>BOND
     1    25    26    1
     2    26    18    1
     3    18    19   ar
     4    19    20   ar
     5    20    27    1
     6    27    28    1
     7    20    21   ar
     8    21    12    1
     9    12    13    1
    10    13    14    1
    11    14    15    1
    12    15     5    1
    13     5     6   ar
    14     6     7   ar
    15     7     8   ar
    16     8     1    1
    17     1     2    2
    18     1     3   am
    19     3    29    1
    20    29    40    1
    21    40    41    1
    22    41    42   ar
    23    42    43   ar
    24    43    44   ar
    25    44    45   ar
    26    45    46   ar
    27    46    47   ar
    28    47    48   ar
    29    48    49   ar
    30    29    30    1
    31    30    31    2
    32    30    32   am
    33    32    34    1
    34    34    35   ar
    35    35    36   ar
    36    36    37   ar
    37    37    38   ar
    38    38    39   ar
    39     8     9   ar
    40     9    10    1
    41     9    11   ar
    42    15    16    1
    43    16    17    1
    44    21    22   ar
    45    22    23   ar
    46    23    24    1
    47    23    18   ar
    48    17    12    1
    49    11     5   ar
    50    49    41   ar
    51    39    34   ar
    52    49    44   ar
    53     3     4    1
    54    43    50    1
    55    32    33    1
@<TRIPOS>MOLECULE
*****
 50 55 0 0 0
SMALL
GASTEIGER

@<TRIPOS>ATOM
      1 C           7.6521   76.3683   22.1494 C.2     1  UNL1        0.2483
      2 O           7.2518   76.5152   20.9620 O.2     1  UNL1       -0.2701
      3 N           7.2205   75.2290   22.9110 N.am    1  UNL1       -0.2945
      4 H           7.3681   75.2312   23.9458 H       1  UNL1        0.1501
      5 C          10.2385   79.3174   23.9281 C.ar    1  UNL1        0.0502
      6 C          10.0407   78.0669   24.5385 C.ar    1  UNL1        0.0148
      7 C           9.1971   77.1175   23.9569 C.ar    1  UNL1        0.0080
      8 C           8.5389   77.3916   22.7473 C.ar    1  UNL1        0.0808
      9 C           8.7180   78.6507   22.1433 C.ar    1  UNL1        0.1457
     10 F           8.0446   78.9867   21.0139 F       1  UNL1       -0.2040
     11 C           9.5616   79.5999   22.7291 C.ar    1  UNL1        0.0443
     12 N          12.7815   82.4120   25.3467 N.pl3   1  UNL1       -0.3017
     13 C          11.5184   82.2147   26.0626 C.3     1  UNL1        0.1123
     14 C          10.5155   81.5007   25.1540 C.3     1  UNL1        0.1122
     15 N          11.1058   80.3028   24.5317 N.pl3   1  UNL1       -0.3040
     16 C          12.5476   80.0367   24.6633 C.3     1  UNL1        0.1122
     17 C          13.3555   81.3334   24.5322 C.3     1  UNL1        0.1123
     18 C          14.6992   86.2043   25.3838 C.ar    1  UNL1        0.1523
     19 C          14.6050   85.4494   26.5695 C.ar    1  UNL1        0.0759
     20 C          13.9650   84.1941   26.5732 C.ar    1  UNL1        0.1550
     21 C          13.4273   83.6930   25.3756 C.ar    1  UNL1        0.0834
     22 C          13.5148   84.4473   24.1995 C.ar    1  UNL1        0.0321
     23 C          14.1466   85.6930   24.2012 C.ar    1  UNL1        0.0929
     24 CL         14.2424   86.6075   22.7037 Cl      1  UNL1       -0.0790
     25 C          15.3922   88.3656   26.4412 C.3     1  UNL1        0.2525
     26 O          15.3290   87.4588   25.3451 O.3     1  UNL1       -0.4705
     27 O          13.8335   83.4286   27.7431 O.3     1  UNL1       -0.4701
     28 C          13.9606   83.9419   29.0649 C.3     1  UNL1        0.2525
     29 C           6.5249   74.0983   22.2871 C.3     1  UNL1        0.1535
     30 C           5.2274   74.5675   21.6784 C.2     1  UNL1        0.2443
     31 O           4.3529   75.0973   22.4172 O.2     1  UNL1       -0.2730
     32 N           5.0465   74.5117   20.2535 N.am    1  UNL1       -0.2825
     33 H           5.8553   74.1899   19.6750 H       1  UNL1        0.1549
     34 C           3.9397   75.1169   19.5668 C.ar    1  UNL1        0.0535
     35 C           2.6315   74.7959   19.9535 C.ar    1  UNL1        0.0353
     36 C           1.5517   75.3799   19.2881 C.ar    1  UNL1        0.1002
     37 N           1.7703   76.2705   18.2848 N.ar    1  UNL1       -0.2422
     38 C           3.0277   76.6187   17.9032 C.ar    1  UNL1        0.1002
     39 C           4.1361   76.0542   18.5399 C.ar    1  UNL1        0.0353
     40 C           7.4182   73.4435   21.2145 C.3     1  UNL1        0.0569
     41 C           8.5458   72.6630   21.8315 C.ar    1  UNL1       -0.0017
     42 C           8.5776   71.2872   22.0385 C.ar    1  UNL1        0.0681
     43 N           9.7955   70.9041   22.4846 N.ar    1  UNL1       -0.3523
     44 C          10.5377   72.0231   22.5473 C.ar    1  UNL1        0.0563
     45 C          11.8811   72.1258   22.9059 C.ar    1  UNL1        0.0170
     46 C          12.4803   73.3976   22.8549 C.ar    1  UNL1        0.0015
     47 C          11.7327   74.5250   22.4491 C.ar    1  UNL1        0.0001
     48 C          10.3789   74.3914   22.0919 C.ar    1  UNL1        0.0012
     49 C           9.8107   73.1181   22.1552 C.ar    1  UNL1        0.0131
     50 H          10.1024   69.9305   22.7045 H       1  UNL1        0.1660
@<TRIPOS>BOND
     1    25    26    1
     2    26    18    1
     3    18    19   ar
     4    19    20   ar
     5    20    27    1
     6    27    28    1
     7    20    21   ar
     8    21    12    1
     9    12    13    1
    10    13    14    1
    11    14    15    1
    12    15     5    1
    13     5     6   ar
    14     6     7   ar
    15     7     8   ar
    16     8     1    1
    17     1     2    2
    18     1     3   am
    19     3    29    1
    20    29    40    1
    21    40    41    1
    22    41    42   ar
    23    42    43   ar
    24    43    44   ar
    25    44    45   ar
    26    45    46   ar
    27    46    47   ar
    28    47    48   ar
    29    48    49   ar
    30    29    30    1
    31    30    31    2
    32    30    32   am
    33    32    34    1
    34    34    35   ar
    35    35    36   ar
    36    36    37   ar
    37    37    38   ar
    38    38    39   ar
    39     8     9   ar
    40     9    10    1
    41     9    11   ar
    42    15    16    1
    43    16    17    1
    44    21    22   ar
    45    22    23   ar
    46    23    24    1
    47    23    18   ar
    48    17    12    1
    49    11     5   ar
    50    49    41   ar
    51    39    34   ar
    52    49    44   ar
    53     3     4    1
    54    43    50    1
    55    32    33    1
@<TRIPOS>MOLECULE
*****
 50 55 0 0 0
SMALL
GASTEIGER

@<TRIPOS>ATOM
      1 C           9.2952   76.3409   26.3468 C.2     1  UNL1        0.2483
      2 O          10.3741   75.6891   26.2931 O.2     1  UNL1       -0.2701
      3 N           9.0574   77.2360   27.4452 N.am    1  UNL1       -0.2945
      4 H           8.0875   77.5930   27.6016 H       1  UNL1        0.1501
      5 C           6.3545   75.8195   23.2434 C.ar    1  UNL1        0.0502
      6 C           7.3544   76.8012   23.1343 C.ar    1  UNL1        0.0148
      7 C           8.3020   76.9664   24.1473 C.ar    1  UNL1        0.0080
      8 C           8.2785   76.1483   25.2883 C.ar    1  UNL1        0.0808
      9 C           7.2663   75.1776   25.4110 C.ar    1  UNL1        0.1457
     10 F           7.1600   74.4154   26.5289 F       1  UNL1       -0.2040
     11 C           6.3177   75.0162   24.3962 C.ar    1  UNL1        0.0443
     12 N           3.2873   75.0409   20.4077 N.pl3   1  UNL1       -0.3017
     13 C           3.3767   76.4087   20.9252 C.3     1  UNL1        0.1123
     14 C           4.1060   76.4056   22.2703 C.3     1  UNL1        0.1122
     15 N           5.3699   75.6518   22.1995 N.pl3   1  UNL1       -0.3040
     16 C           5.6913   74.8602   21.0007 C.3     1  UNL1        0.1122
     17 C           4.4449   74.1398   20.4727 C.3     1  UNL1        0.1123
     18 C          -0.4005   73.5348   18.9268 C.ar    1  UNL1        0.1523
     19 C           0.0756   74.7876   18.4926 C.ar    1  UNL1        0.0759
     20 C           1.2927   75.3025   18.9814 C.ar    1  UNL1        0.1550
     21 C           2.0380   74.5476   19.9029 C.ar    1  UNL1        0.0834
     22 C           1.5603   73.3061   20.3394 C.ar    1  UNL1        0.0321
     23 C           0.3513   72.8013   19.8553 C.ar    1  UNL1        0.0929
     24 CL         -0.2124   71.2364   20.4220 Cl      1  UNL1       -0.0790
     25 C          -2.6502   73.7470   17.8480 C.3     1  UNL1        0.2525
     26 O          -1.6093   72.9929   18.4610 O.3     1  UNL1       -0.4705
     27 O           1.7822   76.5582   18.5868 O.3     1  UNL1       -0.4701
     28 C           2.8496   76.7581   17.6661 C.3     1  UNL1        0.2525
     29 C          10.1202   77.6089   28.3849 C.3     1  UNL1        0.1535
     30 C           9.9136   79.0264   28.8562 C.2     1  UNL1        0.2443
     31 O           9.3801   79.8654   28.0798 O.2     1  UNL1       -0.2730
     32 N          10.2193   79.3778   30.2160 N.am    1  UNL1       -0.2825
     33 H          10.5311   78.6121   30.8556 H       1  UNL1        0.1549
     34 C           9.8692   80.6372   30.8113 C.ar    1  UNL1        0.0535
     35 C           9.1357   80.6535   32.0052 C.ar    1  UNL1        0.0353
     36 C           8.7910   81.8749   32.5875 C.ar    1  UNL1        0.1002
     37 N           9.1836   83.0406   32.0089 N.ar    1  UNL1       -0.2422
     38 C           9.9154   83.0558   30.8633 C.ar    1  UNL1        0.1002
     39 C          10.2775   81.8558   30.2458 C.ar    1  UNL1        0.0353
     40 C          10.1420   76.6396   29.5837 C.3     1  UNL1        0.0569
     41 C           8.9193   75.7649   29.6132 C.ar    1  UNL1       -0.0017
     42 C           8.8772   74.4003   29.3436 C.ar    1  UNL1        0.0681
     43 N           7.6443   73.9058   29.5977 N.ar    1  UNL1       -0.3523
     44 C           6.9114   74.9425   30.0395 C.ar    1  UNL1        0.0563
     45 C           5.5872   74.9152   30.4749 C.ar    1  UNL1        0.0170
     46 C           5.0249   76.1153   30.9469 C.ar    1  UNL1        0.0015
     47 C           5.7906   77.3017   30.9750 C.ar    1  UNL1        0.0001
     48 C           7.1249   77.2994   30.5302 C.ar    1  UNL1        0.0012
     49 C           7.6547   76.0950   30.0646 C.ar    1  UNL1        0.0131
     50 H           7.3370   72.9127   29.4994 H       1  UNL1        0.1660
@<TRIPOS>BOND
     1    25    26    1
     2    26    18    1
     3    18    19   ar
     4    19    20   ar
     5    20    27    1
     6    27    28    1
     7    20    21   ar
     8    21    12    1
     9    12    13    1
    10    13    14    1
    11    14    15    1
    12    15     5    1
    13     5     6   ar
    14     6     7   ar
    15     7     8   ar
    16     8     1    1
    17     1     2    2
    18     1     3   am
    19     3    29    1
    20    29    40    1
    21    40    41    1
    22    41    42   ar
    23    42    43   ar
    24    43    44   ar
    25    44    45   ar
    26    45    46   ar
    27    46    47   ar
    28    47    48   ar
    29    48    49   ar
    30    29    30    1
    31    30    31    2
    32    30    32   am
    33    32    34    1
    34    34    35   ar
    35    35    36   ar
    36    36    37   ar
    37    37    38   ar
    38    38    39   ar
    39     8     9   ar
    40     9    10    1
    41     9    11   ar
    42    15    16    1
    43    16    17    1
    44    21    22   ar
    45    22    23   ar
    46    23    24    1
    47    23    18   ar
    48    17    12    1
    49    11     5   ar
    50    49    41   ar
    51    39    34   ar
    52    49    44   ar
    53     3     4    1
    54    43    50    1
    55    32    33    1
@<TRIPOS>MOLECULE
*****
 50 55 0 0 0
SMALL
GASTEIGER

@<TRIPOS>ATOM
      1 C           8.4062   75.5038   24.3098 C.2     1  UNL1        0.2483
      2 O           8.2850   74.6138   25.1959 O.2     1  UNL1       -0.2701
      3 N           7.7382   75.3478   23.0473 N.am    1  UNL1       -0.2945
      4 H           8.0201   75.9628   22.2505 H       1  UNL1        0.1501
      5 C          10.8560   78.9613   25.0808 C.ar    1  UNL1        0.0502
      6 C           9.4797   79.0924   24.8274 C.ar    1  UNL1        0.0148
      7 C           8.6931   77.9661   24.5744 C.ar    1  UNL1        0.0080
      8 C           9.2611   76.6820   24.5780 C.ar    1  UNL1        0.0808
      9 C          10.6431   76.5481   24.8108 C.ar    1  UNL1        0.1457
     10 F          11.2483   75.3348   24.7501 F       1  UNL1       -0.2040
     11 C          11.4284   77.6778   25.0616 C.ar    1  UNL1        0.0443
     12 N          13.1454   82.5204   25.4640 N.pl3   1  UNL1       -0.3017
     13 C          12.1019   82.2950   26.4676 C.3     1  UNL1        0.1123
     14 C          11.0510   81.3312   25.9127 C.3     1  UNL1        0.1122
     15 N          11.6721   80.1259   25.3363 N.pl3   1  UNL1       -0.3040
     16 C          13.1331   80.0551   25.1711 C.3     1  UNL1        0.1122
     17 C          13.6931   81.3991   24.6901 C.3     1  UNL1        0.1123
     18 C          14.4446   86.4654   24.5642 C.ar    1  UNL1        0.1523
     19 C          14.6037   85.9495   25.8654 C.ar    1  UNL1        0.0759
     20 C          14.1703   84.6461   26.1795 C.ar    1  UNL1        0.1550
     21 C          13.5841   83.8559   25.1763 C.ar    1  UNL1        0.0834
     22 C          13.4197   84.3722   23.8854 C.ar    1  UNL1        0.0321
     23 C          13.8472   85.6662   23.5794 C.ar    1  UNL1        0.0929
     24 CL         13.6295   86.2770   21.9461 Cl      1  UNL1       -0.0790
     25 C          14.3043   88.9590   24.7434 C.3     1  UNL1        0.2525
     26 O          14.8641   87.7599   24.2175 O.3     1  UNL1       -0.4705
     27 O          14.2926   84.1119   27.4725 O.3     1  UNL1       -0.4701
     28 C          14.3165   84.8840   28.6684 C.3     1  UNL1        0.2525
     29 C           6.7226   74.3119   22.8309 C.3     1  UNL1        0.1535
     30 C           5.3798   74.9536   22.5871 C.2     1  UNL1        0.2443
     31 O           4.5460   74.3782   21.8355 O.2     1  UNL1       -0.2730
     32 N           5.0209   76.1495   23.2992 N.am    1  UNL1       -0.2825
     33 H           5.6955   76.5097   24.0118 H       1  UNL1        0.1549
     34 C           3.7013   76.7166   23.2896 C.ar    1  UNL1        0.0535
     35 C           3.0923   77.0622   24.5035 C.ar    1  UNL1        0.0353
     36 C           1.8088   77.6122   24.5003 C.ar    1  UNL1        0.1002
     37 N           1.1635   77.8297   23.3239 N.ar    1  UNL1       -0.2422
     38 C           1.7380   77.5258   22.1299 C.ar    1  UNL1        0.1002
     39 C           3.0191   76.9697   22.0887 C.ar    1  UNL1        0.0353
     40 C           7.1156   73.4144   21.6404 C.3     1  UNL1        0.0569
     41 C           8.3674   72.6312   21.9246 C.ar    1  UNL1       -0.0017
     42 C           8.4518   71.2551   22.1141 C.ar    1  UNL1        0.0681
     43 N           9.7445   70.8692   22.2095 N.ar    1  UNL1       -0.3523
     44 C          10.4779   71.9868   22.0673 C.ar    1  UNL1        0.0563
     45 C          11.8683   72.0865   22.0444 C.ar    1  UNL1        0.0170
     46 C          12.4333   73.3573   21.8322 C.ar    1  UNL1        0.0015
     47 C          11.6055   74.4865   21.6472 C.ar    1  UNL1        0.0001
     48 C          10.2054   74.3558   21.6742 C.ar    1  UNL1        0.0012
     49 C           9.6736   73.0836   21.8899 C.ar    1  UNL1        0.0131
     50 H          10.0978   69.8948   22.3364 H       1  UNL1        0.1660
@<TRIPOS>BOND
     1    25    26    1
     2    26    18    1
     3    18    19   ar
     4    19    20   ar
     5    20    27    1
     6    27    28    1
     7    20    21   ar
     8    21    12    1
     9    12    13    1
    10    13    14    1
    11    14    15    1
    12    15     5    1
    13     5     6   ar
    14     6     7   ar
    15     7     8   ar
    16     8     1    1
    17     1     2    2
    18     1     3   am
    19     3    29    1
    20    29    40    1
    21    40    41    1
    22    41    42   ar
    23    42    43   ar
    24    43    44   ar
    25    44    45   ar
    26    45    46   ar
    27    46    47   ar
    28    47    48   ar
    29    48    49   ar
    30    29    30    1
    31    30    31    2
    32    30    32   am
    33    32    34    1
    34    34    35   ar
    35    35    36   ar
    36    36    37   ar
    37    37    38   ar
    38    38    39   ar
    39     8     9   ar
    40     9    10    1
    41     9    11   ar
    42    15    16    1
    43    16    17    1
    44    21    22   ar
    45    22    23   ar
    46    23    24    1
    47    23    18   ar
    48    17    12    1
    49    11     5   ar
    50    49    41   ar
    51    39    34   ar
    52    49    44   ar
    53     3     4    1
    54    43    50    1
    55    32    33    1
@<TRIPOS>MOLECULE
*****
 50 55 0 0 0
SMALL
GASTEIGER

@<TRIPOS>ATOM
      1 C          10.0678   75.8693   24.9034 C.2     1  UNL1        0.2483
      2 O          11.1559   75.2735   24.6737 O.2     1  UNL1       -0.2701
      3 N           9.9634   76.7523   26.0321 N.am    1  UNL1       -0.2945
      4 H           9.0141   77.0593   26.3437 H       1  UNL1        0.1501
      5 C           6.7099   75.1803   22.2957 C.ar    1  UNL1        0.0502
      6 C           7.8680   75.8252   21.8282 C.ar    1  UNL1        0.0148
      7 C           8.9510   76.0482   22.6817 C.ar    1  UNL1        0.0080
      8 C           8.9062   75.6238   24.0194 C.ar    1  UNL1        0.0808
      9 C           7.7402   74.9960   24.4971 C.ar    1  UNL1        0.1457
     10 F           7.6235   74.6362   25.8006 F       1  UNL1       -0.2040
     11 C           6.6566   74.7761   23.6408 C.ar    1  UNL1        0.0443
     12 N           3.1651   74.5888   20.0285 N.pl3   1  UNL1       -0.3017
     13 C           4.0674   75.6520   19.5784 C.3     1  UNL1        0.1123
     14 C           4.9557   76.1020   20.7402 C.3     1  UNL1        0.1122
     15 N           5.5864   74.9546   21.4158 N.pl3   1  UNL1       -0.3040
     16 C           5.1785   73.5817   21.0754 C.3     1  UNL1        0.1122
     17 C           3.6603   73.4975   20.8770 C.3     1  UNL1        0.1123
     18 C          -0.9660   74.7340   19.0421 C.ar    1  UNL1        0.1523
     19 C          -0.3185   75.8818   19.5398 C.ar    1  UNL1        0.0759
     20 C           1.0488   75.8456   19.8782 C.ar    1  UNL1        0.1550
     21 C           1.7687   74.6514   19.7046 C.ar    1  UNL1        0.0834
     22 C           1.1225   73.5092   19.2170 C.ar    1  UNL1        0.0321
     23 C          -0.2340   73.5485   18.8864 C.ar    1  UNL1        0.0929
     24 CL         -1.0087   72.0962   18.2713 Cl      1  UNL1       -0.0790
     25 C          -3.2534   75.7526   19.0626 C.3     1  UNL1        0.2525
     26 O          -2.3271   74.7350   18.6962 O.3     1  UNL1       -0.4705
     27 O           1.7170   76.9655   20.3993 O.3     1  UNL1       -0.4701
     28 C           1.4379   77.5592   21.6627 C.3     1  UNL1        0.2525
     29 C          11.1424   77.1800   26.7928 C.3     1  UNL1        0.1535
     30 C          12.0594   77.9854   25.9070 C.2     1  UNL1        0.2443
     31 O          11.8014   79.2012   25.6913 O.2     1  UNL1       -0.2730
     32 N          13.2732   77.3952   25.4124 N.am    1  UNL1       -0.2825
     33 H          13.5066   76.4279   25.7324 H       1  UNL1        0.1549
     34 C          14.3017   78.1362   24.7373 C.ar    1  UNL1        0.0535
     35 C          14.9064   77.5911   23.5967 C.ar    1  UNL1        0.0353
     36 C          15.9081   78.3063   22.9373 C.ar    1  UNL1        0.1002
     37 N          16.2790   79.5336   23.3888 N.ar    1  UNL1       -0.2422
     38 C          15.6945   80.0978   24.4788 C.ar    1  UNL1        0.1002
     39 C          14.6913   79.4139   25.1703 C.ar    1  UNL1        0.0353
     40 C          10.7174   78.0068   28.0228 C.3     1  UNL1        0.0569
     41 C           9.3782   77.5707   28.5496 C.ar    1  UNL1       -0.0017
     42 C           8.2037   78.3170   28.5303 C.ar    1  UNL1        0.0681
     43 N           7.1609   77.5690   28.9573 N.ar    1  UNL1       -0.3523
     44 C           7.6633   76.3528   29.2320 C.ar    1  UNL1        0.0563
     45 C           6.9610   75.2260   29.6571 C.ar    1  UNL1        0.0170
     46 C           7.6816   74.0314   29.8390 C.ar    1  UNL1        0.0015
     47 C           9.0715   73.9898   29.5925 C.ar    1  UNL1        0.0001
     48 C           9.7540   75.1422   29.1633 C.ar    1  UNL1        0.0012
     49 C           9.0136   76.3133   28.9946 C.ar    1  UNL1        0.0131
     50 H           6.1635   77.8700   29.0276 H       1  UNL1        0.1660
@<TRIPOS>BOND
     1    25    26    1
     2    26    18    1
     3    18    19   ar
     4    19    20   ar
     5    20    27    1
     6    27    28    1
     7    20    21   ar
     8    21    12    1
     9    12    13    1
    10    13    14    1
    11    14    15    1
    12    15     5    1
    13     5     6   ar
    14     6     7   ar
    15     7     8   ar
    16     8     1    1
    17     1     2    2
    18     1     3   am
    19     3    29    1
    20    29    40    1
    21    40    41    1
    22    41    42   ar
    23    42    43   ar
    24    43    44   ar
    25    44    45   ar
    26    45    46   ar
    27    46    47   ar
    28    47    48   ar
    29    48    49   ar
    30    29    30    1
    31    30    31    2
    32    30    32   am
    33    32    34    1
    34    34    35   ar
    35    35    36   ar
    36    36    37   ar
    37    37    38   ar
    38    38    39   ar
    39     8     9   ar
    40     9    10    1
    41     9    11   ar
    42    15    16    1
    43    16    17    1
    44    21    22   ar
    45    22    23   ar
    46    23    24    1
    47    23    18   ar
    48    17    12    1
    49    11     5   ar
    50    49    41   ar
    51    39    34   ar
    52    49    44   ar
    53     3     4    1
    54    43    50    1
    55    32    33    1
@<TRIPOS>MOLECULE
*****
 50 55 0 0 0
SMALL
GASTEIGER

@<TRIPOS>ATOM
      1 C           8.2258   76.0721   27.6758 C.2     1  UNL1        0.2483
      2 O           9.1416   75.2349   27.9043 O.2     1  UNL1       -0.2701
      3 N           7.9691   77.1232   28.6211 N.am    1  UNL1       -0.2945
      4 H           7.0792   77.6656   28.5401 H       1  UNL1        0.1501
      5 C           5.8138   75.6875   24.1282 C.ar    1  UNL1        0.0502
      6 C           5.2352   76.0313   25.3621 C.ar    1  UNL1        0.0148
      7 C           6.0241   76.1501   26.5087 C.ar    1  UNL1        0.0080
      8 C           7.4107   75.9376   26.4475 C.ar    1  UNL1        0.0808
      9 C           7.9913   75.5728   25.2179 C.ar    1  UNL1        0.1457
     10 F           9.3145   75.2853   25.1272 F       1  UNL1       -0.2040
     11 C           7.1985   75.4526   24.0722 C.ar    1  UNL1        0.0443
     12 N           3.2119   75.0128   20.8373 N.pl3   1  UNL1       -0.3017
     13 C           3.2145   76.3607   21.4117 C.3     1  UNL1        0.1123
     14 C           3.7335   76.3083   22.8502 C.3     1  UNL1        0.1122
     15 N           4.9982   75.5580   22.9428 N.pl3   1  UNL1       -0.3040
     16 C           5.5007   74.8113   21.7779 C.3     1  UNL1        0.1122
     17 C           4.3519   74.1103   21.0428 C.3     1  UNL1        0.1123
     18 C          -0.2038   73.5613   18.7669 C.ar    1  UNL1        0.1523
     19 C           0.3563   74.8062   18.4188 C.ar    1  UNL1        0.0759
     20 C           1.4839   75.3031   19.1022 C.ar    1  UNL1        0.1550
     21 C           2.0556   74.5380   20.1329 C.ar    1  UNL1        0.0834
     22 C           1.4937   73.3044   20.4829 C.ar    1  UNL1        0.0321
     23 C           0.3735   72.8174   19.8055 C.ar    1  UNL1        0.0929
     24 CL         -0.2994   71.2618   20.2693 Cl      1  UNL1       -0.0790
     25 C          -2.5306   73.7586   17.8630 C.3     1  UNL1        0.2525
     26 O          -1.3274   73.0373   18.1075 O.3     1  UNL1       -0.4705
     27 O           2.0507   76.5508   18.7955 O.3     1  UNL1       -0.4701
     28 C           3.1027   76.7535   17.8580 C.3     1  UNL1        0.2525
     29 C           8.8873   77.4108   29.7282 C.3     1  UNL1        0.1535
     30 C           9.1591   78.8926   29.7970 C.2     1  UNL1        0.2443
     31 O           8.9848   79.6023   28.7689 O.2     1  UNL1       -0.2730
     32 N           9.5018   79.4974   31.0551 N.am    1  UNL1       -0.2825
     33 H           9.5001   78.8858   31.9028 H       1  UNL1        0.1549
     34 C           9.5787   80.9166   31.2621 C.ar    1  UNL1        0.0535
     35 C           9.0147   81.4749   32.4170 C.ar    1  UNL1        0.0353
     36 C           9.0849   82.8543   32.6225 C.ar    1  UNL1        0.1002
     37 N           9.7156   83.6471   31.7162 N.ar    1  UNL1       -0.2422
     38 C          10.2918   83.1313   30.5981 C.ar    1  UNL1        0.1002
     39 C          10.2403   81.7568   30.3522 C.ar    1  UNL1        0.0353
     40 C           8.2965   76.9083   31.0607 C.3     1  UNL1        0.0569
     41 C           6.7937   76.9597   31.0566 C.ar    1  UNL1       -0.0017
     42 C           6.0086   78.0923   31.2505 C.ar    1  UNL1        0.0681
     43 N           4.7034   77.8040   31.0447 N.ar    1  UNL1       -0.3523
     44 C           4.6582   76.5033   30.7083 C.ar    1  UNL1        0.0563
     45 C           3.5320   75.7618   30.3540 C.ar    1  UNL1        0.0170
     46 C           3.7188   74.4168   29.9862 C.ar    1  UNL1        0.0015
     47 C           5.0124   73.8502   29.9785 C.ar    1  UNL1        0.0001
     48 C           6.1308   74.6226   30.3398 C.ar    1  UNL1        0.0012
     49 C           5.9145   75.9527   30.7031 C.ar    1  UNL1        0.0131
     50 H           3.8998   78.4680   31.1052 H       1  UNL1        0.1660
@<TRIPOS>BOND
     1    25    26    1
     2    26    18    1
     3    18    19   ar
     4    19    20   ar
     5    20    27    1
     6    27    28    1
     7    20    21   ar
     8    21    12    1
     9    12    13    1
    10    13    14    1
    11    14    15    1
    12    15     5    1
    13     5     6   ar
    14     6     7   ar
    15     7     8   ar
    16     8     1    1
    17     1     2    2
    18     1     3   am
    19     3    29    1
    20    29    40    1
    21    40    41    1
    22    41    42   ar
    23    42    43   ar
    24    43    44   ar
    25    44    45   ar
    26    45    46   ar
    27    46    47   ar
    28    47    48   ar
    29    48    49   ar
    30    29    30    1
    31    30    31    2
    32    30    32   am
    33    32    34    1
    34    34    35   ar
    35    35    36   ar
    36    36    37   ar
    37    37    38   ar
    38    38    39   ar
    39     8     9   ar
    40     9    10    1
    41     9    11   ar
    42    15    16    1
    43    16    17    1
    44    21    22   ar
    45    22    23   ar
    46    23    24    1
    47    23    18   ar
    48    17    12    1
    49    11     5   ar
    50    49    41   ar
    51    39    34   ar
    52    49    44   ar
    53     3     4    1
    54    43    50    1
    55    32    33    1
@<TRIPOS>MOLECULE
*****
 50 55 0 0 0
SMALL
GASTEIGER

@<TRIPOS>ATOM
      1 C          13.6188   83.5158   24.9488 C.2     1  UNL1        0.2483
      2 O          14.2347   83.7827   26.0171 O.2     1  UNL1       -0.2701
      3 N          13.5996   84.4746   23.8789 N.am    1  UNL1       -0.2945
      4 H          12.9120   84.3468   23.1020 H       1  UNL1        0.1501
      5 C          11.4858   79.7904   24.5995 C.ar    1  UNL1        0.0502
      6 C          10.8080   81.0201   24.5374 C.ar    1  UNL1        0.0148
      7 C          11.5069   82.2238   24.6555 C.ar    1  UNL1        0.0080
      8 C          12.9003   82.2272   24.8289 C.ar    1  UNL1        0.0808
      9 C          13.5804   80.9973   24.9123 C.ar    1  UNL1        0.1457
     10 F          14.9151   80.9512   25.1537 F       1  UNL1       -0.2040
     11 C          12.8776   79.7939   24.7959 C.ar    1  UNL1        0.0443
     12 N           9.5999   76.0400   23.9408 N.pl3   1  UNL1       -0.3017
     13 C          10.2282   76.2428   25.2488 C.3     1  UNL1        0.1123
     14 C          11.2906   77.3392   25.1474 C.3     1  UNL1        0.1122
     15 N          10.7635   78.5445   24.4838 N.pl3   1  UNL1       -0.3040
     16 C           9.4375   78.5156   23.8451 C.3     1  UNL1        0.1122
     17 C           9.2153   77.1882   23.1102 C.3     1  UNL1        0.1123
     18 C           9.1303   72.1084   22.3974 C.ar    1  UNL1        0.1523
     19 C           8.0360   72.7698   22.9887 C.ar    1  UNL1        0.0759
     20 C           8.1796   74.0704   23.5115 C.ar    1  UNL1        0.1550
     21 C           9.4277   74.7108   23.4286 C.ar    1  UNL1        0.0834
     22 C          10.5163   74.0497   22.8475 C.ar    1  UNL1        0.0321
     23 C          10.3705   72.7590   22.3341 C.ar    1  UNL1        0.0929
     24 CL         11.7585   71.9641   21.6064 Cl      1  UNL1       -0.0790
     25 C           8.7079   69.6513   22.6301 C.3     1  UNL1        0.2525
     26 O           9.0222   70.8123   21.8678 O.3     1  UNL1       -0.4705
     27 O           7.1149   74.7469   24.1286 O.3     1  UNL1       -0.4701
     28 C           6.5642   74.4044   25.3959 C.3     1  UNL1        0.2525
     29 C          14.4701   85.6551   23.8807 C.3     1  UNL1        0.1535
     30 C          14.7787   86.0666   22.4631 C.2     1  UNL1        0.2443
     31 O          15.9573   85.9531   22.0281 O.2     1  UNL1       -0.2730
     32 N          13.7118   86.4738   21.5901 N.am    1  UNL1       -0.2825
     33 H          12.7358   86.4201   21.9606 H       1  UNL1        0.1549
     34 C          13.8742   86.6864   20.1790 C.ar    1  UNL1        0.0535
     35 C          14.0714   87.9875   19.6975 C.ar    1  UNL1        0.0353
     36 C          14.2281   88.2002   18.3264 C.ar    1  UNL1        0.1002
     37 N          14.2101   87.1473   17.4669 N.ar    1  UNL1       -0.2422
     38 C          14.0436   85.8718   17.9069 C.ar    1  UNL1        0.1002
     39 C          13.8788   85.6157   19.2706 C.ar    1  UNL1        0.0353
     40 C          13.8013   86.8148   24.6455 C.3     1  UNL1        0.0569
     41 C          14.6977   87.3600   25.7227 C.ar    1  UNL1       -0.0017
     42 C          14.5679   87.1400   27.0907 C.ar    1  UNL1        0.0681
     43 N          15.6228   87.6632   27.7561 N.ar    1  UNL1       -0.3523
     44 C          16.4250   88.1986   26.8197 C.ar    1  UNL1        0.0563
     45 C          17.6617   88.8109   27.0177 C.ar    1  UNL1        0.0170
     46 C          18.3624   89.2605   25.8837 C.ar    1  UNL1        0.0015
     47 C          17.8187   89.0879   24.5918 C.ar    1  UNL1        0.0001
     48 C          16.5689   88.4655   24.4219 C.ar    1  UNL1        0.0012
     49 C          15.8955   88.0327   25.5653 C.ar    1  UNL1        0.0131
     50 H          15.7914   87.6282   28.7860 H       1  UNL1        0.1660
@<TRIPOS>BOND
     1    25    26    1
     2    26    18    1
     3    18    19   ar
     4    19    20   ar
     5    20    27    1
     6    27    28    1
     7    20    21   ar
     8    21    12    1
     9    12    13    1
    10    13    14    1
    11    14    15    1
    12    15     5    1
    13     5     6   ar
    14     6     7   ar
    15     7     8   ar
    16     8     1    1
    17     1     2    2
    18     1     3   am
    19     3    29    1
    20    29    40    1
    21    40    41    1
    22    41    42   ar
    23    42    43   ar
    24    43    44   ar
    25    44    45   ar
    26    45    46   ar
    27    46    47   ar
    28    47    48   ar
    29    48    49   ar
    30    29    30    1
    31    30    31    2
    32    30    32   am
    33    32    34    1
    34    34    35   ar
    35    35    36   ar
    36    36    37   ar
    37    37    38   ar
    38    38    39   ar
    39     8     9   ar
    40     9    10    1
    41     9    11   ar
    42    15    16    1
    43    16    17    1
    44    21    22   ar
    45    22    23   ar
    46    23    24    1
    47    23    18   ar
    48    17    12    1
    49    11     5   ar
    50    49    41   ar
    51    39    34   ar
    52    49    44   ar
    53     3     4    1
    54    43    50    1
    55    32    33    1
@<TRIPOS>MOLECULE
*****
 50 55 0 0 0
SMALL
GASTEIGER

@<TRIPOS>ATOM
      1 C           9.4542   75.9516   25.1539 C.2     1  UNL1        0.2483
      2 O           9.8955   74.9871   25.8371 O.2     1  UNL1       -0.2701
      3 N           8.2379   75.7966   24.4049 N.am    1  UNL1       -0.2945
      4 H           8.0033   76.5071   23.6750 H       1  UNL1        0.1501
      5 C          11.6326   79.6658   25.0528 C.ar    1  UNL1        0.0502
      6 C          10.3317   79.6048   25.5815 C.ar    1  UNL1        0.0148
      7 C           9.6307   78.3968   25.6069 C.ar    1  UNL1        0.0080
      8 C          10.2163   77.2199   25.1134 C.ar    1  UNL1        0.0808
      9 C          11.5112   77.2807   24.5641 C.ar    1  UNL1        0.1457
     10 F          12.0873   76.1847   24.0084 F       1  UNL1       -0.2040
     11 C          12.2097   78.4920   24.5381 C.ar    1  UNL1        0.0443
     12 N          13.7350   83.3240   24.5503 N.pl3   1  UNL1       -0.3017
     13 C          12.4954   83.3762   25.3298 C.3     1  UNL1        0.1123
     14 C          11.6076   82.1834   24.9689 C.3     1  UNL1        0.1122
     15 N          12.3565   80.9157   25.0200 N.pl3   1  UNL1       -0.3040
     16 C          13.8181   80.9280   25.1954 C.3     1  UNL1        0.1122
     17 C          14.4559   82.0566   24.3763 C.3     1  UNL1        0.1123
     18 C          15.1582   86.7876   22.5406 C.ar    1  UNL1        0.1523
     19 C          14.9807   86.8054   23.9380 C.ar    1  UNL1        0.0759
     20 C          14.5021   85.6667   24.6161 C.ar    1  UNL1        0.1550
     21 C          14.2114   84.5026   23.8848 C.ar    1  UNL1        0.0834
     22 C          14.3810   84.4883   22.4952 C.ar    1  UNL1        0.0321
     23 C          14.8519   85.6206   21.8266 C.ar    1  UNL1        0.0929
     24 CL         15.0580   85.5622   20.0824 Cl      1  UNL1       -0.0790
     25 C          17.0028   88.2774   21.7358 C.3     1  UNL1        0.2525
     26 O          15.6320   87.9045   21.8336 O.3     1  UNL1       -0.4705
     27 O          14.2915   85.6604   26.0045 O.3     1  UNL1       -0.4701
     28 C          14.5070   86.7770   26.8610 C.3     1  UNL1        0.2525
     29 C           7.3548   74.6405   24.5920 C.3     1  UNL1        0.1535
     30 C           5.9357   75.1075   24.7974 C.2     1  UNL1        0.2443
     31 O           5.3453   74.8372   25.8789 O.2     1  UNL1       -0.2730
     32 N           5.3120   75.9488   23.8129 N.am    1  UNL1       -0.2825
     33 H           5.8927   76.2547   22.9994 H       1  UNL1        0.1549
     34 C           4.0502   76.6059   24.0107 C.ar    1  UNL1        0.0535
     35 C           3.1911   76.7886   22.9188 C.ar    1  UNL1        0.0353
     36 C           1.9640   77.4284   23.1049 C.ar    1  UNL1        0.1002
     37 N           1.5974   77.8524   24.3432 N.ar    1  UNL1       -0.2422
     38 C           2.3998   77.6687   25.4252 C.ar    1  UNL1        0.1002
     39 C           3.6378   77.0371   25.2818 C.ar    1  UNL1        0.0353
     40 C           7.4412   73.6959   23.3766 C.3     1  UNL1        0.0569
     41 C           8.6021   74.0418   22.4855 C.ar    1  UNL1       -0.0017
     42 C           8.6993   75.1546   21.6555 C.ar    1  UNL1        0.0681
     43 N           9.9320   75.2271   21.1039 N.ar    1  UNL1       -0.3523
     44 C          10.6191   74.1786   21.5894 C.ar    1  UNL1        0.0563
     45 C          11.9541   73.8588   21.3462 C.ar    1  UNL1        0.0170
     46 C          12.4915   72.7357   22.0012 C.ar    1  UNL1        0.0015
     47 C          11.6923   71.9676   22.8764 C.ar    1  UNL1        0.0001
     48 C          10.3484   72.3144   23.1037 C.ar    1  UNL1        0.0012
     49 C           9.8420   73.4316   22.4377 C.ar    1  UNL1        0.0131
     50 H          10.2844   75.9671   20.4570 H       1  UNL1        0.1660
@<TRIPOS>BOND
     1    25    26    1
     2    26    18    1
     3    18    19   ar
     4    19    20   ar
     5    20    27    1
     6    27    28    1
     7    20    21   ar
     8    21    12    1
     9    12    13    1
    10    13    14    1
    11    14    15    1
    12    15     5    1
    13     5     6   ar
    14     6     7   ar
    15     7     8   ar
    16     8     1    1
    17     1     2    2
    18     1     3   am
    19     3    29    1
    20    29    40    1
    21    40    41    1
    22    41    42   ar
    23    42    43   ar
    24    43    44   ar
    25    44    45   ar
    26    45    46   ar
    27    46    47   ar
    28    47    48   ar
    29    48    49   ar
    30    29    30    1
    31    30    31    2
    32    30    32   am
    33    32    34    1
    34    34    35   ar
    35    35    36   ar
    36    36    37   ar
    37    37    38   ar
    38    38    39   ar
    39     8     9   ar
    40     9    10    1
    41     9    11   ar
    42    15    16    1
    43    16    17    1
    44    21    22   ar
    45    22    23   ar
    46    23    24    1
    47    23    18   ar
    48    17    12    1
    49    11     5   ar
    50    49    41   ar
    51    39    34   ar
    52    49    44   ar
    53     3     4    1
    54    43    50    1
    55    32    33    1
