@<TRIPOS>MOLECULE
*****
 40 44 0 0 0
SMALL
GASTEIGER

@<TRIPOS>ATOM
      1 C         -31.5840   49.8176   -8.7421 C.3     1  UNL1        0.1333
      2 N         -30.2019   49.7704   -8.2639 N.ar    1  UNL1       -0.2950
      3 C         -29.7307   49.2889   -7.0804 C.ar    1  UNL1        0.2019
      4 N         -28.3783   49.3198   -6.9795 N.ar    1  UNL1       -0.2130
      5 C         -27.9986   49.8735   -8.1461 C.ar    1  UNL1        0.1086
      6 C         -26.6965   50.1720   -8.5551 C.ar    1  UNL1        0.0567
      7 I         -25.0835   49.8012   -7.2214 I       1  UNL1       -0.0407
      8 C         -26.5256   50.7774   -9.8286 C.ar    1  UNL1        0.0975
      9 C         -27.6634   51.0776  -10.6222 C.ar    1  UNL1        0.1786
     10 C         -28.9610   50.7868  -10.1573 C.ar    1  UNL1        0.1897
     11 C         -29.0904   50.1569   -8.9180 C.ar    1  UNL1        0.1178
     12 O         -30.0649   51.1440  -10.9375 O.3     1  UNL1       -0.4669
     13 C         -29.9236   52.0199  -12.0575 C.3     1  UNL1        0.2527
     14 C         -28.6198   51.7165  -12.8053 C.3     1  UNL1        0.2526
     15 O         -27.5249   51.6629  -11.8875 O.3     1  UNL1       -0.4682
     16 C         -25.1839   51.1007  -10.3452 C.2     1  UNL1        0.2530
     17 O         -24.7421   50.4674  -11.3417 O.2     1  UNL1       -0.2697
     18 N         -24.3923   52.1213   -9.7147 N.am    1  UNL1       -0.2803
     19 H         -24.8396   52.7014   -8.9693 H       1  UNL1        0.1552
     20 C         -23.0554   52.4643  -10.1150 C.ar    1  UNL1        0.0506
     21 C         -22.8495   53.0771  -11.3575 C.ar    1  UNL1        0.0170
     22 C         -21.5648   53.4466  -11.7585 C.ar    1  UNL1        0.0309
     23 C         -20.4719   53.2177  -10.9191 C.ar    1  UNL1        0.1441
     24 F         -19.2353   53.6013  -11.3270 F       1  UNL1       -0.2042
     25 C         -20.6565   52.6129   -9.6617 C.ar    1  UNL1        0.1000
     26 C         -21.9586   52.2577   -9.2590 C.ar    1  UNL1        0.0208
     27 C         -19.4733   52.4098   -8.7452 C.3     1  UNL1        0.4207
     28 F         -18.5388   51.5516   -9.2992 F       1  UNL1       -0.1658
     29 F         -19.9096   51.8766   -7.5463 F       1  UNL1       -0.1658
     30 F         -18.8553   53.6234   -8.5017 F       1  UNL1       -0.1658
     31 N         -30.5568   48.7867   -6.0212 N.pl3   1  UNL1       -0.2814
     32 H         -31.5796   48.6953   -6.2120 H       1  UNL1        0.1551
     33 C         -30.0433   48.2549   -4.7875 C.ar    1  UNL1        0.0889
     34 C         -30.0264   49.0352   -3.6125 C.ar    1  UNL1        0.1543
     35 F         -30.4728   50.3164   -3.6203 F       1  UNL1       -0.2028
     36 C         -29.5168   48.5056   -2.4234 C.ar    1  UNL1        0.0310
     37 C         -29.0108   47.2052   -2.3936 C.ar    1  UNL1        0.0033
     38 C         -29.0066   46.4302   -3.5546 C.ar    1  UNL1        0.0128
     39 C         -29.5140   46.9491   -4.7514 C.ar    1  UNL1        0.0733
     40 CL        -29.5137   45.9268   -6.1827 Cl      1  UNL1       -0.0809
@<TRIPOS>BOND
     1     1     2    1
     2     2     3   ar
     3     3    31    1
     4    31    33    1
     5    33    34   ar
     6    34    35    1
     7    34    36   ar
     8    36    37   ar
     9    37    38   ar
    10    38    39   ar
    11    39    40    1
    12     3     4   ar
    13     4     5   ar
    14     5     6   ar
    15     6     7    1
    16     6     8   ar
    17     8    16    1
    18    16    17    2
    19    16    18   am
    20    18    20    1
    21    20    21   ar
    22    21    22   ar
    23    22    23   ar
    24    23    24    1
    25    23    25   ar
    26    25    27    1
    27    27    28    1
    28    27    29    1
    29    27    30    1
    30    25    26   ar
    31     8     9   ar
    32     9    10   ar
    33    10    11   ar
    34    10    12    1
    35    12    13    1
    36    13    14    1
    37    14    15    1
    38    11     2   ar
    39    39    33   ar
    40    11     5   ar
    41    26    20   ar
    42    15     9    1
    43    31    32    1
    44    18    19    1
@<TRIPOS>MOLECULE
*****
 40 44 0 0 0
SMALL
GASTEIGER

@<TRIPOS>ATOM
      1 C         -30.9198   45.4728   -5.8914 C.3     1  UNL1        0.1333
      2 N         -30.4037   46.8420   -5.8851 N.ar    1  UNL1       -0.2950
      3 C         -30.5951   47.8155   -4.9523 C.ar    1  UNL1        0.2019
      4 N         -29.9082   48.9570   -5.2074 N.ar    1  UNL1       -0.2130
      5 C         -29.2851   48.6842   -6.3689 C.ar    1  UNL1        0.1086
      6 C         -28.4624   49.5386   -7.1071 C.ar    1  UNL1        0.0567
      7 I         -28.1603   51.5285   -6.4234 I       1  UNL1       -0.0407
      8 C         -27.9208   49.0469   -8.3245 C.ar    1  UNL1        0.0975
      9 C         -28.2453   47.7351   -8.7587 C.ar    1  UNL1        0.1786
     10 C         -29.1039   46.9179   -7.9976 C.ar    1  UNL1        0.1897
     11 C         -29.5875   47.4186   -6.7874 C.ar    1  UNL1        0.1178
     12 O         -29.4488   45.6509   -8.4781 O.3     1  UNL1       -0.4669
     13 C         -29.1672   45.2722   -9.8267 C.3     1  UNL1        0.2527
     14 C         -27.8038   45.8257  -10.2581 C.3     1  UNL1        0.2526
     15 O         -27.7158   47.2187   -9.9486 O.3     1  UNL1       -0.4682
     16 C         -27.0234   49.8752   -9.1494 C.2     1  UNL1        0.2530
     17 O         -27.4781   50.4203  -10.1912 O.2     1  UNL1       -0.2697
     18 N         -25.6486   50.0517   -8.7692 N.am    1  UNL1       -0.2803
     19 H         -25.3430   49.6824   -7.8406 H       1  UNL1        0.1552
     20 C         -24.6901   50.7947   -9.5402 C.ar    1  UNL1        0.0506
     21 C         -24.9857   51.1185  -10.8705 C.ar    1  UNL1        0.0170
     22 C         -24.0851   51.8638  -11.6328 C.ar    1  UNL1        0.0309
     23 C         -22.8832   52.3032  -11.0726 C.ar    1  UNL1        0.1441
     24 F         -22.0324   53.0400  -11.8315 F       1  UNL1       -0.2042
     25 C         -22.5699   51.9986   -9.7347 C.ar    1  UNL1        0.1000
     26 C         -23.4920   51.2594   -8.9685 C.ar    1  UNL1        0.0208
     27 C         -21.2874   52.5157   -9.1274 C.3     1  UNL1        0.4207
     28 F         -21.1043   53.8628   -9.3893 F       1  UNL1       -0.1658
     29 F         -20.2177   51.8126   -9.6503 F       1  UNL1       -0.1658
     30 F         -21.3150   52.3415   -7.7551 F       1  UNL1       -0.1658
     31 N         -31.4336   47.6796   -3.7969 N.pl3   1  UNL1       -0.2814
     32 H         -32.4256   47.3927   -3.9544 H       1  UNL1        0.1551
     33 C         -30.9522   47.7539   -2.4437 C.ar    1  UNL1        0.0889
     34 C         -30.4671   46.6064   -1.7823 C.ar    1  UNL1        0.1543
     35 F         -30.4634   45.3969   -2.3971 F       1  UNL1       -0.2028
     36 C         -30.0098   46.6945   -0.4642 C.ar    1  UNL1        0.0310
     37 C         -30.0408   47.9162    0.2099 C.ar    1  UNL1        0.0033
     38 C         -30.5350   49.0546   -0.4291 C.ar    1  UNL1        0.0128
     39 C         -30.9957   48.9793   -1.7486 C.ar    1  UNL1        0.0733
     40 CL        -31.5840   50.4450   -2.5228 Cl      1  UNL1       -0.0809
@<TRIPOS>BOND
     1     1     2    1
     2     2     3   ar
     3     3    31    1
     4    31    33    1
     5    33    34   ar
     6    34    35    1
     7    34    36   ar
     8    36    37   ar
     9    37    38   ar
    10    38    39   ar
    11    39    40    1
    12     3     4   ar
    13     4     5   ar
    14     5     6   ar
    15     6     7    1
    16     6     8   ar
    17     8    16    1
    18    16    17    2
    19    16    18   am
    20    18    20    1
    21    20    21   ar
    22    21    22   ar
    23    22    23   ar
    24    23    24    1
    25    23    25   ar
    26    25    27    1
    27    27    28    1
    28    27    29    1
    29    27    30    1
    30    25    26   ar
    31     8     9   ar
    32     9    10   ar
    33    10    11   ar
    34    10    12    1
    35    12    13    1
    36    13    14    1
    37    14    15    1
    38    11     2   ar
    39    39    33   ar
    40    11     5   ar
    41    26    20   ar
    42    15     9    1
    43    31    32    1
    44    18    19    1
@<TRIPOS>MOLECULE
*****
 40 44 0 0 0
SMALL
GASTEIGER

@<TRIPOS>ATOM
      1 C         -27.0060   51.4093  -11.4804 C.3     1  UNL1        0.1333
      2 N         -26.7877   51.4868  -10.0356 N.ar    1  UNL1       -0.2950
      3 C         -25.9514   52.3128   -9.3481 C.ar    1  UNL1        0.2019
      4 N         -26.0453   52.1847   -8.0009 N.ar    1  UNL1       -0.2130
      5 C         -26.9640   51.2124   -7.8510 C.ar    1  UNL1        0.1086
      6 C         -27.4184   50.6573   -6.6521 C.ar    1  UNL1        0.0567
      7 I         -26.5703   51.3202   -4.8192 I       1  UNL1       -0.0407
      8 C         -28.3851   49.6195   -6.7282 C.ar    1  UNL1        0.0975
      9 C         -28.8340   49.1691   -7.9971 C.ar    1  UNL1        0.1786
     10 C         -28.3262   49.7368   -9.1822 C.ar    1  UNL1        0.1897
     11 C         -27.4061   50.7809   -9.0702 C.ar    1  UNL1        0.1178
     12 O         -28.7467   49.2351  -10.4177 O.3     1  UNL1       -0.4669
     13 C         -29.4677   48.0047  -10.5069 C.3     1  UNL1        0.2527
     14 C         -30.4569   47.8854   -9.3413 C.3     1  UNL1        0.2526
     15 O         -29.7960   48.1562   -8.1028 O.3     1  UNL1       -0.4682
     16 C         -28.9346   48.9987   -5.5099 C.2     1  UNL1        0.2530
     17 O         -30.1180   49.2652   -5.1668 O.2     1  UNL1       -0.2697
     18 N         -28.1264   48.1063   -4.7248 N.am    1  UNL1       -0.2803
     19 H         -27.1963   47.8203   -5.1057 H       1  UNL1        0.1552
     20 C         -28.5593   47.5001   -3.4959 C.ar    1  UNL1        0.0506
     21 C         -28.2965   46.1425   -3.2732 C.ar    1  UNL1        0.0170
     22 C         -28.6804   45.5359   -2.0764 C.ar    1  UNL1        0.0309
     23 C         -29.3223   46.2802   -1.0838 C.ar    1  UNL1        0.1441
     24 F         -29.6707   45.6692    0.0772 F       1  UNL1       -0.2042
     25 C         -29.5873   47.6483   -1.2815 C.ar    1  UNL1        0.1000
     26 C         -29.1821   48.2555   -2.4860 C.ar    1  UNL1        0.0208
     27 C         -30.2431   48.4524   -0.1839 C.3     1  UNL1        0.4207
     28 F         -29.3762   48.6793    0.8714 F       1  UNL1       -0.1658
     29 F         -31.3470   47.7666    0.2882 F       1  UNL1       -0.1658
     30 F         -30.6507   49.6778   -0.6802 F       1  UNL1       -0.1658
     31 N         -25.0466   53.2434   -9.9579 N.pl3   1  UNL1       -0.2814
     32 H         -25.3593   54.2370  -10.0350 H       1  UNL1        0.1551
     33 C         -23.6898   52.9262  -10.3142 C.ar    1  UNL1        0.0889
     34 C         -23.2738   51.5870  -10.4658 C.ar    1  UNL1        0.1543
     35 F         -24.1368   50.5612  -10.2569 F       1  UNL1       -0.2028
     36 C         -21.9492   51.2958  -10.8050 C.ar    1  UNL1        0.0310
     37 C         -21.0270   52.3277  -10.9847 C.ar    1  UNL1        0.0033
     38 C         -21.4235   53.6560  -10.8200 C.ar    1  UNL1        0.0128
     39 C         -22.7468   53.9605  -10.4805 C.ar    1  UNL1        0.0733
     40 CL        -23.2080   55.6493  -10.3106 Cl      1  UNL1       -0.0809
@<TRIPOS>BOND
     1     1     2    1
     2     2     3   ar
     3     3    31    1
     4    31    33    1
     5    33    34   ar
     6    34    35    1
     7    34    36   ar
     8    36    37   ar
     9    37    38   ar
    10    38    39   ar
    11    39    40    1
    12     3     4   ar
    13     4     5   ar
    14     5     6   ar
    15     6     7    1
    16     6     8   ar
    17     8    16    1
    18    16    17    2
    19    16    18   am
    20    18    20    1
    21    20    21   ar
    22    21    22   ar
    23    22    23   ar
    24    23    24    1
    25    23    25   ar
    26    25    27    1
    27    27    28    1
    28    27    29    1
    29    27    30    1
    30    25    26   ar
    31     8     9   ar
    32     9    10   ar
    33    10    11   ar
    34    10    12    1
    35    12    13    1
    36    13    14    1
    37    14    15    1
    38    11     2   ar
    39    39    33   ar
    40    11     5   ar
    41    26    20   ar
    42    15     9    1
    43    31    32    1
    44    18    19    1
@<TRIPOS>MOLECULE
*****
 40 44 0 0 0
SMALL
GASTEIGER

@<TRIPOS>ATOM
      1 C         -26.2638   47.9119   -8.4718 C.3     1  UNL1        0.1333
      2 N         -27.1934   48.7271   -7.6893 N.ar    1  UNL1       -0.2950
      3 C         -27.7466   49.9284   -8.0136 C.ar    1  UNL1        0.2019
      4 N         -28.6366   50.3836   -7.0966 N.ar    1  UNL1       -0.2130
      5 C         -28.6097   49.4301   -6.1470 C.ar    1  UNL1        0.1086
      6 C         -29.3219   49.4146   -4.9451 C.ar    1  UNL1        0.0567
      7 I         -30.5589   51.0724   -4.4553 I       1  UNL1       -0.0407
      8 C         -29.1258   48.3099   -4.0742 C.ar    1  UNL1        0.0975
      9 C         -28.2107   47.2861   -4.4331 C.ar    1  UNL1        0.1786
     10 C         -27.4905   47.3571   -5.6417 C.ar    1  UNL1        0.1897
     11 C         -27.7361   48.4370   -6.4918 C.ar    1  UNL1        0.1178
     12 O         -26.5559   46.3615   -5.9425 O.3     1  UNL1       -0.4669
     13 C         -26.1284   45.4275   -4.9493 C.3     1  UNL1        0.2527
     14 C         -27.3114   45.0181   -4.0638 C.3     1  UNL1        0.2526
     15 O         -28.0063   46.1783   -3.6002 O.3     1  UNL1       -0.4682
     16 C         -29.8577   48.2047   -2.7995 C.2     1  UNL1        0.2530
     17 O         -31.0964   48.4387   -2.7831 O.2     1  UNL1       -0.2697
     18 N         -29.1631   47.8448   -1.5938 N.am    1  UNL1       -0.2803
     19 H         -28.1650   47.5449   -1.6712 H       1  UNL1        0.1552
     20 C         -29.7833   47.7722   -0.2995 C.ar    1  UNL1        0.0506
     21 C         -30.8661   46.9046   -0.1076 C.ar    1  UNL1        0.0170
     22 C         -31.4683   46.7934    1.1463 C.ar    1  UNL1        0.0309
     23 C         -30.9899   47.5396    2.2261 C.ar    1  UNL1        0.1441
     24 F         -31.5840   47.4005    3.4387 F       1  UNL1       -0.2042
     25 C         -29.8965   48.4098    2.0591 C.ar    1  UNL1        0.1000
     26 C         -29.2852   48.5037    0.7937 C.ar    1  UNL1        0.0208
     27 C         -29.3611   49.1789    3.2436 C.3     1  UNL1        0.4207
     28 F         -29.2501   48.3765    4.3664 F       1  UNL1       -0.1658
     29 F         -30.2143   50.2284    3.5309 F       1  UNL1       -0.1658
     30 F         -28.1076   49.6838    2.9470 F       1  UNL1       -0.1658
     31 N         -27.4423   50.6680   -9.2040 N.pl3   1  UNL1       -0.2814
     32 H         -28.2428   51.0929   -9.7233 H       1  UNL1        0.1551
     33 C         -26.1065   50.9924   -9.6267 C.ar    1  UNL1        0.0889
     34 C         -25.0691   51.1623   -8.6861 C.ar    1  UNL1        0.1543
     35 F         -25.3089   51.0469   -7.3557 F       1  UNL1       -0.2028
     36 C         -23.7777   51.4850   -9.1135 C.ar    1  UNL1        0.0310
     37 C         -23.5089   51.6526  -10.4726 C.ar    1  UNL1        0.0033
     38 C         -24.5318   51.5041  -11.4109 C.ar    1  UNL1        0.0128
     39 C         -25.8288   51.1810  -10.9957 C.ar    1  UNL1        0.0733
     40 CL        -27.0798   50.9766  -12.2151 Cl      1  UNL1       -0.0809
@<TRIPOS>BOND
     1     1     2    1
     2     2     3   ar
     3     3    31    1
     4    31    33    1
     5    33    34   ar
     6    34    35    1
     7    34    36   ar
     8    36    37   ar
     9    37    38   ar
    10    38    39   ar
    11    39    40    1
    12     3     4   ar
    13     4     5   ar
    14     5     6   ar
    15     6     7    1
    16     6     8   ar
    17     8    16    1
    18    16    17    2
    19    16    18   am
    20    18    20    1
    21    20    21   ar
    22    21    22   ar
    23    22    23   ar
    24    23    24    1
    25    23    25   ar
    26    25    27    1
    27    27    28    1
    28    27    29    1
    29    27    30    1
    30    25    26   ar
    31     8     9   ar
    32     9    10   ar
    33    10    11   ar
    34    10    12    1
    35    12    13    1
    36    13    14    1
    37    14    15    1
    38    11     2   ar
    39    39    33   ar
    40    11     5   ar
    41    26    20   ar
    42    15     9    1
    43    31    32    1
    44    18    19    1
@<TRIPOS>MOLECULE
*****
 40 44 0 0 0
SMALL
GASTEIGER

@<TRIPOS>ATOM
      1 C         -25.2994   51.9115  -13.0432 C.3     1  UNL1        0.1333
      2 N         -25.1126   51.5617  -11.6347 N.ar    1  UNL1       -0.2950
      3 C         -23.9491   51.4560  -10.9350 C.ar    1  UNL1        0.2019
      4 N         -24.1284   51.1905   -9.6168 N.ar    1  UNL1       -0.2130
      5 C         -25.4666   51.1001   -9.5038 C.ar    1  UNL1        0.1086
      6 C         -26.1988   50.8035   -8.3515 C.ar    1  UNL1        0.0567
      7 I         -25.1589   50.3711   -6.5488 I       1  UNL1       -0.0407
      8 C         -27.6132   50.7395   -8.4648 C.ar    1  UNL1        0.0975
      9 C         -28.2273   50.9507   -9.7269 C.ar    1  UNL1        0.1786
     10 C         -27.4480   51.2174  -10.8697 C.ar    1  UNL1        0.1897
     11 C         -26.0636   51.3113  -10.7151 C.ar    1  UNL1        0.1178
     12 O         -28.0775   51.3668  -12.1092 O.3     1  UNL1       -0.4669
     13 C         -29.4469   51.0009  -12.2894 C.3     1  UNL1        0.2527
     14 C         -30.2644   51.3841  -11.0500 C.3     1  UNL1        0.2526
     15 O         -29.6205   50.9064   -9.8664 O.3     1  UNL1       -0.4682
     16 C         -28.4599   50.4577   -7.2921 C.2     1  UNL1        0.2530
     17 O         -29.0893   51.4053   -6.7489 O.2     1  UNL1       -0.2697
     18 N         -28.5593   49.1199   -6.7760 N.am    1  UNL1       -0.2803
     19 H         -28.1182   48.3468   -7.3235 H       1  UNL1        0.1552
     20 C         -29.3150   48.7630   -5.6070 C.ar    1  UNL1        0.0506
     21 C         -30.6912   48.5312   -5.7267 C.ar    1  UNL1        0.0170
     22 C         -31.4435   48.1552   -4.6131 C.ar    1  UNL1        0.0309
     23 C         -30.8288   47.9964   -3.3688 C.ar    1  UNL1        0.1441
     24 F         -31.5811   47.6146   -2.3054 F       1  UNL1       -0.2042
     25 C         -29.4455   48.2138   -3.2271 C.ar    1  UNL1        0.1000
     26 C         -28.6916   48.5777   -4.3599 C.ar    1  UNL1        0.0208
     27 C         -28.7847   47.9973   -1.8863 C.3     1  UNL1        0.4207
     28 F         -29.4013   48.7318   -0.8878 F       1  UNL1       -0.1658
     29 F         -27.4580   48.3792   -1.9633 F       1  UNL1       -0.1658
     30 F         -28.8504   46.6588   -1.5422 F       1  UNL1       -0.1658
     31 N         -22.6419   51.6077  -11.5049 N.pl3   1  UNL1       -0.2814
     32 H         -22.5148   51.3159  -12.4997 H       1  UNL1        0.1551
     33 C         -21.5541   52.2810  -10.8477 C.ar    1  UNL1        0.0889
     34 C         -20.3426   51.6106  -10.5787 C.ar    1  UNL1        0.1543
     35 F         -20.1793   50.3056  -10.9120 F       1  UNL1       -0.2028
     36 C         -19.2978   52.2777   -9.9323 C.ar    1  UNL1        0.0310
     37 C         -19.4508   53.6078   -9.5385 C.ar    1  UNL1        0.0033
     38 C         -20.6517   54.2757   -9.7840 C.ar    1  UNL1        0.0128
     39 C         -21.7051   53.6189  -10.4305 C.ar    1  UNL1        0.0733
     40 CL        -23.1899   54.5083  -10.7436 Cl      1  UNL1       -0.0809
@<TRIPOS>BOND
     1     1     2    1
     2     2     3   ar
     3     3    31    1
     4    31    33    1
     5    33    34   ar
     6    34    35    1
     7    34    36   ar
     8    36    37   ar
     9    37    38   ar
    10    38    39   ar
    11    39    40    1
    12     3     4   ar
    13     4     5   ar
    14     5     6   ar
    15     6     7    1
    16     6     8   ar
    17     8    16    1
    18    16    17    2
    19    16    18   am
    20    18    20    1
    21    20    21   ar
    22    21    22   ar
    23    22    23   ar
    24    23    24    1
    25    23    25   ar
    26    25    27    1
    27    27    28    1
    28    27    29    1
    29    27    30    1
    30    25    26   ar
    31     8     9   ar
    32     9    10   ar
    33    10    11   ar
    34    10    12    1
    35    12    13    1
    36    13    14    1
    37    14    15    1
    38    11     2   ar
    39    39    33   ar
    40    11     5   ar
    41    26    20   ar
    42    15     9    1
    43    31    32    1
    44    18    19    1
