@<TRIPOS>MOLECULE
*****
 51 56 0 0 0
SMALL
GASTEIGER

@<TRIPOS>ATOM
      1 O          14.6878   81.8890   24.7595 O.2     1  UNL1       -0.2701
      2 C          13.4826   82.2005   24.5534 C.2     1  UNL1        0.2483
      3 N          13.1670   83.4605   23.9408 N.am    1  UNL1       -0.2945
      4 H          12.2189   83.5901   23.5201 H       1  UNL1        0.1501
      5 C          12.4136   81.2432   24.9172 C.ar    1  UNL1        0.0808
      6 C          11.1624   81.7261   25.3330 C.ar    1  UNL1        0.0080
      7 C          10.1396   80.8418   25.6844 C.ar    1  UNL1        0.0148
      8 C          10.3407   79.4522   25.6168 C.ar    1  UNL1        0.0502
      9 C          11.5890   78.9696   25.1872 C.ar    1  UNL1        0.0443
     10 C          12.6148   79.8523   24.8352 C.ar    1  UNL1        0.1457
     11 F          13.7811   79.3407   24.3672 F       1  UNL1       -0.2040
     12 N           9.2859   78.5352   25.9843 N.pl3   1  UNL1       -0.3040
     13 C           8.9216   77.4272   25.0900 C.3     1  UNL1        0.1123
     14 C           8.4336   76.2172   25.8943 C.3     1  UNL1        0.1136
     15 N           7.4128   76.5930   26.8871 N.pl3   1  UNL1       -0.2897
     16 C           7.1725   78.0128   27.1822 C.3     1  UNL1        0.1136
     17 C           8.4923   78.7898   27.1969 C.3     1  UNL1        0.1123
     18 C           6.5524   75.5870   27.4685 C.ar    1  UNL1        0.1349
     19 C           6.6139   74.2466   27.0594 C.ar    1  UNL1        0.0345
     20 C           5.7668   73.3062   27.6437 C.ar    1  UNL1        0.0114
     21 C           4.8522   73.6876   28.6410 C.ar    1  UNL1        0.1243
     22 C           4.8231   75.0476   29.0308 C.ar    1  UNL1        0.2266
     23 O           3.9533   75.5223   30.0143 O.3     1  UNL1       -0.4920
     24 N           5.6636   75.9371   28.4384 N.ar    1  UNL1       -0.1969
     25 H           3.2954   74.9349   30.5087 H       1  UNL1        0.2937
     26 C           3.9342   72.6634   29.2728 C.3     1  UNL1        0.4229
     27 F           4.2428   71.4034   28.7926 F       1  UNL1       -0.1657
     28 F           4.0911   72.6829   30.6469 F       1  UNL1       -0.1657
     29 F           2.6040   72.9201   28.9870 F       1  UNL1       -0.1657
     30 C          14.1888   84.4846   23.7012 C.3     1  UNL1        0.1535
     31 C          14.4858   84.5773   22.2298 C.2     1  UNL1        0.2443
     32 O          15.4884   83.9745   21.7575 O.2     1  UNL1       -0.2730
     33 N          13.5795   85.2741   21.3604 N.am    1  UNL1       -0.2825
     34 H          12.6157   85.4675   21.7160 H       1  UNL1        0.1549
     35 C          13.8830   85.6315   20.0013 C.ar    1  UNL1        0.0535
     36 C          14.1295   84.6210   19.0617 C.ar    1  UNL1        0.0353
     37 C          14.4020   84.9619   17.7348 C.ar    1  UNL1        0.1002
     38 N          14.4114   86.2666   17.3540 N.ar    1  UNL1       -0.2422
     39 C          14.1569   87.2677   18.2374 C.ar    1  UNL1        0.1002
     40 C          13.8809   86.9706   19.5745 C.ar    1  UNL1        0.0353
     41 C          13.7267   85.8521   24.2310 C.3     1  UNL1        0.0569
     42 C          14.8961   86.6941   24.6512 C.ar    1  UNL1       -0.0017
     43 C          15.9785   87.0656   23.8592 C.ar    1  UNL1        0.0681
     44 N          16.8014   87.8933   24.5428 N.ar    1  UNL1       -0.3523
     45 C          16.2430   88.0544   25.7551 C.ar    1  UNL1        0.0563
     46 C          16.7161   88.8387   26.8063 C.ar    1  UNL1        0.0170
     47 C          15.9568   88.8789   27.9902 C.ar    1  UNL1        0.0015
     48 C          14.7539   88.1453   28.0944 C.ar    1  UNL1        0.0001
     49 C          14.2996   87.3640   27.0164 C.ar    1  UNL1        0.0012
     50 C          15.0764   87.3408   25.8578 C.ar    1  UNL1        0.0131
     51 H          17.6825   88.3292   24.1907 H       1  UNL1        0.1660
@<TRIPOS>BOND
     1     1     2    2
     2     2     3   am
     3     3    30    1
     4    30    41    1
     5    41    42    1
     6    42    43   ar
     7    43    44   ar
     8    44    45   ar
     9    45    46   ar
    10    46    47   ar
    11    47    48   ar
    12    48    49   ar
    13    49    50   ar
    14    30    31    1
    15    31    32    2
    16    31    33   am
    17    33    35    1
    18    35    36   ar
    19    36    37   ar
    20    37    38   ar
    21    38    39   ar
    22    39    40   ar
    23     2     5    1
    24     5     6   ar
    25     6     7   ar
    26     7     8   ar
    27     8    12    1
    28    12    13    1
    29    13    14    1
    30    14    15    1
    31    15    18    1
    32    18    19   ar
    33    19    20   ar
    34    20    21   ar
    35    21    26    1
    36    26    27    1
    37    26    28    1
    38    26    29    1
    39    21    22   ar
    40    22    23    1
    41    22    24   ar
    42    15    16    1
    43    16    17    1
    44     8     9   ar
    45     9    10   ar
    46    10    11    1
    47    50    42   ar
    48    40    35   ar
    49    10     5   ar
    50    50    45   ar
    51    17    12    1
    52    24    18   ar
    53     3     4    1
    54    44    51    1
    55    33    34    1
    56    23    25    1
@<TRIPOS>MOLECULE
*****
 51 56 0 0 0
SMALL
GASTEIGER

@<TRIPOS>ATOM
      1 O          10.4276   74.6193   25.8349 O.2     1  UNL1       -0.2701
      2 C           9.7682   75.6234   25.4491 C.2     1  UNL1        0.2483
      3 N           8.3654   75.4911   25.1717 N.am    1  UNL1       -0.2945
      4 H           7.7782   76.3551   25.1329 H       1  UNL1        0.1501
      5 C          10.4481   76.9322   25.3217 C.ar    1  UNL1        0.0808
      6 C           9.9805   78.0314   26.0598 C.ar    1  UNL1        0.0080
      7 C          10.6040   79.2770   25.9533 C.ar    1  UNL1        0.0148
      8 C          11.7183   79.4498   25.1139 C.ar    1  UNL1        0.0502
      9 C          12.1942   78.3457   24.3859 C.ar    1  UNL1        0.0443
     10 C          11.5720   77.0977   24.4902 C.ar    1  UNL1        0.1457
     11 F          12.1045   76.0470   23.8167 F       1  UNL1       -0.2040
     12 N          12.3622   80.7384   24.9982 N.pl3   1  UNL1       -0.3040
     13 C          13.7974   80.8783   25.2824 C.3     1  UNL1        0.1123
     14 C          14.4182   81.9802   24.4167 C.3     1  UNL1        0.1136
     15 N          13.6363   83.2272   24.4705 N.pl3   1  UNL1       -0.2897
     16 C          12.2976   83.2210   25.0777 C.3     1  UNL1        0.1136
     17 C          11.5503   81.9332   24.7188 C.3     1  UNL1        0.1123
     18 C          14.2284   84.4803   24.0589 C.ar    1  UNL1        0.1349
     19 C          14.2546   85.5926   24.9132 C.ar    1  UNL1        0.0345
     20 C          14.8340   86.7838   24.4792 C.ar    1  UNL1        0.0114
     21 C          15.3946   86.8811   23.1935 C.ar    1  UNL1        0.1243
     22 C          15.3537   85.7365   22.3625 C.ar    1  UNL1        0.2266
     23 O          15.8868   85.7331   21.0722 O.3     1  UNL1       -0.4920
     24 N          14.7797   84.5917   22.8192 N.ar    1  UNL1       -0.1969
     25 H          16.3330   86.5364   20.6503 H       1  UNL1        0.2937
     26 C          16.0227   88.1765   22.7261 C.3     1  UNL1        0.4229
     27 F          15.9272   89.1271   23.7264 F       1  UNL1       -0.1657
     28 F          17.3546   87.9636   22.4196 F       1  UNL1       -0.1657
     29 F          15.3946   88.6739   21.5968 F       1  UNL1       -0.1657
     30 C           7.6980   74.1856   25.1511 C.3     1  UNL1        0.1535
     31 C           6.4748   74.2217   26.0252 C.2     1  UNL1        0.2443
     32 O           5.4934   74.9419   25.6937 O.2     1  UNL1       -0.2730
     33 N           6.3959   73.3707   27.1793 N.am    1  UNL1       -0.2825
     34 H           7.0603   72.5657   27.2368 H       1  UNL1        0.1549
     35 C           5.3981   73.4984   28.2065 C.ar    1  UNL1        0.0535
     36 C           4.5077   72.4409   28.4376 C.ar    1  UNL1        0.0353
     37 C           3.5513   72.5505   29.4498 C.ar    1  UNL1        0.1002
     38 N           3.4961   73.6708   30.2174 N.ar    1  UNL1       -0.2422
     39 C           4.3583   74.7047   30.0306 C.ar    1  UNL1        0.1002
     40 C           5.3294   74.6365   29.0284 C.ar    1  UNL1        0.0353
     41 C           7.3070   73.7945   23.7163 C.3     1  UNL1        0.0569
     42 C           8.3875   74.1609   22.7409 C.ar    1  UNL1       -0.0017
     43 C           8.4062   75.2706   21.9012 C.ar    1  UNL1        0.0681
     44 N           9.5727   75.3265   21.2189 N.ar    1  UNL1       -0.3523
     45 C          10.2932   74.2675   21.6274 C.ar    1  UNL1        0.0563
     46 C          11.5780   73.9111   21.2195 C.ar    1  UNL1        0.0170
     47 C          12.1564   72.7650   21.7954 C.ar    1  UNL1        0.0015
     48 C          11.4472   72.0114   22.7571 C.ar    1  UNL1        0.0001
     49 C          10.1527   72.3961   23.1513 C.ar    1  UNL1        0.0012
     50 C           9.6045   73.5342   22.5594 C.ar    1  UNL1        0.0131
     51 H           9.8579   76.0553   20.5276 H       1  UNL1        0.1660
@<TRIPOS>BOND
     1     1     2    2
     2     2     3   am
     3     3    30    1
     4    30    41    1
     5    41    42    1
     6    42    43   ar
     7    43    44   ar
     8    44    45   ar
     9    45    46   ar
    10    46    47   ar
    11    47    48   ar
    12    48    49   ar
    13    49    50   ar
    14    30    31    1
    15    31    32    2
    16    31    33   am
    17    33    35    1
    18    35    36   ar
    19    36    37   ar
    20    37    38   ar
    21    38    39   ar
    22    39    40   ar
    23     2     5    1
    24     5     6   ar
    25     6     7   ar
    26     7     8   ar
    27     8    12    1
    28    12    13    1
    29    13    14    1
    30    14    15    1
    31    15    18    1
    32    18    19   ar
    33    19    20   ar
    34    20    21   ar
    35    21    26    1
    36    26    27    1
    37    26    28    1
    38    26    29    1
    39    21    22   ar
    40    22    23    1
    41    22    24   ar
    42    15    16    1
    43    16    17    1
    44     8     9   ar
    45     9    10   ar
    46    10    11    1
    47    50    42   ar
    48    40    35   ar
    49    10     5   ar
    50    50    45   ar
    51    17    12    1
    52    24    18   ar
    53     3     4    1
    54    44    51    1
    55    33    34    1
    56    23    25    1
@<TRIPOS>MOLECULE
*****
 51 56 0 0 0
SMALL
GASTEIGER

@<TRIPOS>ATOM
      1 O          10.2523   76.9444   26.2200 O.2     1  UNL1       -0.2701
      2 C           9.0533   77.2354   26.4837 C.2     1  UNL1        0.2483
      3 N           8.7354   77.8963   27.7185 N.am    1  UNL1       -0.2945
      4 H           7.8131   78.3806   27.8052 H       1  UNL1        0.1501
      5 C           7.9962   76.9197   25.4966 C.ar    1  UNL1        0.0808
      6 C           8.3557   76.4803   24.2123 C.ar    1  UNL1        0.0080
      7 C           7.3758   76.1796   23.2630 C.ar    1  UNL1        0.0148
      8 C           6.0116   76.3004   23.5803 C.ar    1  UNL1        0.0502
      9 C           5.6525   76.7270   24.8705 C.ar    1  UNL1        0.0443
     10 C           6.6311   77.0291   25.8226 C.ar    1  UNL1        0.1457
     11 F           6.2364   77.3769   27.0733 F       1  UNL1       -0.2040
     12 N           4.9960   75.9946   22.5987 N.pl3   1  UNL1       -0.3040
     13 C           5.2820   75.0578   21.5029 C.3     1  UNL1        0.1123
     14 C           4.0161   74.2966   21.0939 C.3     1  UNL1        0.1136
     15 N           2.8772   75.2037   20.8721 N.pl3   1  UNL1       -0.2897
     16 C           2.9735   76.6090   21.2925 C.3     1  UNL1        0.1136
     17 C           3.7170   76.7213   22.6268 C.3     1  UNL1        0.1123
     18 C           1.7238   74.7599   20.1217 C.ar    1  UNL1        0.1349
     19 C           0.9919   75.6434   19.3147 C.ar    1  UNL1        0.0345
     20 C          -0.1150   75.1771   18.6070 C.ar    1  UNL1        0.0114
     21 C          -0.5042   73.8289   18.6927 C.ar    1  UNL1        0.1243
     22 C           0.2618   72.9670   19.5130 C.ar    1  UNL1        0.2266
     23 O          -0.0427   71.6125   19.6594 O.3     1  UNL1       -0.4920
     24 N           1.3348   73.4570   20.1892 N.ar    1  UNL1       -0.1969
     25 H          -0.8194   71.1613   19.1951 H       1  UNL1        0.2937
     26 C          -1.7067   73.3268   17.9228 C.3     1  UNL1        0.4229
     27 F          -1.7390   71.9444   17.9607 F       1  UNL1       -0.1657
     28 F          -2.8645   73.8294   18.4886 F       1  UNL1       -0.1657
     29 F          -1.6687   73.7213   16.5962 F       1  UNL1       -0.1657
     30 C           9.7349   78.0928   28.7733 C.3     1  UNL1        0.1535
     31 C           9.6919   79.5147   29.2611 C.2     1  UNL1        0.2443
     32 O          10.0881   80.4446   28.5061 O.2     1  UNL1       -0.2730
     33 N           9.1186   79.8132   30.5436 N.am    1  UNL1       -0.2825
     34 H           8.5120   79.0862   30.9867 H       1  UNL1        0.1549
     35 C           9.2458   81.0828   31.2061 C.ar    1  UNL1        0.0535
     36 C           8.8516   81.2035   32.5458 C.ar    1  UNL1        0.0353
     37 C           8.9945   82.4288   33.2011 C.ar    1  UNL1        0.1002
     38 N           9.5289   83.4937   32.5471 N.ar    1  UNL1       -0.2422
     39 C           9.9385   83.4025   31.2543 C.ar    1  UNL1        0.1002
     40 C           9.8123   82.1958   30.5615 C.ar    1  UNL1        0.0353
     41 C           9.4897   77.1279   29.9450 C.3     1  UNL1        0.0569
     42 C           8.3080   76.2412   29.6790 C.ar    1  UNL1       -0.0017
     43 C           8.3407   74.9413   29.1832 C.ar    1  UNL1        0.0681
     44 N           7.0939   74.4180   29.1485 N.ar    1  UNL1       -0.3523
     45 C           6.2768   75.3726   29.6263 C.ar    1  UNL1        0.0563
     46 C           4.8959   75.2933   29.8018 C.ar    1  UNL1        0.0170
     47 C           4.2361   76.4133   30.3406 C.ar    1  UNL1        0.0015
     48 C           4.9635   77.5726   30.6909 C.ar    1  UNL1        0.0001
     49 C           6.3570   77.6234   30.5048 C.ar    1  UNL1        0.0012
     50 C           6.9819   76.4992   29.9645 C.ar    1  UNL1        0.0131
     51 H           6.8269   73.4602   28.8293 H       1  UNL1        0.1660
@<TRIPOS>BOND
     1     1     2    2
     2     2     3   am
     3     3    30    1
     4    30    41    1
     5    41    42    1
     6    42    43   ar
     7    43    44   ar
     8    44    45   ar
     9    45    46   ar
    10    46    47   ar
    11    47    48   ar
    12    48    49   ar
    13    49    50   ar
    14    30    31    1
    15    31    32    2
    16    31    33   am
    17    33    35    1
    18    35    36   ar
    19    36    37   ar
    20    37    38   ar
    21    38    39   ar
    22    39    40   ar
    23     2     5    1
    24     5     6   ar
    25     6     7   ar
    26     7     8   ar
    27     8    12    1
    28    12    13    1
    29    13    14    1
    30    14    15    1
    31    15    18    1
    32    18    19   ar
    33    19    20   ar
    34    20    21   ar
    35    21    26    1
    36    26    27    1
    37    26    28    1
    38    26    29    1
    39    21    22   ar
    40    22    23    1
    41    22    24   ar
    42    15    16    1
    43    16    17    1
    44     8     9   ar
    45     9    10   ar
    46    10    11    1
    47    50    42   ar
    48    40    35   ar
    49    10     5   ar
    50    50    45   ar
    51    17    12    1
    52    24    18   ar
    53     3     4    1
    54    44    51    1
    55    33    34    1
    56    23    25    1
@<TRIPOS>MOLECULE
*****
 51 56 0 0 0
SMALL
GASTEIGER

@<TRIPOS>ATOM
      1 O          10.8354   74.9693   25.1352 O.2     1  UNL1       -0.2701
      2 C           9.9418   75.8589   25.0910 C.2     1  UNL1        0.2483
      3 N          10.1073   77.0730   25.8400 N.am    1  UNL1       -0.2945
      4 H           9.5254   77.9031   25.5847 H       1  UNL1        0.1501
      5 C           8.7504   75.6486   24.2379 C.ar    1  UNL1        0.0808
      6 C           8.7958   76.0106   22.8819 C.ar    1  UNL1        0.0080
      7 C           7.6828   75.8245   22.0583 C.ar    1  UNL1        0.0148
      8 C           6.5010   75.2606   22.5693 C.ar    1  UNL1        0.0502
      9 C           6.4609   74.8857   23.9234 C.ar    1  UNL1        0.0443
     10 C           7.5733   75.0711   24.7504 C.ar    1  UNL1        0.1457
     11 F           7.5088   74.6370   26.0343 F       1  UNL1       -0.2040
     12 N           5.3466   75.0715   21.7207 N.pl3   1  UNL1       -0.3040
     13 C           5.1223   73.7829   21.0503 C.3     1  UNL1        0.1123
     14 C           3.6232   73.5078   20.8884 C.3     1  UNL1        0.1136
     15 N           2.9134   74.6587   20.3046 N.pl3   1  UNL1       -0.2897
     16 C           3.5971   75.9552   20.1936 C.3     1  UNL1        0.1136
     17 C           4.4653   76.2129   21.4287 C.3     1  UNL1        0.1123
     18 C           1.6043   74.4885   19.7151 C.ar    1  UNL1        0.1349
     19 C           0.9051   75.5710   19.1611 C.ar    1  UNL1        0.0345
     20 C          -0.3557   75.3663   18.6027 C.ar    1  UNL1        0.0114
     21 C          -0.9330   74.0844   18.5874 C.ar    1  UNL1        0.1243
     22 C          -0.1951   73.0166   19.1511 C.ar    1  UNL1        0.2266
     23 O          -0.6815   71.7084   19.1798 O.3     1  UNL1       -0.4920
     24 N           1.0315   73.2538   19.6876 N.ar    1  UNL1       -0.1969
     25 H          -1.5806   71.4385   18.8042 H       1  UNL1        0.2937
     26 C          -2.3021   73.8665   17.9801 C.3     1  UNL1        0.4229
     27 F          -3.1768   74.8312   18.4467 F       1  UNL1       -0.1657
     28 F          -2.2184   73.9499   16.6019 F       1  UNL1       -0.1657
     29 F          -2.8169   72.6233   18.3063 F       1  UNL1       -0.1657
     30 C          11.2014   77.2495   26.8002 C.3     1  UNL1        0.1535
     31 C          12.2877   78.0915   26.1899 C.2     1  UNL1        0.2443
     32 O          12.1697   79.3476   26.1778 O.2     1  UNL1       -0.2730
     33 N          13.4888   77.4689   25.7080 N.am    1  UNL1       -0.2825
     34 H          13.6948   76.4955   26.0286 H       1  UNL1        0.1549
     35 C          14.4704   78.1350   24.8958 C.ar    1  UNL1        0.0535
     36 C          14.9514   77.5044   23.7401 C.ar    1  UNL1        0.0353
     37 C          15.8880   78.1569   22.9349 C.ar    1  UNL1        0.1002
     38 N          16.3176   79.4041   23.2623 N.ar    1  UNL1       -0.2422
     39 C          15.8552   80.0494   24.3655 C.ar    1  UNL1        0.1002
     40 C          14.9188   79.4322   25.1987 C.ar    1  UNL1        0.0353
     41 C          10.6922   77.9061   28.0940 C.3     1  UNL1        0.0569
     42 C           9.2551   77.5564   28.3503 C.ar    1  UNL1       -0.0017
     43 C           8.1480   78.3629   28.1040 C.ar    1  UNL1        0.0681
     44 N           7.0056   77.6930   28.3788 N.ar    1  UNL1       -0.3523
     45 C           7.3819   76.4686   28.7874 C.ar    1  UNL1        0.0563
     46 C           6.5543   75.4115   29.1635 C.ar    1  UNL1        0.0170
     47 C           7.1644   74.2008   29.5404 C.ar    1  UNL1        0.0015
     48 C           8.5714   74.0746   29.5299 C.ar    1  UNL1        0.0001
     49 C           9.3817   75.1578   29.1435 C.ar    1  UNL1        0.0012
     50 C           8.7478   76.3460   28.7796 C.ar    1  UNL1        0.0131
     51 H           6.0305   78.0526   28.2775 H       1  UNL1        0.1660
@<TRIPOS>BOND
     1     1     2    2
     2     2     3   am
     3     3    30    1
     4    30    41    1
     5    41    42    1
     6    42    43   ar
     7    43    44   ar
     8    44    45   ar
     9    45    46   ar
    10    46    47   ar
    11    47    48   ar
    12    48    49   ar
    13    49    50   ar
    14    30    31    1
    15    31    32    2
    16    31    33   am
    17    33    35    1
    18    35    36   ar
    19    36    37   ar
    20    37    38   ar
    21    38    39   ar
    22    39    40   ar
    23     2     5    1
    24     5     6   ar
    25     6     7   ar
    26     7     8   ar
    27     8    12    1
    28    12    13    1
    29    13    14    1
    30    14    15    1
    31    15    18    1
    32    18    19   ar
    33    19    20   ar
    34    20    21   ar
    35    21    26    1
    36    26    27    1
    37    26    28    1
    38    26    29    1
    39    21    22   ar
    40    22    23    1
    41    22    24   ar
    42    15    16    1
    43    16    17    1
    44     8     9   ar
    45     9    10   ar
    46    10    11    1
    47    50    42   ar
    48    40    35   ar
    49    10     5   ar
    50    50    45   ar
    51    17    12    1
    52    24    18   ar
    53     3     4    1
    54    44    51    1
    55    33    34    1
    56    23    25    1
@<TRIPOS>MOLECULE
*****
 51 56 0 0 0
SMALL
GASTEIGER

@<TRIPOS>ATOM
      1 O          11.2625   75.6349   24.2763 O.2     1  UNL1       -0.2701
      2 C          10.1367   76.0367   24.6803 C.2     1  UNL1        0.2483
      3 N          10.0404   76.7618   25.9161 N.am    1  UNL1       -0.2945
      4 H           9.1802   77.3265   26.1005 H       1  UNL1        0.1501
      5 C           8.9359   75.7819   23.8529 C.ar    1  UNL1        0.0808
      6 C           8.0679   76.8419   23.5455 C.ar    1  UNL1        0.0080
      7 C           6.9268   76.6248   22.7692 C.ar    1  UNL1        0.0148
      8 C           6.6333   75.3432   22.2718 C.ar    1  UNL1        0.0502
      9 C           7.5100   74.2854   22.5684 C.ar    1  UNL1        0.0443
     10 C           8.6527   74.4996   23.3455 C.ar    1  UNL1        0.1457
     11 F           9.5019   73.4619   23.5535 F       1  UNL1       -0.2040
     12 N           5.4511   75.1149   21.4726 N.pl3   1  UNL1       -0.3040
     13 C           5.1268   73.7622   20.9979 C.3     1  UNL1        0.1123
     14 C           3.6096   73.5713   20.8945 C.3     1  UNL1        0.1136
     15 N           2.9662   74.6731   20.1588 N.pl3   1  UNL1       -0.2897
     16 C           3.7325   75.8899   19.8539 C.3     1  UNL1        0.1136
     17 C           4.6421   76.2610   21.0289 C.3     1  UNL1        0.1123
     18 C           1.6364   74.5113   19.6150 C.ar    1  UNL1        0.1349
     19 C           0.9096   75.6050   19.1219 C.ar    1  UNL1        0.0345
     20 C          -0.3705   75.4081   18.6062 C.ar    1  UNL1        0.0114
     21 C          -0.9400   74.1231   18.5736 C.ar    1  UNL1        0.1243
     22 C          -0.1743   73.0441   19.0753 C.ar    1  UNL1        0.2266
     23 O          -0.6510   71.7320   19.0823 O.3     1  UNL1       -0.4920
     24 N           1.0706   73.2738   19.5714 N.ar    1  UNL1       -0.1969
     25 H          -1.5623   71.4671   18.7333 H       1  UNL1        0.2937
     26 C          -2.3302   73.9138   18.0128 C.3     1  UNL1        0.4229
     27 F          -3.1635   74.9301   18.4441 F       1  UNL1       -0.1657
     28 F          -2.2795   73.9161   16.6305 F       1  UNL1       -0.1657
     29 F          -2.8731   72.7076   18.4223 F       1  UNL1       -0.1657
     30 C          11.1836   76.9051   26.8231 C.3     1  UNL1        0.1535
     31 C          12.1963   77.8434   26.2266 C.2     1  UNL1        0.2443
     32 O          11.9521   79.0806   26.1879 O.2     1  UNL1       -0.2730
     33 N          13.4675   77.3385   25.7888 N.am    1  UNL1       -0.2825
     34 H          13.7617   76.3963   26.1329 H       1  UNL1        0.1549
     35 C          14.3995   78.0881   24.9910 C.ar    1  UNL1        0.0535
     36 C          14.9118   77.5218   23.8156 C.ar    1  UNL1        0.0353
     37 C          15.7997   78.2546   23.0246 C.ar    1  UNL1        0.1002
     38 N          16.1517   79.5170   23.3851 N.ar    1  UNL1       -0.2422
     39 C          15.6566   80.1005   24.5083 C.ar    1  UNL1        0.1002
     40 C          14.7668   79.4021   25.3283 C.ar    1  UNL1        0.0353
     41 C          10.7296   77.4264   28.1966 C.3     1  UNL1        0.0569
     42 C           9.6340   76.5724   28.7655 C.ar    1  UNL1       -0.0017
     43 C           9.5110   75.1914   28.6454 C.ar    1  UNL1        0.0681
     44 N           8.4465   74.7491   29.3531 N.ar    1  UNL1       -0.3523
     45 C           7.9028   75.8373   29.9256 C.ar    1  UNL1        0.0563
     46 C           6.7934   75.8838   30.7688 C.ar    1  UNL1        0.0170
     47 C           6.4048   77.1376   31.2756 C.ar    1  UNL1        0.0015
     48 C           7.1275   78.3027   30.9347 C.ar    1  UNL1        0.0001
     49 C           8.2446   78.2253   30.0832 C.ar    1  UNL1        0.0012
     50 C           8.6025   76.9691   29.5933 C.ar    1  UNL1        0.0131
     51 H           8.1253   73.7599   29.4460 H       1  UNL1        0.1660
@<TRIPOS>BOND
     1     1     2    2
     2     2     3   am
     3     3    30    1
     4    30    41    1
     5    41    42    1
     6    42    43   ar
     7    43    44   ar
     8    44    45   ar
     9    45    46   ar
    10    46    47   ar
    11    47    48   ar
    12    48    49   ar
    13    49    50   ar
    14    30    31    1
    15    31    32    2
    16    31    33   am
    17    33    35    1
    18    35    36   ar
    19    36    37   ar
    20    37    38   ar
    21    38    39   ar
    22    39    40   ar
    23     2     5    1
    24     5     6   ar
    25     6     7   ar
    26     7     8   ar
    27     8    12    1
    28    12    13    1
    29    13    14    1
    30    14    15    1
    31    15    18    1
    32    18    19   ar
    33    19    20   ar
    34    20    21   ar
    35    21    26    1
    36    26    27    1
    37    26    28    1
    38    26    29    1
    39    21    22   ar
    40    22    23    1
    41    22    24   ar
    42    15    16    1
    43    16    17    1
    44     8     9   ar
    45     9    10   ar
    46    10    11    1
    47    50    42   ar
    48    40    35   ar
    49    10     5   ar
    50    50    45   ar
    51    17    12    1
    52    24    18   ar
    53     3     4    1
    54    44    51    1
    55    33    34    1
    56    23    25    1
@<TRIPOS>MOLECULE
*****
 51 56 0 0 0
SMALL
GASTEIGER

@<TRIPOS>ATOM
      1 O          14.5307   82.9068   24.2168 O.2     1  UNL1       -0.2701
      2 C          13.2769   83.0411   24.2606 C.2     1  UNL1        0.2483
      3 N          12.6746   84.2620   23.8035 N.am    1  UNL1       -0.2945
      4 H          11.6541   84.2636   23.5768 H       1  UNL1        0.1501
      5 C          12.4442   81.9203   24.7525 C.ar    1  UNL1        0.0808
      6 C          11.0762   82.1263   24.9931 C.ar    1  UNL1        0.0080
      7 C          10.2713   81.0846   25.4606 C.ar    1  UNL1        0.0148
      8 C          10.8140   79.8078   25.6875 C.ar    1  UNL1        0.0502
      9 C          12.1805   79.5988   25.4333 C.ar    1  UNL1        0.0443
     10 C          12.9887   80.6397   24.9656 C.ar    1  UNL1        0.1457
     11 F          14.2874   80.3747   24.6753 F       1  UNL1       -0.2040
     12 N           9.9846   78.7297   26.1757 N.pl3   1  UNL1       -0.3040
     13 C          10.4516   77.8749   27.2763 C.3     1  UNL1        0.1123
     14 C           9.2716   77.3853   28.1230 C.3     1  UNL1        0.1136
     15 N           8.1967   76.8179   27.2912 N.pl3   1  UNL1       -0.2897
     16 C           8.2286   77.0053   25.8336 C.3     1  UNL1        0.1136
     17 C           8.7264   78.4107   25.4830 C.3     1  UNL1        0.1123
     18 C           7.1900   75.9633   27.8798 C.ar    1  UNL1        0.1349
     19 C           6.7087   74.8299   27.2079 C.ar    1  UNL1        0.0345
     20 C           5.7369   74.0311   27.8086 C.ar    1  UNL1        0.0114
     21 C           5.2354   74.3493   29.0829 C.ar    1  UNL1        0.1243
     22 C           5.7489   75.4974   29.7314 C.ar    1  UNL1        0.2266
     23 O           5.3172   75.8930   30.9987 O.3     1  UNL1       -0.4920
     24 N           6.6959   76.2534   29.1147 N.ar    1  UNL1       -0.1969
     25 H           4.6191   75.3926   31.5323 H       1  UNL1        0.2937
     26 C           4.1802   73.4794   29.7316 C.3     1  UNL1        0.4229
     27 F           3.0356   74.2238   29.9530 F       1  UNL1       -0.1657
     28 F           3.8820   72.4132   28.9024 F       1  UNL1       -0.1657
     29 F           4.6078   72.9735   30.9475 F       1  UNL1       -0.1657
     30 C          13.4762   85.4368   23.4466 C.3     1  UNL1        0.1535
     31 C          13.5293   86.3923   24.6067 C.2     1  UNL1        0.2443
     32 O          12.7563   87.3891   24.6285 O.2     1  UNL1       -0.2730
     33 N          14.3924   86.1163   25.7209 N.am    1  UNL1       -0.2825
     34 H          14.7573   85.1422   25.8243 H       1  UNL1        0.1549
     35 C          14.7030   87.0676   26.7531 C.ar    1  UNL1        0.0535
     36 C          15.6267   88.0893   26.4933 C.ar    1  UNL1        0.0353
     37 C          15.9148   89.0300   27.4850 C.ar    1  UNL1        0.1002
     38 N          15.2895   88.9638   28.6900 N.ar    1  UNL1       -0.2422
     39 C          14.3748   87.9968   28.9650 C.ar    1  UNL1        0.1002
     40 C          14.0583   87.0357   28.0017 C.ar    1  UNL1        0.0353
     41 C          14.9007   85.0235   23.0409 C.3     1  UNL1        0.0569
     42 C          15.5517   86.0797   22.1960 C.ar    1  UNL1       -0.0017
     43 C          15.1956   86.4426   20.9006 C.ar    1  UNL1        0.0681
     44 N          15.9459   87.4863   20.4796 N.ar    1  UNL1       -0.3523
     45 C          16.7653   87.7906   21.5011 C.ar    1  UNL1        0.0563
     46 C          17.7130   88.8123   21.5491 C.ar    1  UNL1        0.0170
     47 C          18.4542   88.9663   22.7351 C.ar    1  UNL1        0.0015
     48 C          18.2319   88.1078   23.8349 C.ar    1  UNL1        0.0001
     49 C          17.2672   87.0867   23.7587 C.ar    1  UNL1        0.0012
     50 C          16.5517   86.9562   22.5682 C.ar    1  UNL1        0.0131
     51 H          15.8862   87.9656   19.5538 H       1  UNL1        0.1660
@<TRIPOS>BOND
     1     1     2    2
     2     2     3   am
     3     3    30    1
     4    30    41    1
     5    41    42    1
     6    42    43   ar
     7    43    44   ar
     8    44    45   ar
     9    45    46   ar
    10    46    47   ar
    11    47    48   ar
    12    48    49   ar
    13    49    50   ar
    14    30    31    1
    15    31    32    2
    16    31    33   am
    17    33    35    1
    18    35    36   ar
    19    36    37   ar
    20    37    38   ar
    21    38    39   ar
    22    39    40   ar
    23     2     5    1
    24     5     6   ar
    25     6     7   ar
    26     7     8   ar
    27     8    12    1
    28    12    13    1
    29    13    14    1
    30    14    15    1
    31    15    18    1
    32    18    19   ar
    33    19    20   ar
    34    20    21   ar
    35    21    26    1
    36    26    27    1
    37    26    28    1
    38    26    29    1
    39    21    22   ar
    40    22    23    1
    41    22    24   ar
    42    15    16    1
    43    16    17    1
    44     8     9   ar
    45     9    10   ar
    46    10    11    1
    47    50    42   ar
    48    40    35   ar
    49    10     5   ar
    50    50    45   ar
    51    17    12    1
    52    24    18   ar
    53     3     4    1
    54    44    51    1
    55    33    34    1
    56    23    25    1
@<TRIPOS>MOLECULE
*****
 51 56 0 0 0
SMALL
GASTEIGER

@<TRIPOS>ATOM
      1 O          14.7399   82.9400   23.7045 O.2     1  UNL1       -0.2701
      2 C          13.6421   83.2159   24.2618 C.2     1  UNL1        0.2483
      3 N          13.2336   84.5865   24.3920 N.am    1  UNL1       -0.2945
      4 H          12.2275   84.7937   24.5858 H       1  UNL1        0.1501
      5 C          12.7761   82.1157   24.7427 C.ar    1  UNL1        0.0808
      6 C          11.4066   82.3494   24.9462 C.ar    1  UNL1        0.0080
      7 C          10.5706   81.3274   25.4026 C.ar    1  UNL1        0.0148
      8 C          11.0832   80.0431   25.6553 C.ar    1  UNL1        0.0502
      9 C          12.4515   79.8063   25.4382 C.ar    1  UNL1        0.0443
     10 C          13.2909   80.8273   24.9817 C.ar    1  UNL1        0.1457
     11 F          14.5913   80.5355   24.7273 F       1  UNL1       -0.2040
     12 N          10.2215   78.9854   26.1321 N.pl3   1  UNL1       -0.3040
     13 C          10.6762   78.0829   27.1992 C.3     1  UNL1        0.1123
     14 C           9.4950   77.6170   28.0575 C.3     1  UNL1        0.1136
     15 N           8.3817   77.1155   27.2340 N.pl3   1  UNL1       -0.2897
     16 C           8.3914   77.3416   25.7816 C.3     1  UNL1        0.1136
     17 C           8.9377   78.7354   25.4581 C.3     1  UNL1        0.1123
     18 C           7.3538   76.2852   27.8209 C.ar    1  UNL1        0.1349
     19 C           6.6330   75.3598   27.0516 C.ar    1  UNL1        0.0345
     20 C           5.6488   74.5779   27.6543 C.ar    1  UNL1        0.0114
     21 C           5.3725   74.7062   29.0269 C.ar    1  UNL1        0.1243
     22 C           6.1239   75.6467   29.7708 C.ar    1  UNL1        0.2266
     23 O           5.9259   75.8439   31.1386 O.3     1  UNL1       -0.4920
     24 N           7.0756   76.3927   29.1492 N.ar    1  UNL1       -0.1969
     25 H           5.2429   75.3347   31.6831 H       1  UNL1        0.2937
     26 C           4.3031   73.8553   29.6773 C.3     1  UNL1        0.4229
     27 F           3.2720   74.6635   30.1214 F       1  UNL1       -0.1657
     28 F           3.8110   72.9448   28.7597 F       1  UNL1       -0.1657
     29 F           4.7966   73.1504   30.7620 F       1  UNL1       -0.1657
     30 C          14.1287   85.6983   24.0564 C.3     1  UNL1        0.1535
     31 C          14.1570   85.9014   22.5666 C.2     1  UNL1        0.2443
     32 O          13.7587   86.9948   22.0792 O.2     1  UNL1       -0.2730
     33 N          14.7192   84.8883   21.7179 N.am    1  UNL1       -0.2825
     34 H          15.3285   84.1643   22.1621 H       1  UNL1        0.1549
     35 C          14.5774   84.8673   20.2874 C.ar    1  UNL1        0.0535
     36 C          13.6018   85.6695   19.6798 C.ar    1  UNL1        0.0353
     37 C          13.4751   85.6704   18.2887 C.ar    1  UNL1        0.1002
     38 N          14.3054   84.9094   17.5278 N.ar    1  UNL1       -0.2422
     39 C          15.2737   84.1364   18.0864 C.ar    1  UNL1        0.1002
     40 C          15.4337   84.1054   19.4740 C.ar    1  UNL1        0.0353
     41 C          13.6782   86.9923   24.7544 C.3     1  UNL1        0.0569
     42 C          14.7141   87.4713   25.7294 C.ar    1  UNL1       -0.0017
     43 C          14.6380   87.4110   27.1177 C.ar    1  UNL1        0.0681
     44 N          15.7870   87.8588   27.6732 N.ar    1  UNL1       -0.3523
     45 C          16.5902   88.1923   26.6479 C.ar    1  UNL1        0.0563
     46 C          17.8918   88.6868   26.7199 C.ar    1  UNL1        0.0170
     47 C          18.5622   88.9520   25.5115 C.ar    1  UNL1        0.0015
     48 C          17.9250   88.7166   24.2728 C.ar    1  UNL1        0.0001
     49 C          16.6114   88.2149   24.2306 C.ar    1  UNL1        0.0012
     50 C          15.9715   87.9661   25.4451 C.ar    1  UNL1        0.0131
     51 H          16.0072   87.9170   28.6923 H       1  UNL1        0.1660
@<TRIPOS>BOND
     1     1     2    2
     2     2     3   am
     3     3    30    1
     4    30    41    1
     5    41    42    1
     6    42    43   ar
     7    43    44   ar
     8    44    45   ar
     9    45    46   ar
    10    46    47   ar
    11    47    48   ar
    12    48    49   ar
    13    49    50   ar
    14    30    31    1
    15    31    32    2
    16    31    33   am
    17    33    35    1
    18    35    36   ar
    19    36    37   ar
    20    37    38   ar
    21    38    39   ar
    22    39    40   ar
    23     2     5    1
    24     5     6   ar
    25     6     7   ar
    26     7     8   ar
    27     8    12    1
    28    12    13    1
    29    13    14    1
    30    14    15    1
    31    15    18    1
    32    18    19   ar
    33    19    20   ar
    34    20    21   ar
    35    21    26    1
    36    26    27    1
    37    26    28    1
    38    26    29    1
    39    21    22   ar
    40    22    23    1
    41    22    24   ar
    42    15    16    1
    43    16    17    1
    44     8     9   ar
    45     9    10   ar
    46    10    11    1
    47    50    42   ar
    48    40    35   ar
    49    10     5   ar
    50    50    45   ar
    51    17    12    1
    52    24    18   ar
    53     3     4    1
    54    44    51    1
    55    33    34    1
    56    23    25    1
@<TRIPOS>MOLECULE
*****
 51 56 0 0 0
SMALL
GASTEIGER

@<TRIPOS>ATOM
      1 O           8.3159   74.8407   25.6967 O.2     1  UNL1       -0.2701
      2 C           8.2480   75.6805   24.7575 C.2     1  UNL1        0.2483
      3 N           7.3097   75.4803   23.6889 N.am    1  UNL1       -0.2945
      4 H           7.0586   76.2941   23.0829 H       1  UNL1        0.1501
      5 C           9.1163   76.8790   24.7920 C.ar    1  UNL1        0.0808
      6 C           8.5506   78.1380   25.0500 C.ar    1  UNL1        0.0080
      7 C           9.3496   79.2835   25.0842 C.ar    1  UNL1        0.0148
      8 C          10.7364   79.1948   24.8725 C.ar    1  UNL1        0.0502
      9 C          11.3040   77.9323   24.6281 C.ar    1  UNL1        0.0443
     10 C          10.5067   76.7841   24.5929 C.ar    1  UNL1        0.1457
     11 F          11.1072   75.5804   24.4154 F       1  UNL1       -0.2040
     12 N          11.5646   80.3788   24.9026 N.pl3   1  UNL1       -0.3040
     13 C          13.0238   80.2599   25.0325 C.3     1  UNL1        0.1123
     14 C          13.7301   81.4060   24.3000 C.3     1  UNL1        0.1136
     15 N          13.1660   82.7181   24.6595 N.pl3   1  UNL1       -0.2897
     16 C          11.9055   82.7866   25.4126 C.3     1  UNL1        0.1136
     17 C          10.9319   81.7068   24.9309 C.3     1  UNL1        0.1123
     18 C          13.9102   83.9302   24.4003 C.ar    1  UNL1        0.1349
     19 C          13.9858   84.9595   25.3503 C.ar    1  UNL1        0.0345
     20 C          14.7129   86.1135   25.0625 C.ar    1  UNL1        0.0114
     21 C          15.3733   86.2554   23.8294 C.ar    1  UNL1        0.1243
     22 C          15.2781   85.1937   22.8988 C.ar    1  UNL1        0.2266
     23 O          15.9015   85.2391   21.6504 O.3     1  UNL1       -0.4920
     24 N          14.5595   84.0833   23.2136 N.ar    1  UNL1       -0.1969
     25 H          16.4563   86.0219   21.3314 H       1  UNL1        0.2937
     26 C          16.1617   87.5101   23.5209 C.3     1  UNL1        0.4229
     27 F          15.9968   88.4262   24.5441 F       1  UNL1       -0.1657
     28 F          17.5032   87.1975   23.3953 F       1  UNL1       -0.1657
     29 F          15.7445   88.1017   22.3406 F       1  UNL1       -0.1657
     30 C           6.5414   74.2387   23.5531 C.3     1  UNL1        0.1535
     31 C           5.2282   74.5204   22.8764 C.2     1  UNL1        0.2443
     32 O           4.7614   73.6879   22.0514 O.2     1  UNL1       -0.2730
     33 N           4.4731   75.6869   23.2392 N.am    1  UNL1       -0.2825
     34 H           4.7151   76.1634   24.1377 H       1  UNL1        0.1549
     35 C           3.3449   76.1785   22.4959 C.ar    1  UNL1        0.0535
     36 C           2.5322   77.1741   23.0551 C.ar    1  UNL1        0.0353
     37 C           1.4483   77.6717   22.3278 C.ar    1  UNL1        0.1002
     38 N           1.1939   77.2039   21.0773 N.ar    1  UNL1       -0.2422
     39 C           1.9753   76.2531   20.5004 C.ar    1  UNL1        0.1002
     40 C           3.0686   75.7276   21.1937 C.ar    1  UNL1        0.0353
     41 C           7.3318   73.1919   22.7508 C.3     1  UNL1        0.0569
     42 C           8.5616   73.7950   22.1366 C.ar    1  UNL1       -0.0017
     43 C           8.6404   75.0053   21.4543 C.ar    1  UNL1        0.0681
     44 N           9.9214   75.2708   21.1106 N.ar    1  UNL1       -0.3523
     45 C          10.6520   74.2435   21.5780 C.ar    1  UNL1        0.0563
     46 C          12.0332   74.0771   21.4846 C.ar    1  UNL1        0.0170
     47 C          12.5975   72.9267   22.0661 C.ar    1  UNL1        0.0015
     48 C          11.7786   71.9813   22.7229 C.ar    1  UNL1        0.0001
     49 C          10.3878   72.1766   22.8036 C.ar    1  UNL1        0.0012
     50 C           9.8574   73.3242   22.2138 C.ar    1  UNL1        0.0131
     51 H          10.2697   76.1123   20.5998 H       1  UNL1        0.1660
@<TRIPOS>BOND
     1     1     2    2
     2     2     3   am
     3     3    30    1
     4    30    41    1
     5    41    42    1
     6    42    43   ar
     7    43    44   ar
     8    44    45   ar
     9    45    46   ar
    10    46    47   ar
    11    47    48   ar
    12    48    49   ar
    13    49    50   ar
    14    30    31    1
    15    31    32    2
    16    31    33   am
    17    33    35    1
    18    35    36   ar
    19    36    37   ar
    20    37    38   ar
    21    38    39   ar
    22    39    40   ar
    23     2     5    1
    24     5     6   ar
    25     6     7   ar
    26     7     8   ar
    27     8    12    1
    28    12    13    1
    29    13    14    1
    30    14    15    1
    31    15    18    1
    32    18    19   ar
    33    19    20   ar
    34    20    21   ar
    35    21    26    1
    36    26    27    1
    37    26    28    1
    38    26    29    1
    39    21    22   ar
    40    22    23    1
    41    22    24   ar
    42    15    16    1
    43    16    17    1
    44     8     9   ar
    45     9    10   ar
    46    10    11    1
    47    50    42   ar
    48    40    35   ar
    49    10     5   ar
    50    50    45   ar
    51    17    12    1
    52    24    18   ar
    53     3     4    1
    54    44    51    1
    55    33    34    1
    56    23    25    1
@<TRIPOS>MOLECULE
*****
 51 56 0 0 0
SMALL
GASTEIGER

@<TRIPOS>ATOM
      1 O           8.7051   74.5395   25.1934 O.2     1  UNL1       -0.2701
      2 C           8.2544   75.6443   25.6036 C.2     1  UNL1        0.2483
      3 N           6.9426   75.7074   26.1846 N.am    1  UNL1       -0.2945
      4 H           6.6918   76.5377   26.7679 H       1  UNL1        0.1501
      5 C           9.1028   76.8538   25.5091 C.ar    1  UNL1        0.0808
      6 C           8.7388   77.8895   24.6336 C.ar    1  UNL1        0.0080
      7 C           9.5256   79.0388   24.5251 C.ar    1  UNL1        0.0148
      8 C          10.6899   79.1844   25.2992 C.ar    1  UNL1        0.0502
      9 C          11.0461   78.1532   26.1855 C.ar    1  UNL1        0.0443
     10 C          10.2607   77.0015   26.2960 C.ar    1  UNL1        0.1457
     11 F          10.6101   76.0610   27.2095 F       1  UNL1       -0.2040
     12 N          11.5082   80.3701   25.1854 N.pl3   1  UNL1       -0.3040
     13 C          12.9698   80.2770   25.3091 C.3     1  UNL1        0.1123
     14 C          13.6575   81.3384   24.4434 C.3     1  UNL1        0.1136
     15 N          13.0865   82.6786   24.6604 N.pl3   1  UNL1       -0.2897
     16 C          11.8346   82.8224   25.4172 C.3     1  UNL1        0.1136
     17 C          10.8646   81.6883   25.0725 C.3     1  UNL1        0.1123
     18 C          13.8172   83.8591   24.2572 C.ar    1  UNL1        0.1349
     19 C          13.9495   84.9646   25.1104 C.ar    1  UNL1        0.0345
     20 C          14.6613   86.0850   24.6846 C.ar    1  UNL1        0.0114
     21 C          15.2500   86.1174   23.4082 C.ar    1  UNL1        0.1243
     22 C          15.0992   84.9813   22.5780 C.ar    1  UNL1        0.2266
     23 O          15.6498   84.9166   21.2968 O.3     1  UNL1       -0.4920
     24 N          14.3975   83.9066   23.0266 N.ar    1  UNL1       -0.1969
     25 H          16.1871   85.6656   20.8813 H       1  UNL1        0.2937
     26 C          16.0219   87.3358   22.9497 C.3     1  UNL1        0.4229
     27 F          15.9386   88.3277   23.9102 F       1  UNL1       -0.1657
     28 F          17.3486   86.9985   22.7511 F       1  UNL1       -0.1657
     29 F          15.5234   87.8428   21.7616 F       1  UNL1       -0.1657
     30 C           6.0279   74.5614   26.1621 C.3     1  UNL1        0.1535
     31 C           6.0422   73.9213   24.8014 C.2     1  UNL1        0.2443
     32 O           6.3552   72.7043   24.6887 O.2     1  UNL1       -0.2730
     33 N           5.6138   74.6716   23.6541 N.am    1  UNL1       -0.2825
     34 H           5.0579   75.5410   23.8210 H       1  UNL1        0.1549
     35 C           5.8161   74.2490   22.2949 C.ar    1  UNL1        0.0535
     36 C           7.0814   73.7981   21.8945 C.ar    1  UNL1        0.0353
     37 C           7.2775   73.3646   20.5812 C.ar    1  UNL1        0.1002
     38 N           6.2417   73.3647   19.7011 N.ar    1  UNL1       -0.2422
     39 C           4.9988   73.7773   20.0649 C.ar    1  UNL1        0.1002
     40 C           4.7597   74.2200   21.3683 C.ar    1  UNL1        0.0353
     41 C           6.4191   73.5290   27.2324 C.3     1  UNL1        0.0569
     42 C           6.7663   74.1986   28.5302 C.ar    1  UNL1       -0.0017
     43 C           8.0182   74.2338   29.1371 C.ar    1  UNL1        0.0681
     44 N           7.9798   74.9951   30.2544 N.ar    1  UNL1       -0.3523
     45 C           6.7176   75.4477   30.3525 C.ar    1  UNL1        0.0563
     46 C           6.1953   76.2898   31.3333 C.ar    1  UNL1        0.0170
     47 C           4.8409   76.6574   31.2311 C.ar    1  UNL1        0.0015
     48 C           4.0492   76.1830   30.1616 C.ar    1  UNL1        0.0001
     49 C           4.6038   75.3360   29.1848 C.ar    1  UNL1        0.0012
     50 C           5.9478   74.9858   29.3157 C.ar    1  UNL1        0.0131
     51 H           8.7757   75.2001   30.8986 H       1  UNL1        0.1660
@<TRIPOS>BOND
     1     1     2    2
     2     2     3   am
     3     3    30    1
     4    30    41    1
     5    41    42    1
     6    42    43   ar
     7    43    44   ar
     8    44    45   ar
     9    45    46   ar
    10    46    47   ar
    11    47    48   ar
    12    48    49   ar
    13    49    50   ar
    14    30    31    1
    15    31    32    2
    16    31    33   am
    17    33    35    1
    18    35    36   ar
    19    36    37   ar
    20    37    38   ar
    21    38    39   ar
    22    39    40   ar
    23     2     5    1
    24     5     6   ar
    25     6     7   ar
    26     7     8   ar
    27     8    12    1
    28    12    13    1
    29    13    14    1
    30    14    15    1
    31    15    18    1
    32    18    19   ar
    33    19    20   ar
    34    20    21   ar
    35    21    26    1
    36    26    27    1
    37    26    28    1
    38    26    29    1
    39    21    22   ar
    40    22    23    1
    41    22    24   ar
    42    15    16    1
    43    16    17    1
    44     8     9   ar
    45     9    10   ar
    46    10    11    1
    47    50    42   ar
    48    40    35   ar
    49    10     5   ar
    50    50    45   ar
    51    17    12    1
    52    24    18   ar
    53     3     4    1
    54    44    51    1
    55    33    34    1
    56    23    25    1
