@<TRIPOS>MOLECULE
*****
 31 34 0 0 0
SMALL
GASTEIGER

@<TRIPOS>ATOM
      1 C          46.3492   12.0606  -30.1847 C.ar    1  UNL1       -0.0145
      2 C          46.0320   13.2545  -29.4984 C.ar    1  UNL1        0.0134
      3 C          46.1183   13.2700  -28.1040 C.ar    1  UNL1        0.0597
      4 C          46.5060   12.1474  -27.4057 C.ar    1  UNL1        0.0177
      5 C          46.8108   10.9481  -28.0414 C.ar    1  UNL1        0.0079
      6 C          46.7228   10.8990  -29.4452 C.ar    1  UNL1        0.0307
      7 BR         47.1224    9.2296  -30.3018 Br      1  UNL1       -0.0493
      8 C          46.5304   12.5062  -26.0765 C.ar    1  UNL1        0.0177
      9 C          46.8707   11.7861  -24.9330 C.ar    1  UNL1        0.0082
     10 C          46.8238   12.4576  -23.6979 C.ar    1  UNL1        0.0347
     11 BR         47.2790   11.5257  -22.0949 Br      1  UNL1       -0.0490
     12 C          46.4482   13.8186  -23.6374 C.ar    1  UNL1        0.0082
     13 C          46.1126   14.5224  -24.8082 C.ar    1  UNL1        0.0177
     14 C          46.1567   13.8348  -26.0249 C.ar    1  UNL1        0.0600
     15 N          45.8858   14.3125  -27.2653 N.ar    1  UNL1       -0.3243
     16 C          45.6254   13.3388  -32.2054 C.3     1  UNL1        0.0050
     17 C          46.2364   12.0402  -31.6894 C.3     1  UNL1        0.0269
     18 C          45.5161   15.6818  -27.6363 C.3     1  UNL1        0.1429
     19 C          46.7149   16.4128  -28.2618 C.3     1  UNL1        0.2027
     20 F          46.3016   17.1824  -29.3353 F       1  UNL1       -0.2334
     21 C          47.4575   17.2896  -27.2383 C.3     1  UNL1        0.1259
     22 N          48.8486   16.8622  -27.0593 N.pl3   1  UNL1       -0.3157
     23 H          49.5281   17.1069  -27.8148 H       1  UNL1        0.1483
     24 C          49.2933   15.9685  -26.0268 C.ar    1  UNL1        0.1317
     25 C          49.4862   16.4033  -24.7050 C.ar    1  UNL1        0.0343
     26 C          49.8982   15.4871  -23.7357 C.ar    1  UNL1        0.0077
     27 C          50.1201   14.1550  -24.0856 C.ar    1  UNL1        0.0578
     28 C          49.9325   13.7543  -25.4103 C.ar    1  UNL1        0.2261
     29 N          49.5338   14.6660  -26.3413 N.ar    1  UNL1       -0.1969
     30 O          50.1462   12.4185  -25.7614 O.3     1  UNL1       -0.4561
     31 C          50.6620   11.4575  -24.8483 C.3     1  UNL1        0.2542
@<TRIPOS>BOND
     1    16    17    1
     2    17     1    1
     3     1     2   ar
     4     2     3   ar
     5     3     4   ar
     6     4     5   ar
     7     5     6   ar
     8     6     7    1
     9     4     8   ar
    10     8     9   ar
    11     9    10   ar
    12    10    11    1
    13    10    12   ar
    14    12    13   ar
    15    13    14   ar
    16    14    15   ar
    17    15    18    1
    18    18    19    1
    19    19    20    1
    20    19    21    1
    21    21    22    1
    22    22    24    1
    23    24    25   ar
    24    25    26   ar
    25    26    27   ar
    26    27    28   ar
    27    28    30    1
    28    30    31    1
    29    28    29   ar
    30     6     1   ar
    31    14     8   ar
    32    29    24   ar
    33    15     3   ar
    34    22    23    1
@<TRIPOS>MOLECULE
*****
 31 34 0 0 0
SMALL
GASTEIGER

@<TRIPOS>ATOM
      1 C          50.5431   11.1096  -25.1562 C.ar    1  UNL1       -0.0145
      2 C          49.1976   11.3932  -25.4820 C.ar    1  UNL1        0.0134
      3 C          48.8464   12.7083  -25.7968 C.ar    1  UNL1        0.0597
      4 C          49.7887   13.7134  -25.7932 C.ar    1  UNL1        0.0177
      5 C          51.1196   13.4799  -25.4624 C.ar    1  UNL1        0.0079
      6 C          51.5012   12.1665  -25.1305 C.ar    1  UNL1        0.0307
      7 BR         53.3352   11.8690  -24.6527 Br      1  UNL1       -0.0493
      8 C          49.1346   14.8603  -26.1843 C.ar    1  UNL1        0.0177
      9 C          49.5921   16.1620  -26.3793 C.ar    1  UNL1        0.0082
     10 C          48.6647   17.1230  -26.8209 C.ar    1  UNL1        0.0347
     11 BR         49.2302   18.9241  -27.1069 Br      1  UNL1       -0.0490
     12 C          47.3196   16.7621  -27.0602 C.ar    1  UNL1        0.0082
     13 C          46.8854   15.4394  -26.8582 C.ar    1  UNL1        0.0177
     14 C          47.8203   14.5010  -26.4104 C.ar    1  UNL1        0.0600
     15 N          47.6267   13.1817  -26.1608 N.ar    1  UNL1       -0.3243
     16 C          50.1852    9.2408  -23.5374 C.3     1  UNL1        0.0050
     17 C          50.9164    9.6921  -24.7973 C.3     1  UNL1        0.0269
     18 C          46.3936   12.4087  -26.3372 C.3     1  UNL1        0.1429
     19 C          45.4945   12.5382  -25.0973 C.3     1  UNL1        0.2027
     20 F          44.2297   12.0449  -25.3673 F       1  UNL1       -0.2334
     21 C          46.0899   11.8226  -23.8721 C.3     1  UNL1        0.1259
     22 N          46.2865   12.7398  -22.7451 N.pl3   1  UNL1       -0.3157
     23 H          45.5469   12.7602  -22.0069 H       1  UNL1        0.1483
     24 C          47.3123   13.7431  -22.6887 C.ar    1  UNL1        0.1317
     25 C          48.6046   13.4540  -22.2198 C.ar    1  UNL1        0.0343
     26 C          49.5703   14.4618  -22.2073 C.ar    1  UNL1        0.0077
     27 C          49.2457   15.7435  -22.6525 C.ar    1  UNL1        0.0578
     28 C          47.9492   16.0049  -23.1013 C.ar    1  UNL1        0.2261
     29 N          47.0209   15.0074  -23.1012 N.ar    1  UNL1       -0.1969
     30 O          47.6241   17.2860  -23.5556 O.3     1  UNL1       -0.4561
     31 C          46.4226   17.9507  -23.1838 C.3     1  UNL1        0.2542
@<TRIPOS>BOND
     1    16    17    1
     2    17     1    1
     3     1     2   ar
     4     2     3   ar
     5     3     4   ar
     6     4     5   ar
     7     5     6   ar
     8     6     7    1
     9     4     8   ar
    10     8     9   ar
    11     9    10   ar
    12    10    11    1
    13    10    12   ar
    14    12    13   ar
    15    13    14   ar
    16    14    15   ar
    17    15    18    1
    18    18    19    1
    19    19    20    1
    20    19    21    1
    21    21    22    1
    22    22    24    1
    23    24    25   ar
    24    25    26   ar
    25    26    27   ar
    26    27    28   ar
    27    28    30    1
    28    30    31    1
    29    28    29   ar
    30     6     1   ar
    31    14     8   ar
    32    29    24   ar
    33    15     3   ar
    34    22    23    1
@<TRIPOS>MOLECULE
*****
 31 34 0 0 0
SMALL
GASTEIGER

@<TRIPOS>ATOM
      1 C          50.6004   11.0681  -24.9990 C.ar    1  UNL1       -0.0145
      2 C          49.2455   11.3425  -25.2919 C.ar    1  UNL1        0.0134
      3 C          48.8831   12.6494  -25.6276 C.ar    1  UNL1        0.0597
      4 C          49.8233   13.6552  -25.6755 C.ar    1  UNL1        0.0177
      5 C          51.1638   13.4309  -25.3783 C.ar    1  UNL1        0.0079
      6 C          51.5571   12.1262  -25.0266 C.ar    1  UNL1        0.0307
      7 BR         53.4048   11.8420  -24.5956 Br      1  UNL1       -0.0493
      8 C          49.1562   14.7918  -26.0746 C.ar    1  UNL1        0.0177
      9 C          49.6056   16.0889  -26.3138 C.ar    1  UNL1        0.0082
     10 C          48.6641   17.0382  -26.7509 C.ar    1  UNL1        0.0347
     11 BR         49.2181   18.8325  -27.0961 Br      1  UNL1       -0.0490
     12 C          47.3132   16.6704  -26.9420 C.ar    1  UNL1        0.0082
     13 C          46.8874   15.3524  -26.6959 C.ar    1  UNL1        0.0177
     14 C          47.8365   14.4260  -26.2535 C.ar    1  UNL1        0.0600
     15 N          47.6525   13.1128  -25.9669 N.ar    1  UNL1       -0.3243
     16 C          50.0044    9.0841  -23.6028 C.3     1  UNL1        0.0050
     17 C          50.9864    9.6600  -24.6175 C.3     1  UNL1        0.0269
     18 C          46.4160   12.3346  -26.0888 C.3     1  UNL1        0.1429
     19 C          45.4359   12.7006  -24.9627 C.3     1  UNL1        0.2027
     20 F          44.2073   12.1021  -25.1817 F       1  UNL1       -0.2334
     21 C          45.9742   12.3091  -23.5754 C.3     1  UNL1        0.1259
     22 N          46.5452   13.4582  -22.8660 N.pl3   1  UNL1       -0.3157
     23 H          45.9500   14.3128  -22.7770 H       1  UNL1        0.1483
     24 C          47.9207   13.5595  -22.4661 C.ar    1  UNL1        0.1317
     25 C          48.6291   14.7695  -22.5535 C.ar    1  UNL1        0.0343
     26 C          49.9584   14.8173  -22.1299 C.ar    1  UNL1        0.0077
     27 C          50.5726   13.6682  -21.6312 C.ar    1  UNL1        0.0578
     28 C          49.8473   12.4763  -21.5680 C.ar    1  UNL1        0.2261
     29 N          48.5520   12.4510  -21.9905 N.ar    1  UNL1       -0.1969
     30 O          50.4580   11.3260  -21.0610 O.3     1  UNL1       -0.4561
     31 C          49.8691   10.5306  -20.0392 C.3     1  UNL1        0.2542
@<TRIPOS>BOND
     1    16    17    1
     2    17     1    1
     3     1     2   ar
     4     2     3   ar
     5     3     4   ar
     6     4     5   ar
     7     5     6   ar
     8     6     7    1
     9     4     8   ar
    10     8     9   ar
    11     9    10   ar
    12    10    11    1
    13    10    12   ar
    14    12    13   ar
    15    13    14   ar
    16    14    15   ar
    17    15    18    1
    18    18    19    1
    19    19    20    1
    20    19    21    1
    21    21    22    1
    22    22    24    1
    23    24    25   ar
    24    25    26   ar
    25    26    27   ar
    26    27    28   ar
    27    28    30    1
    28    30    31    1
    29    28    29   ar
    30     6     1   ar
    31    14     8   ar
    32    29    24   ar
    33    15     3   ar
    34    22    23    1
@<TRIPOS>MOLECULE
*****
 31 34 0 0 0
SMALL
GASTEIGER

@<TRIPOS>ATOM
      1 C          46.4753   11.5752  -29.0227 C.ar    1  UNL1       -0.0145
      2 C          46.8297   11.4955  -27.6570 C.ar    1  UNL1        0.0134
      3 C          46.8382   12.6677  -26.8966 C.ar    1  UNL1        0.0597
      4 C          46.5071   13.8803  -27.4605 C.ar    1  UNL1        0.0177
      5 C          46.1686   14.0047  -28.8041 C.ar    1  UNL1        0.0079
      6 C          46.1614   12.8425  -29.5979 C.ar    1  UNL1        0.0307
      7 BR         45.7167   13.0381  -31.4538 Br      1  UNL1       -0.0493
      8 C          46.5705   14.8101  -26.4468 C.ar    1  UNL1        0.0177
      9 C          46.3139   16.1797  -26.4343 C.ar    1  UNL1        0.0082
     10 C          46.4398   16.8585  -25.2087 C.ar    1  UNL1        0.0347
     11 BR         46.1014   18.7358  -25.1263 Br      1  UNL1       -0.0490
     12 C          46.8086   16.1586  -24.0378 C.ar    1  UNL1        0.0082
     13 C          47.0587   14.7749  -24.0786 C.ar    1  UNL1        0.0177
     14 C          46.9370   14.1201  -25.3079 C.ar    1  UNL1        0.0600
     15 N          47.1195   12.8025  -25.5749 N.ar    1  UNL1       -0.3243
     16 C          47.6530    9.4138  -29.4494 C.3     1  UNL1        0.0050
     17 C          46.4858   10.3111  -29.8468 C.3     1  UNL1        0.0269
     18 C          47.4531   11.7349  -24.6273 C.3     1  UNL1        0.1429
     19 C          48.8221   11.9976  -23.9797 C.3     1  UNL1        0.2027
     20 F          48.9071   11.3535  -22.7576 F       1  UNL1       -0.2334
     21 C          49.9859   11.5631  -24.8876 C.3     1  UNL1        0.1259
     22 N          50.4235   12.6472  -25.7726 N.pl3   1  UNL1       -0.3157
     23 H          50.9128   12.3789  -26.6563 H       1  UNL1        0.1483
     24 C          50.4048   14.0384  -25.4170 C.ar    1  UNL1        0.1317
     25 C          50.7299   14.4752  -24.1220 C.ar    1  UNL1        0.0343
     26 C          50.7174   15.8415  -23.8365 C.ar    1  UNL1        0.0077
     27 C          50.3783   16.7583  -24.8319 C.ar    1  UNL1        0.0578
     28 C          50.0472   16.2940  -26.1069 C.ar    1  UNL1        0.2261
     29 N          50.0619   14.9557  -26.3628 N.ar    1  UNL1       -0.1969
     30 O          49.7152   17.2112  -27.1078 O.3     1  UNL1       -0.4561
     31 C          49.5989   18.6074  -26.8622 C.3     1  UNL1        0.2542
@<TRIPOS>BOND
     1    16    17    1
     2    17     1    1
     3     1     2   ar
     4     2     3   ar
     5     3     4   ar
     6     4     5   ar
     7     5     6   ar
     8     6     7    1
     9     4     8   ar
    10     8     9   ar
    11     9    10   ar
    12    10    11    1
    13    10    12   ar
    14    12    13   ar
    15    13    14   ar
    16    14    15   ar
    17    15    18    1
    18    18    19    1
    19    19    20    1
    20    19    21    1
    21    21    22    1
    22    22    24    1
    23    24    25   ar
    24    25    26   ar
    25    26    27   ar
    26    27    28   ar
    27    28    30    1
    28    30    31    1
    29    28    29   ar
    30     6     1   ar
    31    14     8   ar
    32    29    24   ar
    33    15     3   ar
    34    22    23    1
@<TRIPOS>MOLECULE
*****
 31 34 0 0 0
SMALL
GASTEIGER

@<TRIPOS>ATOM
      1 C          47.4728   12.5621  -21.0015 C.ar    1  UNL1       -0.0145
      2 C          46.8129   12.8604  -22.2149 C.ar    1  UNL1        0.0134
      3 C          47.3641   13.8286  -23.0581 C.ar    1  UNL1        0.0597
      4 C          48.5286   14.4824  -22.7199 C.ar    1  UNL1        0.0177
      5 C          49.2002   14.2305  -21.5278 C.ar    1  UNL1        0.0079
      6 C          48.6632   13.2675  -20.6532 C.ar    1  UNL1        0.0307
      7 BR         49.5895   12.9523  -19.0031 Br      1  UNL1       -0.0493
      8 C          48.8189   15.3261  -23.7686 C.ar    1  UNL1        0.0177
      9 C          49.8816   16.2022  -23.9806 C.ar    1  UNL1        0.0082
     10 C          49.9105   16.9159  -25.1924 C.ar    1  UNL1        0.0347
     11 BR         51.3408   18.1314  -25.5421 Br      1  UNL1       -0.0490
     12 C          48.8916   16.7337  -26.1544 C.ar    1  UNL1        0.0082
     13 C          47.8317   15.8401  -25.9156 C.ar    1  UNL1        0.0177
     14 C          47.8162   15.1470  -24.7014 C.ar    1  UNL1        0.0600
     15 N          46.9062   14.2385  -24.2691 N.ar    1  UNL1       -0.3243
     16 C          45.5617   12.0416  -19.4792 C.3     1  UNL1        0.0050
     17 C          46.8653   11.5302  -20.0831 C.3     1  UNL1        0.0269
     18 C          45.7338   13.7330  -24.9897 C.3     1  UNL1        0.1429
     19 C          45.9848   12.3015  -25.4901 C.3     1  UNL1        0.2027
     20 F          44.7933   11.7105  -25.8731 F       1  UNL1       -0.2334
     21 C          46.9916   12.2621  -26.6530 C.3     1  UNL1        0.1259
     22 N          48.1144   11.3612  -26.3742 N.pl3   1  UNL1       -0.3157
     23 H          48.0364   10.3759  -26.7141 H       1  UNL1        0.1483
     24 C          49.2106   11.6810  -25.5034 C.ar    1  UNL1        0.1317
     25 C          50.1798   12.6354  -25.8545 C.ar    1  UNL1        0.0343
     26 C          51.2123   12.9241  -24.9606 C.ar    1  UNL1        0.0077
     27 C          51.2776   12.2624  -23.7341 C.ar    1  UNL1        0.0578
     28 C          50.3071   11.3092  -23.4175 C.ar    1  UNL1        0.2261
     29 N          49.3102   11.0399  -24.3066 N.ar    1  UNL1       -0.1969
     30 O          50.3658   10.6511  -22.1860 O.3     1  UNL1       -0.4561
     31 C          49.6250    9.4683  -21.9112 C.3     1  UNL1        0.2542
@<TRIPOS>BOND
     1    16    17    1
     2    17     1    1
     3     1     2   ar
     4     2     3   ar
     5     3     4   ar
     6     4     5   ar
     7     5     6   ar
     8     6     7    1
     9     4     8   ar
    10     8     9   ar
    11     9    10   ar
    12    10    11    1
    13    10    12   ar
    14    12    13   ar
    15    13    14   ar
    16    14    15   ar
    17    15    18    1
    18    18    19    1
    19    19    20    1
    20    19    21    1
    21    21    22    1
    22    22    24    1
    23    24    25   ar
    24    25    26   ar
    25    26    27   ar
    26    27    28   ar
    27    28    30    1
    28    30    31    1
    29    28    29   ar
    30     6     1   ar
    31    14     8   ar
    32    29    24   ar
    33    15     3   ar
    34    22    23    1
@<TRIPOS>MOLECULE
*****
 31 34 0 0 0
SMALL
GASTEIGER

@<TRIPOS>ATOM
      1 C          46.8634   16.0594  -24.4944 C.ar    1  UNL1       -0.0145
      2 C          47.0811   14.6637  -24.5330 C.ar    1  UNL1        0.0134
      3 C          46.8481   13.9812  -25.7297 C.ar    1  UNL1        0.0597
      4 C          46.4160   14.6499  -26.8540 C.ar    1  UNL1        0.0177
      5 C          46.1739   16.0198  -26.8539 C.ar    1  UNL1        0.0079
      6 C          46.3898   16.7327  -25.6598 C.ar    1  UNL1        0.0307
      7 BR         46.0262   18.6163  -25.6723 Br      1  UNL1       -0.0493
      8 C          46.3283   13.7091  -27.8557 C.ar    1  UNL1        0.0177
      9 C          45.9706   13.8215  -29.1978 C.ar    1  UNL1        0.0082
     10 C          46.0109   12.6572  -29.9862 C.ar    1  UNL1        0.0347
     11 BR         45.5325   12.7462  -31.8324 Br      1  UNL1       -0.0490
     12 C          46.4092   11.4245  -29.4217 C.ar    1  UNL1        0.0082
     13 C          46.7683   11.3403  -28.0642 C.ar    1  UNL1        0.0177
     14 C          46.7131   12.5068  -27.2953 C.ar    1  UNL1        0.0600
     15 N          47.0212   12.6582  -25.9829 N.ar    1  UNL1       -0.3243
     16 C          48.1468   16.0773  -22.3512 C.3     1  UNL1        0.0050
     17 C          47.0967   16.7915  -23.1956 C.3     1  UNL1        0.0269
     18 C          47.5253   11.6384  -25.0581 C.3     1  UNL1        0.1429
     19 C          49.0364   11.4349  -25.2522 C.3     1  UNL1        0.2027
     20 F          49.3283   11.2514  -26.5927 F       1  UNL1       -0.2334
     21 C          49.8566   12.6087  -24.6891 C.3     1  UNL1        0.1259
     22 N          50.2982   13.5241  -25.7458 N.pl3   1  UNL1       -0.3157
     23 H          50.7304   13.1016  -26.5986 H       1  UNL1        0.1483
     24 C          50.3602   14.9519  -25.6049 C.ar    1  UNL1        0.1317
     25 C          51.0051   15.5601  -24.5151 C.ar    1  UNL1        0.0343
     26 C          51.0552   16.9530  -24.4391 C.ar    1  UNL1        0.0077
     27 C          50.4627   17.7272  -25.4370 C.ar    1  UNL1        0.0578
     28 C          49.8175   17.0948  -26.5021 C.ar    1  UNL1        0.2261
     29 N          49.7769   15.7337  -26.5546 N.ar    1  UNL1       -0.1969
     30 O          49.2304   17.8682  -27.5073 O.3     1  UNL1       -0.4561
     31 C          49.1845   19.2890  -27.4550 C.3     1  UNL1        0.2542
@<TRIPOS>BOND
     1    16    17    1
     2    17     1    1
     3     1     2   ar
     4     2     3   ar
     5     3     4   ar
     6     4     5   ar
     7     5     6   ar
     8     6     7    1
     9     4     8   ar
    10     8     9   ar
    11     9    10   ar
    12    10    11    1
    13    10    12   ar
    14    12    13   ar
    15    13    14   ar
    16    14    15   ar
    17    15    18    1
    18    18    19    1
    19    19    20    1
    20    19    21    1
    21    21    22    1
    22    22    24    1
    23    24    25   ar
    24    25    26   ar
    25    26    27   ar
    26    27    28   ar
    27    28    30    1
    28    30    31    1
    29    28    29   ar
    30     6     1   ar
    31    14     8   ar
    32    29    24   ar
    33    15     3   ar
    34    22    23    1
@<TRIPOS>MOLECULE
*****
 31 34 0 0 0
SMALL
GASTEIGER

@<TRIPOS>ATOM
      1 C          50.4801    7.1177  -31.4687 C.ar    1  UNL1       -0.0145
      2 C          49.4539    7.7096  -30.6983 C.ar    1  UNL1        0.0134
      3 C          49.8067    8.4550  -29.5705 C.ar    1  UNL1        0.0597
      4 C          51.1272    8.6152  -29.2118 C.ar    1  UNL1        0.0177
      5 C          52.1662    8.0358  -29.9329 C.ar    1  UNL1        0.0079
      6 C          51.8410    7.2704  -31.0684 C.ar    1  UNL1        0.0307
      7 BR         53.2857    6.4586  -32.0351 Br      1  UNL1       -0.0493
      8 C          51.1317    9.4267  -28.0993 C.ar    1  UNL1        0.0177
      9 C          52.1785    9.9353  -27.3330 C.ar    1  UNL1        0.0082
     10 C          51.8521   10.7787  -26.2556 C.ar    1  UNL1        0.0347
     11 BR         53.2419   11.5077  -25.1682 Br      1  UNL1       -0.0490
     12 C          50.5031   11.0946  -25.9777 C.ar    1  UNL1        0.0082
     13 C          49.4660   10.5696  -26.7699 C.ar    1  UNL1        0.0177
     14 C          49.8105    9.7261  -27.8304 C.ar    1  UNL1        0.0600
     15 N          48.9838    9.1215  -28.7202 N.ar    1  UNL1       -0.3243
     16 C          48.5910    6.0520  -32.7082 C.3     1  UNL1        0.0050
     17 C          50.0959    6.2966  -32.6751 C.3     1  UNL1        0.0269
     18 C          47.5251    9.2373  -28.8086 C.3     1  UNL1        0.1429
     19 C          47.1320   10.4080  -29.7238 C.3     1  UNL1        0.2027
     20 F          46.3752    9.9519  -30.7891 F       1  UNL1       -0.2334
     21 C          46.3670   11.5061  -28.9644 C.3     1  UNL1        0.1259
     22 N          46.0217   11.0895  -27.6017 N.pl3   1  UNL1       -0.3157
     23 H          45.7207   10.0982  -27.4634 H       1  UNL1        0.1483
     24 C          45.8776   11.9906  -26.4929 C.ar    1  UNL1        0.1317
     25 C          44.8034   11.8901  -25.5930 C.ar    1  UNL1        0.0343
     26 C          44.7239   12.7784  -24.5191 C.ar    1  UNL1        0.0077
     27 C          45.7029   13.7581  -24.3512 C.ar    1  UNL1        0.0578
     28 C          46.7524   13.8421  -25.2689 C.ar    1  UNL1        0.2261
     29 N          46.8085   12.9675  -26.3123 N.ar    1  UNL1       -0.1969
     30 O          47.7387   14.8175  -25.0979 O.3     1  UNL1       -0.4561
     31 C          49.0817   14.6355  -25.5299 C.3     1  UNL1        0.2542
@<TRIPOS>BOND
     1    16    17    1
     2    17     1    1
     3     1     2   ar
     4     2     3   ar
     5     3     4   ar
     6     4     5   ar
     7     5     6   ar
     8     6     7    1
     9     4     8   ar
    10     8     9   ar
    11     9    10   ar
    12    10    11    1
    13    10    12   ar
    14    12    13   ar
    15    13    14   ar
    16    14    15   ar
    17    15    18    1
    18    18    19    1
    19    19    20    1
    20    19    21    1
    21    21    22    1
    22    22    24    1
    23    24    25   ar
    24    25    26   ar
    25    26    27   ar
    26    27    28   ar
    27    28    30    1
    28    30    31    1
    29    28    29   ar
    30     6     1   ar
    31    14     8   ar
    32    29    24   ar
    33    15     3   ar
    34    22    23    1
@<TRIPOS>MOLECULE
*****
 31 34 0 0 0
SMALL
GASTEIGER

@<TRIPOS>ATOM
      1 C          47.9025   12.3038  -21.7325 C.ar    1  UNL1       -0.0145
      2 C          47.4750   13.5032  -22.3455 C.ar    1  UNL1        0.0134
      3 C          47.2306   13.5034  -23.7212 C.ar    1  UNL1        0.0597
      4 C          47.3995   12.3600  -24.4709 C.ar    1  UNL1        0.0177
      5 C          47.8345   11.1637  -23.9096 C.ar    1  UNL1        0.0079
      6 C          48.0988   11.1355  -22.5275 C.ar    1  UNL1        0.0307
      7 BR         48.7219    9.4838  -21.7765 Br      1  UNL1       -0.0493
      8 C          47.0381   12.6837  -25.7596 C.ar    1  UNL1        0.0177
      9 C          46.9874   11.9184  -26.9230 C.ar    1  UNL1        0.0082
     10 C          46.5360   12.5439  -28.0993 C.ar    1  UNL1        0.0347
     11 BR         46.4434   11.5485  -29.7260 Br      1  UNL1       -0.0490
     12 C          46.1449   13.9017  -28.0827 C.ar    1  UNL1        0.0082
     13 C          46.2032   14.6500  -26.8930 C.ar    1  UNL1        0.0177
     14 C          46.6632   14.0127  -25.7366 C.ar    1  UNL1        0.0600
     15 N          46.7915   14.5330  -24.4902 N.ar    1  UNL1       -0.3243
     16 C          46.9141   12.0316  -19.4544 C.3     1  UNL1        0.0050
     17 C          48.1848   12.3108  -20.2501 C.3     1  UNL1        0.0269
     18 C          46.4416   15.8848  -24.0440 C.3     1  UNL1        0.1429
     19 C          47.7073   16.7398  -23.8717 C.3     1  UNL1        0.2027
     20 F          48.3679   16.3909  -22.7065 F       1  UNL1       -0.2334
     21 C          48.6583   16.6168  -25.0750 C.3     1  UNL1        0.1259
     22 N          50.0105   16.2246  -24.6656 N.pl3   1  UNL1       -0.3157
     23 H          50.7375   16.9744  -24.6258 H       1  UNL1        0.1483
     24 C          50.4463   14.8649  -24.5121 C.ar    1  UNL1        0.1317
     25 C          50.5204   13.9842  -25.6041 C.ar    1  UNL1        0.0343
     26 C          50.9724   12.6790  -25.4022 C.ar    1  UNL1        0.0077
     27 C          51.3396   12.2587  -24.1236 C.ar    1  UNL1        0.0578
     28 C          51.2434   13.1525  -23.0547 C.ar    1  UNL1        0.2261
     29 N          50.7959   14.4208  -23.2735 N.ar    1  UNL1       -0.1969
     30 O          51.6186   12.7361  -21.7744 O.3     1  UNL1       -0.4561
     31 C          51.8305   13.6464  -20.7021 C.3     1  UNL1        0.2542
@<TRIPOS>BOND
     1    16    17    1
     2    17     1    1
     3     1     2   ar
     4     2     3   ar
     5     3     4   ar
     6     4     5   ar
     7     5     6   ar
     8     6     7    1
     9     4     8   ar
    10     8     9   ar
    11     9    10   ar
    12    10    11    1
    13    10    12   ar
    14    12    13   ar
    15    13    14   ar
    16    14    15   ar
    17    15    18    1
    18    18    19    1
    19    19    20    1
    20    19    21    1
    21    21    22    1
    22    22    24    1
    23    24    25   ar
    24    25    26   ar
    25    26    27   ar
    26    27    28   ar
    27    28    30    1
    28    30    31    1
    29    28    29   ar
    30     6     1   ar
    31    14     8   ar
    32    29    24   ar
    33    15     3   ar
    34    22    23    1
@<TRIPOS>MOLECULE
*****
 31 34 0 0 0
SMALL
GASTEIGER

@<TRIPOS>ATOM
      1 C          49.2671   16.9280  -25.7785 C.ar    1  UNL1       -0.0145
      2 C          48.1984   16.0252  -25.5793 C.ar    1  UNL1        0.0134
      3 C          48.2051   15.2188  -24.4383 C.ar    1  UNL1        0.0597
      4 C          49.2296   15.2983  -23.5207 C.ar    1  UNL1        0.0177
      5 C          50.3080   16.1612  -23.6873 C.ar    1  UNL1        0.0079
      6 C          50.3341   16.9788  -24.8325 C.ar    1  UNL1        0.0307
      7 BR         51.8417   18.1437  -25.0574 Br      1  UNL1       -0.0493
      8 C          48.9145   14.4181  -22.5097 C.ar    1  UNL1        0.0177
      9 C          49.5714   14.1051  -21.3213 C.ar    1  UNL1        0.0082
     10 C          48.9655   13.1679  -20.4651 C.ar    1  UNL1        0.0347
     11 BR         49.8161   12.6974  -18.8217 Br      1  UNL1       -0.0490
     12 C          47.7289   12.5779  -20.8107 C.ar    1  UNL1        0.0082
     13 C          47.0858   12.9147  -22.0157 C.ar    1  UNL1        0.0177
     14 C          47.7086   13.8415  -22.8573 C.ar    1  UNL1        0.0600
     15 N          47.2687   14.3151  -24.0501 N.ar    1  UNL1       -0.3243
     16 C          48.7566   19.1874  -26.7139 C.3     1  UNL1        0.0050
     17 C          49.2679   17.7840  -27.0212 C.3     1  UNL1        0.0269
     18 C          46.0098   13.9968  -24.7304 C.3     1  UNL1        0.1429
     19 C          46.0587   12.5771  -25.3175 C.3     1  UNL1        0.2027
     20 F          44.7861   12.1553  -25.6616 F       1  UNL1       -0.2334
     21 C          46.9929   12.4857  -26.5367 C.3     1  UNL1        0.1259
     22 N          48.0654   11.5071  -26.3319 N.pl3   1  UNL1       -0.3157
     23 H          47.9044   10.5363  -26.6840 H       1  UNL1        0.1483
     24 C          49.2233   11.7358  -25.5138 C.ar    1  UNL1        0.1317
     25 C          50.2251   12.6466  -25.8883 C.ar    1  UNL1        0.0343
     26 C          51.3189   12.8471  -25.0446 C.ar    1  UNL1        0.0077
     27 C          51.4122   12.1412  -23.8449 C.ar    1  UNL1        0.0578
     28 C          50.4073   11.2328  -23.5047 C.ar    1  UNL1        0.2261
     29 N          49.3503   11.0496  -24.3449 N.ar    1  UNL1       -0.1969
     30 O          50.4944   10.5306  -22.2994 O.3     1  UNL1       -0.4561
     31 C          49.5859    9.4945  -21.9468 C.3     1  UNL1        0.2542
@<TRIPOS>BOND
     1    16    17    1
     2    17     1    1
     3     1     2   ar
     4     2     3   ar
     5     3     4   ar
     6     4     5   ar
     7     5     6   ar
     8     6     7    1
     9     4     8   ar
    10     8     9   ar
    11     9    10   ar
    12    10    11    1
    13    10    12   ar
    14    12    13   ar
    15    13    14   ar
    16    14    15   ar
    17    15    18    1
    18    18    19    1
    19    19    20    1
    20    19    21    1
    21    21    22    1
    22    22    24    1
    23    24    25   ar
    24    25    26   ar
    25    26    27   ar
    26    27    28   ar
    27    28    30    1
    28    30    31    1
    29    28    29   ar
    30     6     1   ar
    31    14     8   ar
    32    29    24   ar
    33    15     3   ar
    34    22    23    1
