@<TRIPOS>MOLECULE
*****
 50 55 0 0 0
SMALL
GASTEIGER

@<TRIPOS>ATOM
      1 O         -63.0872  -54.7825  -22.5312 O.2     1  UNL1       -0.2701
      2 C         -64.0290  -53.9817  -22.7830 C.2     1  UNL1        0.2483
      3 N         -65.3897  -54.3948  -22.5799 N.am    1  UNL1       -0.2945
      4 H         -66.1578  -53.8050  -22.9722 H       1  UNL1        0.1501
      5 C         -63.7141  -52.6376  -23.3158 C.ar    1  UNL1        0.0808
      6 C         -64.4992  -52.1003  -24.3494 C.ar    1  UNL1        0.0080
      7 C         -64.2237  -50.8313  -24.8646 C.ar    1  UNL1        0.0148
      8 C         -63.1493  -50.0788  -24.3646 C.ar    1  UNL1        0.0502
      9 C         -62.3526  -50.6208  -23.3450 C.ar    1  UNL1        0.0443
     10 C         -62.6261  -51.8898  -22.8250 C.ar    1  UNL1        0.1457
     11 F         -61.7974  -52.3984  -21.8783 F       1  UNL1       -0.2040
     12 N         -62.8606  -48.7689  -24.8907 N.pl3   1  UNL1       -0.3034
     13 C         -61.5461  -48.1557  -24.6778 C.3     1  UNL1        0.1123
     14 C         -61.1253  -47.3609  -25.9148 C.3     1  UNL1        0.1142
     15 N         -62.2239  -46.5012  -26.3829 N.pl3   1  UNL1       -0.2829
     16 C         -63.5628  -47.0890  -26.5474 C.3     1  UNL1        0.1469
     17 I         -63.6063  -48.3286  -28.2988 I       1  UNL1       -0.0512
     18 C         -63.9583  -47.8887  -25.3034 C.3     1  UNL1        0.1216
     19 C         -61.9513  -45.2055  -26.9559 C.ar    1  UNL1        0.1323
     20 C         -60.7171  -44.9200  -27.5625 C.ar    1  UNL1        0.0343
     21 C         -60.4941  -43.6563  -28.1109 C.ar    1  UNL1        0.0083
     22 C         -61.5040  -42.6832  -28.0785 C.ar    1  UNL1        0.0906
     23 C         -62.7164  -43.0020  -27.4477 C.ar    1  UNL1        0.1041
     24 N         -62.9097  -44.2388  -26.9182 N.ar    1  UNL1       -0.2292
     25 C         -61.2586  -41.2992  -28.6230 C.3     1  UNL1        0.4200
     26 F         -61.2537  -41.3126  -30.0071 F       1  UNL1       -0.1658
     27 F         -62.2600  -40.4534  -28.1841 F       1  UNL1       -0.1658
     28 F         -60.0365  -40.8140  -28.1904 F       1  UNL1       -0.1658
     29 C         -65.7249  -55.6382  -21.8761 C.3     1  UNL1        0.1535
     30 C         -66.6421  -55.3388  -20.7221 C.2     1  UNL1        0.2443
     31 O         -66.3363  -55.7372  -19.5646 O.2     1  UNL1       -0.2730
     32 N         -67.8110  -54.5305  -20.9284 N.am    1  UNL1       -0.2825
     33 H         -67.8544  -53.9497  -21.7965 H       1  UNL1        0.1549
     34 C         -68.8761  -54.3979  -19.9718 C.ar    1  UNL1        0.0535
     35 C         -70.0100  -53.6436  -20.3032 C.ar    1  UNL1        0.0353
     36 C         -71.0578  -53.5308  -19.3863 C.ar    1  UNL1        0.1002
     37 N         -70.9843  -54.1633  -18.1855 N.ar    1  UNL1       -0.2422
     38 C         -69.9068  -54.9178  -17.8433 C.ar    1  UNL1        0.1002
     39 C         -68.8364  -55.0560  -18.7306 C.ar    1  UNL1        0.0353
     40 C         -66.3956  -56.6490  -22.8231 C.3     1  UNL1        0.0569
     41 C         -67.3629  -55.9687  -23.7480 C.ar    1  UNL1       -0.0017
     42 C         -67.0491  -55.2426  -24.8933 C.ar    1  UNL1        0.0681
     43 N         -68.1779  -54.8300  -25.5143 N.ar    1  UNL1       -0.3523
     44 C         -69.2001  -55.2968  -24.7763 C.ar    1  UNL1        0.0563
     45 C         -70.5630  -55.1412  -25.0257 C.ar    1  UNL1        0.0170
     46 C         -71.4679  -55.7315  -24.1243 C.ar    1  UNL1        0.0015
     47 C         -70.9958  -56.4578  -23.0083 C.ar    1  UNL1        0.0001
     48 C         -69.6145  -56.5997  -22.7826 C.ar    1  UNL1        0.0012
     49 C         -68.7425  -56.0003  -23.6917 C.ar    1  UNL1        0.0131
     50 H         -68.2383  -54.2727  -26.3953 H       1  UNL1        0.1660
@<TRIPOS>BOND
     1     1     2    2
     2     2     3   am
     3     3    29    1
     4    29    40    1
     5    40    41    1
     6    41    42   ar
     7    42    43   ar
     8    43    44   ar
     9    44    45   ar
    10    45    46   ar
    11    46    47   ar
    12    47    48   ar
    13    48    49   ar
    14    29    30    1
    15    30    31    2
    16    30    32   am
    17    32    34    1
    18    34    35   ar
    19    35    36   ar
    20    36    37   ar
    21    37    38   ar
    22    38    39   ar
    23     2     5    1
    24     5     6   ar
    25     6     7   ar
    26     7     8   ar
    27     8    12    1
    28    12    13    1
    29    13    14    1
    30    14    15    1
    31    15    19    1
    32    19    20   ar
    33    20    21   ar
    34    21    22   ar
    35    22    25    1
    36    25    26    1
    37    25    27    1
    38    25    28    1
    39    22    23   ar
    40    23    24   ar
    41    15    16    1
    42    16    17    1
    43    16    18    1
    44     8     9   ar
    45     9    10   ar
    46    10    11    1
    47    49    41   ar
    48    39    34   ar
    49    10     5   ar
    50    49    44   ar
    51    18    12    1
    52    24    19   ar
    53     3     4    1
    54    43    50    1
    55    32    33    1
@<TRIPOS>MOLECULE
*****
 50 55 0 0 0
SMALL
GASTEIGER

@<TRIPOS>ATOM
      1 O         -60.9117  -42.3474  -19.5313 O.2     1  UNL1       -0.2701
      2 C         -61.7457  -41.9681  -20.3986 C.2     1  UNL1        0.2483
      3 N         -62.9705  -41.3424  -19.9842 N.am    1  UNL1       -0.2945
      4 H         -63.7320  -41.2129  -20.6879 H       1  UNL1        0.1501
      5 C         -61.4601  -42.2054  -21.8310 C.ar    1  UNL1        0.0808
      6 C         -62.5013  -42.1144  -22.7696 C.ar    1  UNL1        0.0080
      7 C         -62.2541  -42.3293  -24.1278 C.ar    1  UNL1        0.0148
      8 C         -60.9626  -42.6520  -24.5731 C.ar    1  UNL1        0.0502
      9 C         -59.9249  -42.7614  -23.6354 C.ar    1  UNL1        0.0443
     10 C         -60.1674  -42.5449  -22.2753 C.ar    1  UNL1        0.1457
     11 F         -59.1474  -42.7150  -21.3965 F       1  UNL1       -0.2040
     12 N         -60.7008  -42.8737  -25.9725 N.pl3   1  UNL1       -0.3034
     13 C         -60.4553  -44.2280  -26.4771 C.3     1  UNL1        0.1123
     14 C         -61.0797  -44.3987  -27.8628 C.3     1  UNL1        0.1142
     15 N         -60.7399  -43.2621  -28.7333 N.pl3   1  UNL1       -0.2829
     16 C         -60.9273  -41.8958  -28.2202 C.3     1  UNL1        0.1469
     17 I         -63.0177  -41.4119  -28.1771 I       1  UNL1       -0.0512
     18 C         -60.3053  -41.7511  -26.8290 C.3     1  UNL1        0.1216
     19 C         -60.5202  -43.4571  -30.1458 C.ar    1  UNL1        0.1323
     20 C         -59.4963  -44.2952  -30.6169 C.ar    1  UNL1        0.0343
     21 C         -59.3198  -44.4628  -31.9911 C.ar    1  UNL1        0.0083
     22 C         -60.1739  -43.8175  -32.8977 C.ar    1  UNL1        0.0906
     23 C         -61.1733  -42.9747  -32.3871 C.ar    1  UNL1        0.1041
     24 N         -61.3245  -42.8249  -31.0447 N.ar    1  UNL1       -0.2292
     25 C         -59.9630  -43.9509  -34.3843 C.3     1  UNL1        0.4200
     26 F         -59.2600  -45.1071  -34.6760 F       1  UNL1       -0.1658
     27 F         -61.1918  -43.9992  -35.0156 F       1  UNL1       -0.1658
     28 F         -59.2460  -42.8730  -34.8742 F       1  UNL1       -0.1658
     29 C         -63.1941  -40.9208  -18.5963 C.3     1  UNL1        0.1535
     30 C         -63.2021  -39.4188  -18.5153 C.2     1  UNL1        0.2443
     31 O         -62.8935  -38.8525  -17.4309 O.2     1  UNL1       -0.2730
     32 N         -63.4751  -38.6405  -19.6908 N.am    1  UNL1       -0.2825
     33 H         -63.3928  -39.1147  -20.6188 H       1  UNL1        0.1549
     34 C         -63.7588  -37.2311  -19.6741 C.ar    1  UNL1        0.0535
     35 C         -64.9893  -36.7817  -19.1758 C.ar    1  UNL1        0.0353
     36 C         -65.2607  -35.4120  -19.1359 C.ar    1  UNL1        0.1002
     37 N         -64.3289  -34.5194  -19.5629 N.ar    1  UNL1       -0.2422
     38 C         -63.1193  -34.9234  -20.0330 C.ar    1  UNL1        0.1002
     39 C         -62.8076  -36.2842  -20.0911 C.ar    1  UNL1        0.0353
     40 C         -64.5228  -41.4767  -18.0541 C.3     1  UNL1        0.0569
     41 C         -65.3306  -42.1166  -19.1459 C.ar    1  UNL1       -0.0017
     42 C         -65.6661  -43.4631  -19.2530 C.ar    1  UNL1        0.0681
     43 N         -66.4586  -43.6676  -20.3301 N.ar    1  UNL1       -0.3523
     44 C         -66.6332  -42.4614  -20.8976 C.ar    1  UNL1        0.0563
     45 C         -67.3903  -42.1610  -22.0292 C.ar    1  UNL1        0.0170
     46 C         -67.4493  -40.8176  -22.4432 C.ar    1  UNL1        0.0015
     47 C         -66.7603  -39.8158  -21.7239 C.ar    1  UNL1        0.0001
     48 C         -66.0050  -40.1481  -20.5845 C.ar    1  UNL1        0.0012
     49 C         -65.9629  -41.4887  -20.2010 C.ar    1  UNL1        0.0131
     50 H         -66.8613  -44.5779  -20.6458 H       1  UNL1        0.1660
@<TRIPOS>BOND
     1     1     2    2
     2     2     3   am
     3     3    29    1
     4    29    40    1
     5    40    41    1
     6    41    42   ar
     7    42    43   ar
     8    43    44   ar
     9    44    45   ar
    10    45    46   ar
    11    46    47   ar
    12    47    48   ar
    13    48    49   ar
    14    29    30    1
    15    30    31    2
    16    30    32   am
    17    32    34    1
    18    34    35   ar
    19    35    36   ar
    20    36    37   ar
    21    37    38   ar
    22    38    39   ar
    23     2     5    1
    24     5     6   ar
    25     6     7   ar
    26     7     8   ar
    27     8    12    1
    28    12    13    1
    29    13    14    1
    30    14    15    1
    31    15    19    1
    32    19    20   ar
    33    20    21   ar
    34    21    22   ar
    35    22    25    1
    36    25    26    1
    37    25    27    1
    38    25    28    1
    39    22    23   ar
    40    23    24   ar
    41    15    16    1
    42    16    17    1
    43    16    18    1
    44     8     9   ar
    45     9    10   ar
    46    10    11    1
    47    49    41   ar
    48    39    34   ar
    49    10     5   ar
    50    49    44   ar
    51    18    12    1
    52    24    19   ar
    53     3     4    1
    54    43    50    1
    55    32    33    1
@<TRIPOS>MOLECULE
*****
 50 55 0 0 0
SMALL
GASTEIGER

@<TRIPOS>ATOM
      1 O         -60.5010  -46.8637  -25.4569 O.2     1  UNL1       -0.2701
      2 C         -61.6199  -46.2992  -25.6018 C.2     1  UNL1        0.2483
      3 N         -62.5758  -46.8383  -26.5286 N.am    1  UNL1       -0.2945
      4 H         -63.4085  -46.2612  -26.7844 H       1  UNL1        0.1501
      5 C         -61.9152  -45.0686  -24.8349 C.ar    1  UNL1        0.0808
      6 C         -62.1715  -43.8695  -25.5204 C.ar    1  UNL1        0.0080
      7 C         -62.4576  -42.6965  -24.8175 C.ar    1  UNL1        0.0148
      8 C         -62.4809  -42.6964  -23.4140 C.ar    1  UNL1        0.0502
      9 C         -62.2073  -43.8885  -22.7268 C.ar    1  UNL1        0.0443
     10 C         -61.9226  -45.0654  -23.4265 C.ar    1  UNL1        0.1457
     11 F         -61.6097  -46.1825  -22.7223 F       1  UNL1       -0.2040
     12 N         -62.7764  -41.4903  -22.6831 N.pl3   1  UNL1       -0.3034
     13 C         -63.9343  -40.6672  -23.0447 C.3     1  UNL1        0.1123
     14 C         -64.5830  -40.0838  -21.7885 C.3     1  UNL1        0.1142
     15 N         -63.5673  -39.4992  -20.8987 N.pl3   1  UNL1       -0.2829
     16 C         -62.3713  -40.2915  -20.5716 C.3     1  UNL1        0.1469
     17 I         -62.8831  -41.8490  -19.1867 I       1  UNL1       -0.0512
     18 C         -61.7457  -40.8747  -21.8412 C.3     1  UNL1        0.1216
     19 C         -63.8604  -38.3186  -20.1230 C.ar    1  UNL1        0.1323
     20 C         -64.9698  -38.2663  -19.2632 C.ar    1  UNL1        0.0343
     21 C         -65.2162  -37.1080  -18.5248 C.ar    1  UNL1        0.0083
     22 C         -64.3486  -36.0099  -18.6216 C.ar    1  UNL1        0.0906
     23 C         -63.2617  -36.0955  -19.5052 C.ar    1  UNL1        0.1041
     24 N         -63.0433  -37.2331  -20.2161 N.ar    1  UNL1       -0.2292
     25 C         -64.6308  -34.7356  -17.8674 C.3     1  UNL1        0.4200
     26 F         -64.9308  -35.0076  -16.5438 F       1  UNL1       -0.1658
     27 F         -63.5158  -33.9202  -17.9185 F       1  UNL1       -0.1658
     28 F         -65.7057  -34.0657  -18.4261 F       1  UNL1       -0.1658
     29 C         -62.3923  -48.1535  -27.1534 C.3     1  UNL1        0.1535
     30 C         -62.5340  -49.2341  -26.1167 C.2     1  UNL1        0.2443
     31 O         -63.6674  -49.7451  -25.9015 O.2     1  UNL1       -0.2730
     32 N         -61.3695  -49.7362  -25.4430 N.am    1  UNL1       -0.2825
     33 H         -60.4366  -49.5411  -25.8722 H       1  UNL1        0.1549
     34 C         -61.4145  -50.5692  -24.2721 C.ar    1  UNL1        0.0535
     35 C         -62.6536  -50.8840  -23.6975 C.ar    1  UNL1        0.0353
     36 C         -62.7044  -51.7118  -22.5735 C.ar    1  UNL1        0.1002
     37 N         -61.5587  -52.2226  -22.0503 N.ar    1  UNL1       -0.2422
     38 C         -60.3441  -51.9516  -22.5968 C.ar    1  UNL1        0.1002
     39 C         -60.2482  -51.1271  -23.7207 C.ar    1  UNL1        0.0353
     40 C         -63.4141  -48.3799  -28.2818 C.3     1  UNL1        0.0569
     41 C         -63.7257  -47.0980  -28.9986 C.ar    1  UNL1       -0.0017
     42 C         -63.2663  -45.8265  -28.6678 C.ar    1  UNL1        0.0681
     43 N         -63.6963  -44.9189  -29.5741 N.ar    1  UNL1       -0.3523
     44 C         -64.4148  -45.6078  -30.4779 C.ar    1  UNL1        0.0563
     45 C         -65.0495  -45.1060  -31.6133 C.ar    1  UNL1        0.0170
     46 C         -65.7385  -46.0150  -32.4372 C.ar    1  UNL1        0.0015
     47 C         -65.7751  -47.3895  -32.1129 C.ar    1  UNL1        0.0001
     48 C         -65.1240  -47.8678  -30.9612 C.ar    1  UNL1        0.0012
     49 C         -64.4524  -46.9419  -30.1625 C.ar    1  UNL1        0.0131
     50 H         -63.4974  -43.8938  -29.5746 H       1  UNL1        0.1660
@<TRIPOS>BOND
     1     1     2    2
     2     2     3   am
     3     3    29    1
     4    29    40    1
     5    40    41    1
     6    41    42   ar
     7    42    43   ar
     8    43    44   ar
     9    44    45   ar
    10    45    46   ar
    11    46    47   ar
    12    47    48   ar
    13    48    49   ar
    14    29    30    1
    15    30    31    2
    16    30    32   am
    17    32    34    1
    18    34    35   ar
    19    35    36   ar
    20    36    37   ar
    21    37    38   ar
    22    38    39   ar
    23     2     5    1
    24     5     6   ar
    25     6     7   ar
    26     7     8   ar
    27     8    12    1
    28    12    13    1
    29    13    14    1
    30    14    15    1
    31    15    19    1
    32    19    20   ar
    33    20    21   ar
    34    21    22   ar
    35    22    25    1
    36    25    26    1
    37    25    27    1
    38    25    28    1
    39    22    23   ar
    40    23    24   ar
    41    15    16    1
    42    16    17    1
    43    16    18    1
    44     8     9   ar
    45     9    10   ar
    46    10    11    1
    47    49    41   ar
    48    39    34   ar
    49    10     5   ar
    50    49    44   ar
    51    18    12    1
    52    24    19   ar
    53     3     4    1
    54    43    50    1
    55    32    33    1
@<TRIPOS>MOLECULE
*****
 50 55 0 0 0
SMALL
GASTEIGER

@<TRIPOS>ATOM
      1 O         -60.7338  -46.4340  -26.0814 O.2     1  UNL1       -0.2701
      2 C         -61.8379  -45.8410  -26.2265 C.2     1  UNL1        0.2483
      3 N         -62.7777  -46.3135  -27.2048 N.am    1  UNL1       -0.2945
      4 H         -63.5925  -45.7079  -27.4525 H       1  UNL1        0.1501
      5 C         -62.1317  -44.6455  -25.4055 C.ar    1  UNL1        0.0808
      6 C         -61.9135  -44.6868  -24.0183 C.ar    1  UNL1        0.0080
      7 C         -62.1789  -43.5686  -23.2239 C.ar    1  UNL1        0.0148
      8 C         -62.6798  -42.3903  -23.7993 C.ar    1  UNL1        0.0502
      9 C         -62.9156  -42.3527  -25.1817 C.ar    1  UNL1        0.0443
     10 C         -62.6494  -43.4689  -25.9810 C.ar    1  UNL1        0.1457
     11 F         -62.9438  -43.4078  -27.3043 F       1  UNL1       -0.2040
     12 N         -62.9544  -41.2332  -22.9858 N.pl3   1  UNL1       -0.3034
     13 C         -64.2086  -40.4918  -23.1476 C.3     1  UNL1        0.1123
     14 C         -64.7117  -39.9982  -21.7903 C.3     1  UNL1        0.1142
     15 N         -63.6243  -39.3637  -21.0286 N.pl3   1  UNL1       -0.2829
     16 C         -62.3396  -40.0704  -20.9050 C.3     1  UNL1        0.1469
     17 I         -62.5341  -41.7037  -19.5265 I       1  UNL1       -0.0512
     18 C         -61.8613  -40.5651  -22.2724 C.3     1  UNL1        0.1216
     19 C         -63.8883  -38.2331  -20.1722 C.ar    1  UNL1        0.1323
     20 C         -64.9818  -38.2240  -19.2907 C.ar    1  UNL1        0.0343
     21 C         -65.2000  -37.1138  -18.4738 C.ar    1  UNL1        0.0083
     22 C         -64.3198  -36.0223  -18.5143 C.ar    1  UNL1        0.0906
     23 C         -63.2495  -36.0627  -19.4212 C.ar    1  UNL1        0.1041
     24 N         -63.0586  -37.1538  -20.2088 N.ar    1  UNL1       -0.2292
     25 C         -64.5720  -34.7970  -17.6733 C.3     1  UNL1        0.4200
     26 F         -64.7585  -35.1450  -16.3467 F       1  UNL1       -0.1658
     27 F         -63.4850  -33.9483  -17.7681 F       1  UNL1       -0.1658
     28 F         -65.7041  -34.1304  -18.1094 F       1  UNL1       -0.1658
     29 C         -62.6012  -47.5984  -27.8913 C.3     1  UNL1        0.1535
     30 C         -62.8522  -48.7281  -26.9303 C.2     1  UNL1        0.2443
     31 O         -63.8426  -49.4889  -27.1095 O.2     1  UNL1       -0.2730
     32 N         -61.9189  -48.9858  -25.8698 N.am    1  UNL1       -0.2825
     33 H         -60.9640  -48.5679  -25.9493 H       1  UNL1        0.1549
     34 C         -62.1851  -49.8586  -24.7588 C.ar    1  UNL1        0.0535
     35 C         -61.2174  -50.0133  -23.7567 C.ar    1  UNL1        0.0353
     36 C         -61.4802  -50.8421  -22.6634 C.ar    1  UNL1        0.1002
     37 N         -62.6752  -51.4819  -22.5644 N.ar    1  UNL1       -0.2422
     38 C         -63.6409  -51.3365  -23.5098 C.ar    1  UNL1        0.1002
     39 C         -63.4186  -50.5178  -24.6201 C.ar    1  UNL1        0.0353
     40 C         -63.5523  -47.7204  -29.0951 C.3     1  UNL1        0.0569
     41 C         -63.9575  -46.3686  -29.6072 C.ar    1  UNL1       -0.0017
     42 C         -65.2527  -45.8669  -29.6985 C.ar    1  UNL1        0.0681
     43 N         -65.2336  -44.5897  -30.1438 N.ar    1  UNL1       -0.3523
     44 C         -63.9383  -44.2786  -30.3254 C.ar    1  UNL1        0.0563
     45 C         -63.4140  -43.0624  -30.7612 C.ar    1  UNL1        0.0170
     46 C         -62.0154  -42.9488  -30.8650 C.ar    1  UNL1        0.0015
     47 C         -61.1818  -44.0398  -30.5325 C.ar    1  UNL1        0.0001
     48 C         -61.7389  -45.2549  -30.0940 C.ar    1  UNL1        0.0012
     49 C         -63.1286  -45.3380  -30.0047 C.ar    1  UNL1        0.0131
     50 H         -66.0595  -43.9704  -30.3012 H       1  UNL1        0.1660
@<TRIPOS>BOND
     1     1     2    2
     2     2     3   am
     3     3    29    1
     4    29    40    1
     5    40    41    1
     6    41    42   ar
     7    42    43   ar
     8    43    44   ar
     9    44    45   ar
    10    45    46   ar
    11    46    47   ar
    12    47    48   ar
    13    48    49   ar
    14    29    30    1
    15    30    31    2
    16    30    32   am
    17    32    34    1
    18    34    35   ar
    19    35    36   ar
    20    36    37   ar
    21    37    38   ar
    22    38    39   ar
    23     2     5    1
    24     5     6   ar
    25     6     7   ar
    26     7     8   ar
    27     8    12    1
    28    12    13    1
    29    13    14    1
    30    14    15    1
    31    15    19    1
    32    19    20   ar
    33    20    21   ar
    34    21    22   ar
    35    22    25    1
    36    25    26    1
    37    25    27    1
    38    25    28    1
    39    22    23   ar
    40    23    24   ar
    41    15    16    1
    42    16    17    1
    43    16    18    1
    44     8     9   ar
    45     9    10   ar
    46    10    11    1
    47    49    41   ar
    48    39    34   ar
    49    10     5   ar
    50    49    44   ar
    51    18    12    1
    52    24    19   ar
    53     3     4    1
    54    43    50    1
    55    32    33    1
@<TRIPOS>MOLECULE
*****
 50 55 0 0 0
SMALL
GASTEIGER

@<TRIPOS>ATOM
      1 O         -60.2731  -47.2999  -24.1790 O.2     1  UNL1       -0.2701
      2 C         -61.1214  -46.4994  -24.6598 C.2     1  UNL1        0.2483
      3 N         -61.6930  -46.7576  -25.9521 N.am    1  UNL1       -0.2945
      4 H         -62.2371  -45.9992  -26.4217 H       1  UNL1        0.1501
      5 C         -61.4889  -45.2873  -23.8945 C.ar    1  UNL1        0.0808
      6 C         -61.8292  -45.4020  -22.5364 C.ar    1  UNL1        0.0080
      7 C         -62.1745  -44.2709  -21.7926 C.ar    1  UNL1        0.0148
      8 C         -62.1987  -43.0035  -22.3957 C.ar    1  UNL1        0.0502
      9 C         -61.8769  -42.8890  -23.7564 C.ar    1  UNL1        0.0443
     10 C         -61.5286  -44.0183  -24.5041 C.ar    1  UNL1        0.1457
     11 F         -61.2784  -43.8703  -25.8296 F       1  UNL1       -0.2040
     12 N         -62.5528  -41.8328  -21.6340 N.pl3   1  UNL1       -0.3034
     13 C         -61.5682  -40.7720  -21.4010 C.3     1  UNL1        0.1123
     14 C         -62.2459  -39.4015  -21.4416 C.3     1  UNL1        0.1142
     15 N         -63.4724  -39.4001  -20.6285 N.pl3   1  UNL1       -0.2829
     16 C         -64.4443  -40.4898  -20.8105 C.3     1  UNL1        0.1469
     17 I         -65.5061  -40.2209  -22.6561 I       1  UNL1       -0.0512
     18 C         -63.7432  -41.8502  -20.7780 C.3     1  UNL1        0.1216
     19 C         -63.8682  -38.2219  -19.8961 C.ar    1  UNL1        0.1323
     20 C         -65.0364  -38.2047  -19.1164 C.ar    1  UNL1        0.0343
     21 C         -65.3820  -37.0472  -18.4175 C.ar    1  UNL1        0.0083
     22 C         -64.5565  -35.9144  -18.4733 C.ar    1  UNL1        0.0906
     23 C         -63.4077  -35.9662  -19.2778 C.ar    1  UNL1        0.1041
     24 N         -63.0927  -37.1038  -19.9515 N.ar    1  UNL1       -0.2292
     25 C         -64.9439  -34.6424  -17.7632 C.3     1  UNL1        0.4200
     26 F         -65.0921  -34.8667  -16.4054 F       1  UNL1       -0.1658
     27 F         -63.9576  -33.6938  -17.9584 F       1  UNL1       -0.1658
     28 F         -66.1425  -34.1547  -18.2548 F       1  UNL1       -0.1658
     29 C         -61.4981  -48.0373  -26.6436 C.3     1  UNL1        0.1535
     30 C         -61.8823  -49.1717  -25.7335 C.2     1  UNL1        0.2443
     31 O         -63.1014  -49.4519  -25.5689 O.2     1  UNL1       -0.2730
     32 N         -60.8615  -49.9805  -25.1285 N.am    1  UNL1       -0.2825
     33 H         -59.9013  -49.9408  -25.5397 H       1  UNL1        0.1549
     34 C         -61.1011  -50.9098  -24.0579 C.ar    1  UNL1        0.0535
     35 C         -62.4194  -51.2209  -23.6976 C.ar    1  UNL1        0.0353
     36 C         -62.6578  -52.1407  -22.6737 C.ar    1  UNL1        0.1002
     37 N         -61.6160  -52.7429  -22.0418 N.ar    1  UNL1       -0.2422
     38 C         -60.3272  -52.4767  -22.3819 C.ar    1  UNL1        0.1002
     39 C         -60.0445  -51.5621  -23.3997 C.ar    1  UNL1        0.0353
     40 C         -62.3321  -48.1034  -27.9353 C.3     1  UNL1        0.0569
     41 C         -62.8060  -46.7396  -28.3471 C.ar    1  UNL1       -0.0017
     42 C         -64.1126  -46.2624  -28.2979 C.ar    1  UNL1        0.0681
     43 N         -64.1566  -44.9669  -28.6850 N.ar    1  UNL1       -0.3523
     44 C         -62.8890  -44.6205  -28.9690 C.ar    1  UNL1        0.0563
     45 C         -62.4280  -43.3756  -29.3951 C.ar    1  UNL1        0.0170
     46 C         -61.0470  -43.2276  -29.6200 C.ar    1  UNL1        0.0015
     47 C         -60.1676  -44.3138  -29.4140 C.ar    1  UNL1        0.0001
     48 C         -60.6610  -45.5585  -28.9822 C.ar    1  UNL1        0.0012
     49 C         -62.0350  -45.6752  -28.7712 C.ar    1  UNL1        0.0131
     50 H         -65.0041  -44.3593  -28.7387 H       1  UNL1        0.1660
@<TRIPOS>BOND
     1     1     2    2
     2     2     3   am
     3     3    29    1
     4    29    40    1
     5    40    41    1
     6    41    42   ar
     7    42    43   ar
     8    43    44   ar
     9    44    45   ar
    10    45    46   ar
    11    46    47   ar
    12    47    48   ar
    13    48    49   ar
    14    29    30    1
    15    30    31    2
    16    30    32   am
    17    32    34    1
    18    34    35   ar
    19    35    36   ar
    20    36    37   ar
    21    37    38   ar
    22    38    39   ar
    23     2     5    1
    24     5     6   ar
    25     6     7   ar
    26     7     8   ar
    27     8    12    1
    28    12    13    1
    29    13    14    1
    30    14    15    1
    31    15    19    1
    32    19    20   ar
    33    20    21   ar
    34    21    22   ar
    35    22    25    1
    36    25    26    1
    37    25    27    1
    38    25    28    1
    39    22    23   ar
    40    23    24   ar
    41    15    16    1
    42    16    17    1
    43    16    18    1
    44     8     9   ar
    45     9    10   ar
    46    10    11    1
    47    49    41   ar
    48    39    34   ar
    49    10     5   ar
    50    49    44   ar
    51    18    12    1
    52    24    19   ar
    53     3     4    1
    54    43    50    1
    55    32    33    1
@<TRIPOS>MOLECULE
*****
 50 55 0 0 0
SMALL
GASTEIGER

@<TRIPOS>ATOM
      1 O         -60.5940  -47.1783  -24.5770 O.2     1  UNL1       -0.2701
      2 C         -60.6316  -46.0179  -25.0706 C.2     1  UNL1        0.2483
      3 N         -60.2087  -45.8060  -26.4269 N.am    1  UNL1       -0.2945
      4 H         -60.0579  -44.8269  -26.7592 H       1  UNL1        0.1501
      5 C         -61.0819  -44.8869  -24.2292 C.ar    1  UNL1        0.0808
      6 C         -61.0272  -43.5791  -24.7391 C.ar    1  UNL1        0.0080
      7 C         -61.4517  -42.4964  -23.9648 C.ar    1  UNL1        0.0148
      8 C         -61.9279  -42.6988  -22.6598 C.ar    1  UNL1        0.0502
      9 C         -61.9663  -44.0021  -22.1419 C.ar    1  UNL1        0.0443
     10 C         -61.5444  -45.0888  -22.9143 C.ar    1  UNL1        0.1457
     11 F         -61.5465  -46.3254  -22.3551 F       1  UNL1       -0.2040
     12 N         -62.3682  -41.5867  -21.8565 N.pl3   1  UNL1       -0.3034
     13 C         -61.4220  -40.5441  -21.4483 C.3     1  UNL1        0.1123
     14 C         -62.1040  -39.1753  -21.4598 C.3     1  UNL1        0.1142
     15 N         -63.4070  -39.2343  -20.7788 N.pl3   1  UNL1       -0.2829
     16 C         -64.3457  -40.3093  -21.1371 C.3     1  UNL1        0.1469
     17 I         -65.2157  -39.9093  -23.0578 I       1  UNL1       -0.0512
     18 C         -63.6397  -41.6676  -21.1305 C.3     1  UNL1        0.1216
     19 C         -63.8860  -38.1126  -20.0083 C.ar    1  UNL1        0.1323
     20 C         -65.1784  -38.1027  -19.4583 C.ar    1  UNL1        0.0343
     21 C         -65.6026  -37.0013  -18.7136 C.ar    1  UNL1        0.0083
     22 C         -64.7365  -35.9199  -18.4945 C.ar    1  UNL1        0.0906
     23 C         -63.4597  -35.9605  -19.0759 C.ar    1  UNL1        0.1041
     24 N         -63.0696  -37.0429  -19.7994 N.ar    1  UNL1       -0.2292
     25 C         -65.1991  -34.7034  -17.7341 C.3     1  UNL1        0.4200
     26 F         -66.5011  -34.3802  -18.0751 F       1  UNL1       -0.1658
     27 F         -65.1400  -34.9647  -16.3780 F       1  UNL1       -0.1658
     28 F         -64.3938  -33.6142  -18.0192 F       1  UNL1       -0.1658
     29 C         -59.9444  -46.9244  -27.3396 C.3     1  UNL1        0.1535
     30 C         -61.2249  -47.6583  -27.6301 C.2     1  UNL1        0.2443
     31 O         -61.4430  -48.7716  -27.0779 O.2     1  UNL1       -0.2730
     32 N         -62.2250  -47.0502  -28.4620 N.am    1  UNL1       -0.2825
     33 H         -62.1646  -46.0189  -28.6214 H       1  UNL1        0.1549
     34 C         -63.3541  -47.7539  -29.0071 C.ar    1  UNL1        0.0535
     35 C         -64.1054  -47.1624  -30.0319 C.ar    1  UNL1        0.0353
     36 C         -65.1893  -47.8517  -30.5809 C.ar    1  UNL1        0.1002
     37 N         -65.5029  -49.0965  -30.1343 N.ar    1  UNL1       -0.2422
     38 C         -64.7814  -49.7042  -29.1557 C.ar    1  UNL1        0.1002
     39 C         -63.6903  -49.0495  -28.5786 C.ar    1  UNL1        0.0353
     40 C         -59.3192  -46.4309  -28.6565 C.3     1  UNL1        0.0569
     41 C         -60.1381  -45.3316  -29.2689 C.ar    1  UNL1       -0.0017
     42 C         -61.1014  -44.5564  -28.6299 C.ar    1  UNL1        0.0681
     43 N         -61.5881  -43.6183  -29.4743 N.ar    1  UNL1       -0.3523
     44 C         -60.9343  -43.7890  -30.6365 C.ar    1  UNL1        0.0563
     45 C         -61.0820  -43.0456  -31.8067 C.ar    1  UNL1        0.0170
     46 C         -60.2780  -43.3885  -32.9094 C.ar    1  UNL1        0.0015
     47 C         -59.3534  -44.4526  -32.8179 C.ar    1  UNL1        0.0001
     48 C         -59.2248  -45.1846  -31.6234 C.ar    1  UNL1        0.0012
     49 C         -60.0380  -44.8232  -30.5490 C.ar    1  UNL1        0.0131
     50 H         -62.3154  -42.9006  -29.2588 H       1  UNL1        0.1660
@<TRIPOS>BOND
     1     1     2    2
     2     2     3   am
     3     3    29    1
     4    29    40    1
     5    40    41    1
     6    41    42   ar
     7    42    43   ar
     8    43    44   ar
     9    44    45   ar
    10    45    46   ar
    11    46    47   ar
    12    47    48   ar
    13    48    49   ar
    14    29    30    1
    15    30    31    2
    16    30    32   am
    17    32    34    1
    18    34    35   ar
    19    35    36   ar
    20    36    37   ar
    21    37    38   ar
    22    38    39   ar
    23     2     5    1
    24     5     6   ar
    25     6     7   ar
    26     7     8   ar
    27     8    12    1
    28    12    13    1
    29    13    14    1
    30    14    15    1
    31    15    19    1
    32    19    20   ar
    33    20    21   ar
    34    21    22   ar
    35    22    25    1
    36    25    26    1
    37    25    27    1
    38    25    28    1
    39    22    23   ar
    40    23    24   ar
    41    15    16    1
    42    16    17    1
    43    16    18    1
    44     8     9   ar
    45     9    10   ar
    46    10    11    1
    47    49    41   ar
    48    39    34   ar
    49    10     5   ar
    50    49    44   ar
    51    18    12    1
    52    24    19   ar
    53     3     4    1
    54    43    50    1
    55    32    33    1
@<TRIPOS>MOLECULE
*****
 50 55 0 0 0
SMALL
GASTEIGER

@<TRIPOS>ATOM
      1 O         -63.3276  -54.9254  -22.2629 O.2     1  UNL1       -0.2701
      2 C         -64.2480  -54.1412  -22.6227 C.2     1  UNL1        0.2483
      3 N         -65.6209  -54.5148  -22.4252 N.am    1  UNL1       -0.2945
      4 H         -66.3668  -53.9566  -22.8984 H       1  UNL1        0.1501
      5 C         -63.8950  -52.8601  -23.2738 C.ar    1  UNL1        0.0808
      6 C         -64.6935  -52.3719  -24.3214 C.ar    1  UNL1        0.0080
      7 C         -64.3824  -51.1623  -24.9475 C.ar    1  UNL1        0.0148
      8 C         -63.2588  -50.4226  -24.5466 C.ar    1  UNL1        0.0502
      9 C         -62.4494  -50.9172  -23.5130 C.ar    1  UNL1        0.0443
     10 C         -62.7583  -52.1264  -22.8821 C.ar    1  UNL1        0.1457
     11 F         -61.9182  -52.5952  -21.9250 F       1  UNL1       -0.2040
     12 N         -62.9331  -49.1738  -25.1874 N.pl3   1  UNL1       -0.3034
     13 C         -63.8364  -48.5928  -26.1851 C.3     1  UNL1        0.1123
     14 C         -63.8584  -47.0689  -26.0566 C.3     1  UNL1        0.1142
     15 N         -62.4916  -46.5321  -25.9626 N.pl3   1  UNL1       -0.2829
     16 C         -61.5550  -47.1421  -25.0055 C.3     1  UNL1        0.1469
     17 I         -62.0681  -46.5549  -23.0061 I       1  UNL1       -0.0512
     18 C         -61.5579  -48.6667  -25.1438 C.3     1  UNL1        0.1216
     19 C         -62.1578  -45.2610  -26.5576 C.ar    1  UNL1        0.1323
     20 C         -62.4085  -44.0523  -25.8874 C.ar    1  UNL1        0.0343
     21 C         -62.0654  -42.8433  -26.4941 C.ar    1  UNL1        0.0083
     22 C         -61.4520  -42.8342  -27.7556 C.ar    1  UNL1        0.0906
     23 C         -61.2348  -44.0620  -28.3996 C.ar    1  UNL1        0.1041
     24 N         -61.5797  -45.2268  -27.7902 N.ar    1  UNL1       -0.2292
     25 C         -61.1216  -41.5338  -28.4428 C.3     1  UNL1        0.4200
     26 F         -62.1231  -40.6018  -28.2320 F       1  UNL1       -0.1658
     27 F         -59.9334  -41.0408  -27.9369 F       1  UNL1       -0.1658
     28 F         -60.9868  -41.7235  -29.8073 F       1  UNL1       -0.1658
     29 C         -65.9981  -55.6785  -21.6145 C.3     1  UNL1        0.1535
     30 C         -67.2350  -55.3650  -20.8180 C.2     1  UNL1        0.2443
     31 O         -67.3394  -55.7941  -19.6361 O.2     1  UNL1       -0.2730
     32 N         -68.2464  -54.5107  -21.3741 N.am    1  UNL1       -0.2825
     33 H         -67.9844  -53.9140  -22.1915 H       1  UNL1        0.1549
     34 C         -69.5628  -54.3550  -20.8173 C.ar    1  UNL1        0.0535
     35 C         -69.7791  -53.3973  -19.8171 C.ar    1  UNL1        0.0353
     36 C         -71.0610  -53.2261  -19.2891 C.ar    1  UNL1        0.1002
     37 N         -72.0961  -53.9735  -19.7554 N.ar    1  UNL1       -0.2422
     38 C         -71.9217  -54.8962  -20.7381 C.ar    1  UNL1        0.1002
     39 C         -70.6556  -55.1000  -21.2929 C.ar    1  UNL1        0.0353
     40 C         -66.2492  -56.9133  -22.4982 C.3     1  UNL1        0.0569
     41 C         -67.5206  -56.7704  -23.2837 C.ar    1  UNL1       -0.0017
     42 C         -68.7812  -57.2342  -22.9185 C.ar    1  UNL1        0.0681
     43 N         -69.7033  -56.8676  -23.8380 N.ar    1  UNL1       -0.3523
     44 C         -69.0374  -56.1695  -24.7744 C.ar    1  UNL1        0.0563
     45 C         -69.5658  -55.5701  -25.9169 C.ar    1  UNL1        0.0170
     46 C         -68.6836  -54.8684  -26.7590 C.ar    1  UNL1        0.0015
     47 C         -67.3096  -54.7804  -26.4426 C.ar    1  UNL1        0.0001
     48 C         -66.8047  -55.3942  -25.2819 C.ar    1  UNL1        0.0012
     49 C         -67.7032  -56.0855  -24.4689 C.ar    1  UNL1        0.0131
     50 H         -70.7262  -57.0760  -23.8145 H       1  UNL1        0.1660
@<TRIPOS>BOND
     1     1     2    2
     2     2     3   am
     3     3    29    1
     4    29    40    1
     5    40    41    1
     6    41    42   ar
     7    42    43   ar
     8    43    44   ar
     9    44    45   ar
    10    45    46   ar
    11    46    47   ar
    12    47    48   ar
    13    48    49   ar
    14    29    30    1
    15    30    31    2
    16    30    32   am
    17    32    34    1
    18    34    35   ar
    19    35    36   ar
    20    36    37   ar
    21    37    38   ar
    22    38    39   ar
    23     2     5    1
    24     5     6   ar
    25     6     7   ar
    26     7     8   ar
    27     8    12    1
    28    12    13    1
    29    13    14    1
    30    14    15    1
    31    15    19    1
    32    19    20   ar
    33    20    21   ar
    34    21    22   ar
    35    22    25    1
    36    25    26    1
    37    25    27    1
    38    25    28    1
    39    22    23   ar
    40    23    24   ar
    41    15    16    1
    42    16    17    1
    43    16    18    1
    44     8     9   ar
    45     9    10   ar
    46    10    11    1
    47    49    41   ar
    48    39    34   ar
    49    10     5   ar
    50    49    44   ar
    51    18    12    1
    52    24    19   ar
    53     3     4    1
    54    43    50    1
    55    32    33    1
@<TRIPOS>MOLECULE
*****
 50 55 0 0 0
SMALL
GASTEIGER

@<TRIPOS>ATOM
      1 O         -59.7867  -46.4286  -24.7916 O.2     1  UNL1       -0.2701
      2 C         -60.4543  -45.5468  -25.3985 C.2     1  UNL1        0.2483
      3 N         -60.7032  -45.6843  -26.8065 N.am    1  UNL1       -0.2945
      4 H         -61.0809  -44.8643  -27.3326 H       1  UNL1        0.1501
      5 C         -60.9428  -44.3662  -24.6520 C.ar    1  UNL1        0.0808
      6 C         -60.1945  -43.8716  -23.5708 C.ar    1  UNL1        0.0080
      7 C         -60.6335  -42.7553  -22.8546 C.ar    1  UNL1        0.0148
      8 C         -61.8366  -42.1185  -23.1976 C.ar    1  UNL1        0.0502
      9 C         -62.5948  -42.6217  -24.2653 C.ar    1  UNL1        0.0443
     10 C         -62.1580  -43.7375  -24.9863 C.ar    1  UNL1        0.1457
     11 F         -62.9490  -44.2244  -25.9757 F       1  UNL1       -0.2040
     12 N         -62.2944  -40.9661  -22.4638 N.pl3   1  UNL1       -0.3034
     13 C         -63.4507  -40.1972  -22.9336 C.3     1  UNL1        0.1123
     14 C         -64.2815  -39.7101  -21.7456 C.3     1  UNL1        0.1142
     15 N         -63.4196  -39.1073  -20.7165 N.pl3   1  UNL1       -0.2829
     16 C         -62.2234  -39.8417  -20.2751 C.3     1  UNL1        0.1469
     17 I         -62.7973  -41.4874  -19.0228 I       1  UNL1       -0.0512
     18 C         -61.4138  -40.3293  -21.4793 C.3     1  UNL1        0.1216
     19 C         -63.8788  -37.9822  -19.9390 C.ar    1  UNL1        0.1323
     20 C         -65.0801  -38.0372  -19.2133 C.ar    1  UNL1        0.0343
     21 C         -65.4871  -36.9297  -18.4681 C.ar    1  UNL1        0.0083
     22 C         -64.6905  -35.7758  -18.4238 C.ar    1  UNL1        0.0906
     23 C         -63.5065  -35.7543  -19.1769 C.ar    1  UNL1        0.1041
     24 N         -63.1318  -36.8442  -19.8973 N.ar    1  UNL1       -0.2292
     25 C         -65.1427  -34.5556  -17.6629 C.3     1  UNL1        0.4200
     26 F         -66.4365  -34.2120  -18.0152 F       1  UNL1       -0.1658
     27 F         -65.1007  -34.8231  -16.3074 F       1  UNL1       -0.1658
     28 F         -64.3188  -33.4772  -17.9358 F       1  UNL1       -0.1658
     29 C         -60.4030  -46.9262  -27.5286 C.3     1  UNL1        0.1535
     30 C         -61.3312  -48.0181  -27.0716 C.2     1  UNL1        0.2443
     31 O         -62.0827  -48.5875  -27.9100 O.2     1  UNL1       -0.2730
     32 N         -61.2944  -48.4636  -25.7069 N.am    1  UNL1       -0.2825
     33 H         -60.4527  -48.2189  -25.1373 H       1  UNL1        0.1549
     34 C         -62.2954  -49.3040  -25.1081 C.ar    1  UNL1        0.0535
     35 C         -63.6495  -49.0610  -25.3762 C.ar    1  UNL1        0.0353
     36 C         -64.6250  -49.8888  -24.8154 C.ar    1  UNL1        0.1002
     37 N         -64.2611  -50.9346  -24.0273 N.ar    1  UNL1       -0.2422
     38 C         -62.9557  -51.2075  -23.7649 C.ar    1  UNL1        0.1002
     39 C         -61.9483  -50.4038  -24.3048 C.ar    1  UNL1        0.0353
     40 C         -60.5399  -46.7317  -29.0491 C.3     1  UNL1        0.0569
     41 C         -61.1396  -45.3943  -29.3745 C.ar    1  UNL1       -0.0017
     42 C         -60.4596  -44.2616  -29.8126 C.ar    1  UNL1        0.0681
     43 N         -61.3304  -43.2589  -30.0703 N.ar    1  UNL1       -0.3523
     44 C         -62.5533  -43.7518  -29.8075 C.ar    1  UNL1        0.0563
     45 C         -63.7759  -43.0947  -29.9396 C.ar    1  UNL1        0.0170
     46 C         -64.9448  -43.8110  -29.6227 C.ar    1  UNL1        0.0015
     47 C         -64.8666  -45.1530  -29.1885 C.ar    1  UNL1        0.0001
     48 C         -63.6188  -45.7911  -29.0659 C.ar    1  UNL1        0.0012
     49 C         -62.4779  -45.0539  -29.3840 C.ar    1  UNL1        0.0131
     50 H         -61.0965  -42.3015  -30.4154 H       1  UNL1        0.1660
@<TRIPOS>BOND
     1     1     2    2
     2     2     3   am
     3     3    29    1
     4    29    40    1
     5    40    41    1
     6    41    42   ar
     7    42    43   ar
     8    43    44   ar
     9    44    45   ar
    10    45    46   ar
    11    46    47   ar
    12    47    48   ar
    13    48    49   ar
    14    29    30    1
    15    30    31    2
    16    30    32   am
    17    32    34    1
    18    34    35   ar
    19    35    36   ar
    20    36    37   ar
    21    37    38   ar
    22    38    39   ar
    23     2     5    1
    24     5     6   ar
    25     6     7   ar
    26     7     8   ar
    27     8    12    1
    28    12    13    1
    29    13    14    1
    30    14    15    1
    31    15    19    1
    32    19    20   ar
    33    20    21   ar
    34    21    22   ar
    35    22    25    1
    36    25    26    1
    37    25    27    1
    38    25    28    1
    39    22    23   ar
    40    23    24   ar
    41    15    16    1
    42    16    17    1
    43    16    18    1
    44     8     9   ar
    45     9    10   ar
    46    10    11    1
    47    49    41   ar
    48    39    34   ar
    49    10     5   ar
    50    49    44   ar
    51    18    12    1
    52    24    19   ar
    53     3     4    1
    54    43    50    1
    55    32    33    1
@<TRIPOS>MOLECULE
*****
 50 55 0 0 0
SMALL
GASTEIGER

@<TRIPOS>ATOM
      1 O         -62.1723  -42.4487  -19.6796 O.2     1  UNL1       -0.2701
      2 C         -62.6670  -41.6237  -20.4958 C.2     1  UNL1        0.2483
      3 N         -63.5079  -40.5627  -20.0157 N.am    1  UNL1       -0.2945
      4 H         -64.0650  -40.0112  -20.7065 H       1  UNL1        0.1501
      5 C         -62.3968  -41.7843  -21.9418 C.ar    1  UNL1        0.0808
      6 C         -61.0854  -42.0363  -22.3780 C.ar    1  UNL1        0.0080
      7 C         -60.8075  -42.1965  -23.7377 C.ar    1  UNL1        0.0148
      8 C         -61.8339  -42.0955  -24.6900 C.ar    1  UNL1        0.0502
      9 C         -63.1412  -41.8258  -24.2582 C.ar    1  UNL1        0.0443
     10 C         -63.4242  -41.6669  -22.8980 C.ar    1  UNL1        0.1457
     11 F         -64.6916  -41.3526  -22.5286 F       1  UNL1       -0.2040
     12 N         -61.5542  -42.2609  -26.0937 N.pl3   1  UNL1       -0.3034
     13 C         -60.1848  -42.1260  -26.5995 C.3     1  UNL1        0.1123
     14 C         -59.9329  -43.1332  -27.7225 C.3     1  UNL1        0.1142
     15 N         -61.0363  -43.1182  -28.6958 N.pl3   1  UNL1       -0.2829
     16 C         -62.4195  -43.1957  -28.2001 C.3     1  UNL1        0.1469
     17 I         -62.8486  -45.1926  -27.5410 I       1  UNL1       -0.0512
     18 C         -62.6457  -42.1881  -27.0701 C.3     1  UNL1        0.1216
     19 C         -60.7815  -43.3288  -30.1001 C.ar    1  UNL1        0.1323
     20 C         -59.7767  -44.2079  -30.5365 C.ar    1  UNL1        0.0343
     21 C         -59.5651  -44.3892  -31.9040 C.ar    1  UNL1        0.0083
     22 C         -60.3658  -43.7163  -32.8387 C.ar    1  UNL1        0.0906
     23 C         -61.3471  -42.8333  -32.3623 C.ar    1  UNL1        0.1041
     24 N         -61.5332  -42.6709  -31.0258 N.ar    1  UNL1       -0.2292
     25 C         -60.1152  -43.8653  -34.3176 C.3     1  UNL1        0.4200
     26 F         -61.3103  -43.8894  -35.0156 F       1  UNL1       -0.1658
     27 F         -59.3561  -42.7983  -34.7604 F       1  UNL1       -0.1658
     28 F         -59.4361  -45.0424  -34.5814 F       1  UNL1       -0.1658
     29 C         -63.6359  -40.2629  -18.5848 C.3     1  UNL1        0.1535
     30 C         -63.7481  -38.7764  -18.3839 C.2     1  UNL1        0.2443
     31 O         -63.0421  -38.2124  -17.5033 O.2     1  UNL1       -0.2730
     32 N         -64.5896  -37.9991  -19.2498 N.am    1  UNL1       -0.2825
     33 H         -64.8866  -38.4293  -20.1550 H       1  UNL1        0.1549
     34 C         -64.9670  -36.6358  -18.9928 C.ar    1  UNL1        0.0535
     35 C         -64.1115  -35.8127  -18.2478 C.ar    1  UNL1        0.0353
     36 C         -64.4626  -34.4808  -18.0148 C.ar    1  UNL1        0.1002
     37 N         -65.6204  -33.9820  -18.5227 N.ar    1  UNL1       -0.2422
     38 C         -66.4609  -34.7497  -19.2653 C.ar    1  UNL1        0.1002
     39 C         -66.1483  -36.0873  -19.5210 C.ar    1  UNL1        0.0353
     40 C         -64.8652  -40.9625  -17.9783 C.3     1  UNL1        0.0569
     41 C         -65.5393  -41.8480  -18.9861 C.ar    1  UNL1       -0.0017
     42 C         -66.3735  -41.4429  -20.0241 C.ar    1  UNL1        0.0681
     43 N         -66.7457  -42.5065  -20.7726 N.ar    1  UNL1       -0.3523
     44 C         -66.1468  -43.5767  -20.2217 C.ar    1  UNL1        0.0563
     45 C         -66.2170  -44.9004  -20.6537 C.ar    1  UNL1        0.0170
     46 C         -65.4916  -45.8667  -19.9327 C.ar    1  UNL1        0.0015
     47 C         -64.7194  -45.4922  -18.8106 C.ar    1  UNL1        0.0001
     48 C         -64.6660  -44.1483  -18.3983 C.ar    1  UNL1        0.0012
     49 C         -65.3986  -43.2141  -19.1311 C.ar    1  UNL1        0.0131
     50 H         -67.3632  -42.4926  -21.6146 H       1  UNL1        0.1660
@<TRIPOS>BOND
     1     1     2    2
     2     2     3   am
     3     3    29    1
     4    29    40    1
     5    40    41    1
     6    41    42   ar
     7    42    43   ar
     8    43    44   ar
     9    44    45   ar
    10    45    46   ar
    11    46    47   ar
    12    47    48   ar
    13    48    49   ar
    14    29    30    1
    15    30    31    2
    16    30    32   am
    17    32    34    1
    18    34    35   ar
    19    35    36   ar
    20    36    37   ar
    21    37    38   ar
    22    38    39   ar
    23     2     5    1
    24     5     6   ar
    25     6     7   ar
    26     7     8   ar
    27     8    12    1
    28    12    13    1
    29    13    14    1
    30    14    15    1
    31    15    19    1
    32    19    20   ar
    33    20    21   ar
    34    21    22   ar
    35    22    25    1
    36    25    26    1
    37    25    27    1
    38    25    28    1
    39    22    23   ar
    40    23    24   ar
    41    15    16    1
    42    16    17    1
    43    16    18    1
    44     8     9   ar
    45     9    10   ar
    46    10    11    1
    47    49    41   ar
    48    39    34   ar
    49    10     5   ar
    50    49    44   ar
    51    18    12    1
    52    24    19   ar
    53     3     4    1
    54    43    50    1
    55    32    33    1
