@<TRIPOS>MOLECULE
*****
 46 51 0 0 0
SMALL
GASTEIGER

@<TRIPOS>ATOM
      1 C         -27.8973   48.8243   -5.8875 C.ar    1  UNL1        0.0702
      2 C         -28.5500   49.7422   -5.0565 C.ar    1  UNL1        0.0191
      3 C         -29.5271   49.3086   -4.1590 C.ar    1  UNL1        0.0356
      4 C         -29.8638   47.9455   -4.1043 C.ar    1  UNL1        0.1318
      5 N         -29.2401   47.0782   -4.9500 N.ar    1  UNL1       -0.2279
      6 C         -28.2840   47.4764   -5.8291 C.ar    1  UNL1        0.1149
      7 N         -30.8450   47.4525   -3.1658 N.pl3   1  UNL1       -0.2932
      8 C         -31.0516   48.1175   -1.8677 C.3     1  UNL1        0.0923
      9 C         -31.5792   47.1316   -0.8081 C.3     1  UNL1        0.0252
     10 C         -30.9467   45.7314   -0.9746 C.3     1  UNL1        0.0472
     11 C         -31.2559   45.1442   -2.3808 C.3     1  UNL1        0.0252
     12 C         -31.5835   46.2125   -3.4376 C.3     1  UNL1        0.0923
     13 C         -29.4350   45.7709   -0.6523 C.3     1  UNL1        0.2054
     14 O         -28.6648   45.1673   -1.6958 O.3     1  UNL1       -0.4755
     15 C         -27.5370   45.7163   -2.3342 C.ar    1  UNL1        0.1388
     16 C         -26.7024   44.9816   -3.2011 C.ar    1  UNL1        0.0369
     17 C         -25.5981   45.5910   -3.7993 C.ar    1  UNL1        0.0033
     18 C         -25.3108   46.9331   -3.5454 C.ar    1  UNL1        0.0066
     19 C         -26.1281   47.6828   -2.6826 C.ar    1  UNL1        0.0785
     20 C         -27.2378   47.0618   -2.0824 C.ar    1  UNL1        0.0433
     21 C         -25.8281   49.1053   -2.4064 C.2     1  UNL1        0.3381
     22 O         -25.9558   49.9727   -3.3127 O.2     1  UNL1       -0.2451
     23 O         -25.4013   49.5001   -1.1410 O.3     1  UNL1       -0.4771
     24 H         -25.1932   50.4713   -0.9415 H       1  UNL1        0.2954
     25 C         -26.8078   50.6399   -7.2851 C.2     1  UNL1        0.2839
     26 O         -27.7601   51.4435   -7.0950 O.2     1  UNL1       -0.2665
     27 N         -26.8994   49.2854   -6.8144 N.am    1  UNL1       -0.2766
     28 H         -26.2600   48.5743   -7.2362 H       1  UNL1        0.1553
     29 C         -23.8145   49.5525   -6.9270 C.3     1  UNL1        0.0345
     30 C         -24.3030   50.6053   -7.8758 C.ar    1  UNL1        0.0202
     31 C         -25.6112   51.0780   -8.0285 C.ar    1  UNL1        0.1946
     32 O         -25.6496   52.0073   -8.9669 O.2     1  UNL1       -0.4492
     33 C         -24.4335   52.1623   -9.4303 C.ar    1  UNL1        0.1452
     34 C         -24.0155   53.0358  -10.4280 C.ar    1  UNL1        0.0375
     35 C         -22.6535   53.0383  -10.7752 C.ar    1  UNL1        0.0031
     36 C         -21.7339   52.1726  -10.1235 C.ar    1  UNL1        0.0002
     37 C         -22.2008   51.2989   -9.1122 C.ar    1  UNL1        0.0028
     38 C         -23.5593   51.3231   -8.7930 C.ar    1  UNL1        0.0337
     39 C         -20.2973   52.1840  -10.4989 C.ar    1  UNL1        0.0000
     40 C         -19.9106   52.3138  -11.8460 C.ar    1  UNL1        0.0005
     41 C         -18.5575   52.3233  -12.1974 C.ar    1  UNL1        0.0059
     42 C         -17.5748   52.2048  -11.2100 C.ar    1  UNL1        0.0215
     43 S         -15.8431   52.2178  -11.6625 S.3     1  UNL1       -0.1414
     44 C         -17.9472   52.0754   -9.8688 C.ar    1  UNL1        0.0059
     45 C         -19.2993   52.0644   -9.5134 C.ar    1  UNL1        0.0005
     46 H         -15.7646   53.6172  -11.5340 H       1  UNL1        0.1071
@<TRIPOS>BOND
     1    29    30    1
     2    30    31   ar
     3    31    25    1
     4    25    26    2
     5    25    27   am
     6    27     1    1
     7     1     2   ar
     8     2     3   ar
     9     3     4   ar
    10     4     7    1
    11     7     8    1
    12     8     9    1
    13     9    10    1
    14    10    13    1
    15    13    14    1
    16    14    15    1
    17    15    16   ar
    18    16    17   ar
    19    17    18   ar
    20    18    19   ar
    21    19    21    1
    22    21    22    2
    23    21    23    1
    24    19    20   ar
    25    10    11    1
    26    11    12    1
    27     4     5   ar
    28     5     6   ar
    29    31    32   ar
    30    32    33   ar
    31    33    34   ar
    32    34    35   ar
    33    35    36   ar
    34    36    39    1
    35    39    40   ar
    36    40    41   ar
    37    41    42   ar
    38    42    43    1
    39    42    44   ar
    40    44    45   ar
    41    36    37   ar
    42    37    38   ar
    43    38    30   ar
    44     6     1   ar
    45    38    33   ar
    46    12     7    1
    47    45    39   ar
    48    20    15   ar
    49    27    28    1
    50    23    24    1
    51    43    46    1
@<TRIPOS>MOLECULE
*****
 46 51 0 0 0
SMALL
GASTEIGER

@<TRIPOS>ATOM
      1 C         -30.7969   47.6895  -12.2012 C.ar    1  UNL1        0.0702
      2 C         -30.1207   46.6174  -12.7950 C.ar    1  UNL1        0.0191
      3 C         -30.1454   46.4500  -14.1805 C.ar    1  UNL1        0.0356
      4 C         -30.8664   47.3559  -14.9766 C.ar    1  UNL1        0.1318
      5 N         -31.5466   48.3691  -14.3707 N.ar    1  UNL1       -0.2279
      6 C         -31.5343   48.5540  -13.0248 C.ar    1  UNL1        0.1149
      7 N         -30.8886   47.2365  -16.4160 N.pl3   1  UNL1       -0.2932
      8 C         -30.1980   46.1259  -17.0940 C.3     1  UNL1        0.0923
      9 C         -29.7700   46.5170  -18.5211 C.3     1  UNL1        0.0252
     10 C         -29.3155   47.9924  -18.5904 C.3     1  UNL1        0.0472
     11 C         -30.4587   48.9487  -18.1472 C.3     1  UNL1        0.0252
     12 C         -31.5082   48.2794  -17.2439 C.3     1  UNL1        0.0923
     13 C         -28.0067   48.2009  -17.7939 C.3     1  UNL1        0.2054
     14 O         -27.5780   49.5647  -17.8457 O.3     1  UNL1       -0.4755
     15 C         -27.1053   50.3393  -16.7699 C.ar    1  UNL1        0.1388
     16 C         -25.8835   51.0423  -16.7985 C.ar    1  UNL1        0.0369
     17 C         -25.4759   51.7907  -15.6928 C.ar    1  UNL1        0.0033
     18 C         -26.2745   51.8504  -14.5496 C.ar    1  UNL1        0.0066
     19 C         -27.4946   51.1553  -14.4991 C.ar    1  UNL1        0.0785
     20 C         -27.8979   50.4023  -15.6162 C.ar    1  UNL1        0.0433
     21 C         -28.3451   51.2116  -13.2895 C.2     1  UNL1        0.3381
     22 O         -29.5869   51.0090  -13.3718 O.2     1  UNL1       -0.2451
     23 O         -27.7811   51.4892  -12.0469 O.3     1  UNL1       -0.4771
     24 H         -28.3545   51.5302  -11.2126 H       1  UNL1        0.2954
     25 C         -30.0038   48.8496  -10.0888 C.2     1  UNL1        0.2839
     26 O         -29.1125   49.4946  -10.7040 O.2     1  UNL1       -0.2665
     27 N         -30.7714   47.8451  -10.7720 N.am    1  UNL1       -0.2766
     28 H         -31.2703   47.1309  -10.1947 H       1  UNL1        0.1553
     29 C         -28.9144   47.0981   -7.6361 C.3     1  UNL1        0.0345
     30 C         -29.7591   48.3352   -7.5789 C.ar    1  UNL1        0.0202
     31 C         -30.2336   49.0969   -8.6528 C.ar    1  UNL1        0.1946
     32 O         -30.9444   50.1165   -8.2047 O.2     1  UNL1       -0.4492
     33 C         -30.9561   50.0551   -6.8956 C.ar    1  UNL1        0.1452
     34 C         -31.5841   50.9291   -6.0154 C.ar    1  UNL1        0.0375
     35 C         -31.4664   50.6765   -4.6377 C.ar    1  UNL1        0.0031
     36 C         -30.7269   49.5598   -4.1624 C.ar    1  UNL1        0.0002
     37 C         -30.1031   48.6939   -5.0925 C.ar    1  UNL1        0.0028
     38 C         -30.2409   48.9748   -6.4528 C.ar    1  UNL1        0.0337
     39 C         -30.6093   49.3030   -2.7046 C.ar    1  UNL1        0.0000
     40 C         -29.6704   48.3759   -2.2147 C.ar    1  UNL1        0.0005
     41 C         -29.5620   48.1348   -0.8418 C.ar    1  UNL1        0.0059
     42 C         -30.3874   48.8159    0.0580 C.ar    1  UNL1        0.0215
     43 S         -30.2463   48.5059    1.8151 S.3     1  UNL1       -0.1414
     44 C         -31.3235   49.7390   -0.4174 C.ar    1  UNL1        0.0059
     45 C         -31.4357   49.9822   -1.7895 C.ar    1  UNL1        0.0005
     46 H         -29.2840   49.5211    1.9715 H       1  UNL1        0.1071
@<TRIPOS>BOND
     1    29    30    1
     2    30    31   ar
     3    31    25    1
     4    25    26    2
     5    25    27   am
     6    27     1    1
     7     1     2   ar
     8     2     3   ar
     9     3     4   ar
    10     4     7    1
    11     7     8    1
    12     8     9    1
    13     9    10    1
    14    10    13    1
    15    13    14    1
    16    14    15    1
    17    15    16   ar
    18    16    17   ar
    19    17    18   ar
    20    18    19   ar
    21    19    21    1
    22    21    22    2
    23    21    23    1
    24    19    20   ar
    25    10    11    1
    26    11    12    1
    27     4     5   ar
    28     5     6   ar
    29    31    32   ar
    30    32    33   ar
    31    33    34   ar
    32    34    35   ar
    33    35    36   ar
    34    36    39    1
    35    39    40   ar
    36    40    41   ar
    37    41    42   ar
    38    42    43    1
    39    42    44   ar
    40    44    45   ar
    41    36    37   ar
    42    37    38   ar
    43    38    30   ar
    44     6     1   ar
    45    38    33   ar
    46    12     7    1
    47    45    39   ar
    48    20    15   ar
    49    27    28    1
    50    23    24    1
    51    43    46    1
@<TRIPOS>MOLECULE
*****
 46 51 0 0 0
SMALL
GASTEIGER

@<TRIPOS>ATOM
      1 C         -25.4836   49.7380   -9.2497 C.ar    1  UNL1        0.0702
      2 C         -25.5316   48.4178   -8.7870 C.ar    1  UNL1        0.0191
      3 C         -26.5948   47.5858   -9.1413 C.ar    1  UNL1        0.0356
      4 C         -27.6265   48.0853   -9.9538 C.ar    1  UNL1        0.1318
      5 N         -27.5748   49.3848  -10.3601 N.ar    1  UNL1       -0.2279
      6 C         -26.5487   50.2122  -10.0310 C.ar    1  UNL1        0.1149
      7 N         -28.7262   47.2464  -10.3701 N.pl3   1  UNL1       -0.2932
      8 C         -30.0189   47.8331  -10.7636 C.3     1  UNL1        0.0923
      9 C         -31.1805   46.8518  -10.5172 C.3     1  UNL1        0.0252
     10 C         -30.9588   46.0256   -9.2301 C.3     1  UNL1        0.0472
     11 C         -29.6403   45.2057   -9.3148 C.3     1  UNL1        0.0252
     12 C         -28.6168   45.7831  -10.3069 C.3     1  UNL1        0.0923
     13 C         -31.0315   46.9305   -7.9785 C.3     1  UNL1        0.2054
     14 O         -29.9445   46.6712   -7.0853 O.3     1  UNL1       -0.4755
     15 C         -29.0153   47.6085   -6.5966 C.ar    1  UNL1        0.1388
     16 C         -27.9457   47.2677   -5.7436 C.ar    1  UNL1        0.0369
     17 C         -27.0619   48.2510   -5.2955 C.ar    1  UNL1        0.0033
     18 C         -27.2285   49.5798   -5.6885 C.ar    1  UNL1        0.0066
     19 C         -28.2894   49.9416   -6.5360 C.ar    1  UNL1        0.0785
     20 C         -29.1766   48.9459   -6.9821 C.ar    1  UNL1        0.0433
     21 C         -28.4741   51.3489   -6.9545 C.2     1  UNL1        0.3381
     22 O         -28.9545   51.6203   -8.0882 O.2     1  UNL1       -0.2451
     23 O         -28.1185   52.3883   -6.0987 O.3     1  UNL1       -0.4771
     24 H         -28.2409   53.3552   -6.3756 H       1  UNL1        0.2954
     25 C         -23.4589   51.1634   -9.8028 C.2     1  UNL1        0.2839
     26 O         -23.4137   50.7471  -10.9918 O.2     1  UNL1       -0.2665
     27 N         -24.3876   50.5876   -8.8697 N.am    1  UNL1       -0.2766
     28 H         -24.2052   50.7211   -7.8492 H       1  UNL1        0.1553
     29 C         -23.6389   54.2951  -10.4588 C.3     1  UNL1        0.0345
     30 C         -22.6040   53.5854   -9.6386 C.ar    1  UNL1        0.0202
     31 C         -22.5285   52.2171   -9.3552 C.ar    1  UNL1        0.1946
     32 O         -21.4742   51.9695   -8.5985 O.2     1  UNL1       -0.4492
     33 C         -20.8613   53.1067   -8.3770 C.ar    1  UNL1        0.1452
     34 C         -19.7077   53.3118   -7.6286 C.ar    1  UNL1        0.0375
     35 C         -19.2173   54.6244   -7.5179 C.ar    1  UNL1        0.0031
     36 C         -19.8834   55.7071   -8.1534 C.ar    1  UNL1        0.0002
     37 C         -21.0551   55.4548   -8.9067 C.ar    1  UNL1        0.0028
     38 C         -21.5135   54.1395   -8.9956 C.ar    1  UNL1        0.0337
     39 C         -19.3561   57.0896   -8.0291 C.ar    1  UNL1        0.0000
     40 C         -19.6019   58.0425   -9.0355 C.ar    1  UNL1        0.0005
     41 C         -19.1037   59.3433   -8.9171 C.ar    1  UNL1        0.0059
     42 C         -18.3560   59.7093   -7.7938 C.ar    1  UNL1        0.0215
     43 S         -17.7197   61.3756   -7.6443 S.3     1  UNL1       -0.1414
     44 C         -18.1057   58.7712   -6.7880 C.ar    1  UNL1        0.0059
     45 C         -18.6014   57.4690   -6.9032 C.ar    1  UNL1        0.0005
     46 H         -18.8804   61.8169   -6.9817 H       1  UNL1        0.1071
@<TRIPOS>BOND
     1    29    30    1
     2    30    31   ar
     3    31    25    1
     4    25    26    2
     5    25    27   am
     6    27     1    1
     7     1     2   ar
     8     2     3   ar
     9     3     4   ar
    10     4     7    1
    11     7     8    1
    12     8     9    1
    13     9    10    1
    14    10    13    1
    15    13    14    1
    16    14    15    1
    17    15    16   ar
    18    16    17   ar
    19    17    18   ar
    20    18    19   ar
    21    19    21    1
    22    21    22    2
    23    21    23    1
    24    19    20   ar
    25    10    11    1
    26    11    12    1
    27     4     5   ar
    28     5     6   ar
    29    31    32   ar
    30    32    33   ar
    31    33    34   ar
    32    34    35   ar
    33    35    36   ar
    34    36    39    1
    35    39    40   ar
    36    40    41   ar
    37    41    42   ar
    38    42    43    1
    39    42    44   ar
    40    44    45   ar
    41    36    37   ar
    42    37    38   ar
    43    38    30   ar
    44     6     1   ar
    45    38    33   ar
    46    12     7    1
    47    45    39   ar
    48    20    15   ar
    49    27    28    1
    50    23    24    1
    51    43    46    1
@<TRIPOS>MOLECULE
*****
 46 51 0 0 0
SMALL
GASTEIGER

@<TRIPOS>ATOM
      1 C         -25.5310   49.7317   -9.2787 C.ar    1  UNL1        0.0702
      2 C         -25.5607   48.3968   -8.8588 C.ar    1  UNL1        0.0191
      3 C         -26.6230   47.5677   -9.2224 C.ar    1  UNL1        0.0356
      4 C         -27.6722   48.0846  -10.0010 C.ar    1  UNL1        0.1318
      5 N         -27.6377   49.3971  -10.3653 N.ar    1  UNL1       -0.2279
      6 C         -26.6129   50.2220  -10.0263 C.ar    1  UNL1        0.1149
      7 N         -28.7721   47.2504  -10.4262 N.pl3   1  UNL1       -0.2932
      8 C         -30.0125   47.8444  -10.9540 C.3     1  UNL1        0.0923
      9 C         -31.2239   46.9238  -10.7134 C.3     1  UNL1        0.0252
     10 C         -31.1203   46.1975   -9.3532 C.3     1  UNL1        0.0472
     11 C         -29.8307   45.3317   -9.2810 C.3     1  UNL1        0.0252
     12 C         -28.7219   45.7943  -10.2411 C.3     1  UNL1        0.0923
     13 C         -31.2431   47.2023   -8.1845 C.3     1  UNL1        0.2054
     14 O         -30.4196   46.8181   -7.0796 O.3     1  UNL1       -0.4755
     15 C         -29.2781   47.4920   -6.6069 C.ar    1  UNL1        0.1388
     16 C         -29.1257   48.8926   -6.6629 C.ar    1  UNL1        0.0369
     17 C         -27.9640   49.4943   -6.1760 C.ar    1  UNL1        0.0033
     18 C         -26.9434   48.7152   -5.6288 C.ar    1  UNL1        0.0066
     19 C         -27.0737   47.3175   -5.5657 C.ar    1  UNL1        0.0785
     20 C         -28.2461   46.7183   -6.0595 C.ar    1  UNL1        0.0433
     21 C         -25.9947   46.4848   -4.9895 C.2     1  UNL1        0.3381
     22 O         -25.2036   45.8541   -5.7421 O.2     1  UNL1       -0.2451
     23 O         -25.8425   46.3897   -3.6086 O.3     1  UNL1       -0.4771
     24 H         -25.1071   45.8224   -3.2039 H       1  UNL1        0.2954
     25 C         -23.4831   51.1313   -9.8118 C.2     1  UNL1        0.2839
     26 O         -23.4174   50.6964  -10.9931 O.2     1  UNL1       -0.2665
     27 N         -24.4356   50.5777   -8.8893 N.am    1  UNL1       -0.2766
     28 H         -24.2728   50.7254   -7.8674 H       1  UNL1        0.1553
     29 C         -23.6597   54.2638  -10.4647 C.3     1  UNL1        0.0345
     30 C         -22.6268   53.5525   -9.6434 C.ar    1  UNL1        0.0202
     31 C         -22.5528   52.1838   -9.3614 C.ar    1  UNL1        0.1946
     32 O         -21.5000   51.9347   -8.6029 O.2     1  UNL1       -0.4492
     33 C         -20.8868   53.0712   -8.3791 C.ar    1  UNL1        0.1452
     34 C         -19.7344   53.2747   -7.6284 C.ar    1  UNL1        0.0375
     35 C         -19.2434   54.5868   -7.5152 C.ar    1  UNL1        0.0031
     36 C         -19.9076   55.6706   -8.1508 C.ar    1  UNL1        0.0002
     37 C         -21.0780   55.4200   -8.9066 C.ar    1  UNL1        0.0028
     38 C         -21.5372   54.1051   -8.9978 C.ar    1  UNL1        0.0337
     39 C         -19.3795   57.0527   -8.0240 C.ar    1  UNL1        0.0000
     40 C         -19.6187   58.0054   -9.0321 C.ar    1  UNL1        0.0005
     41 C         -19.1198   59.3058   -8.9113 C.ar    1  UNL1        0.0059
     42 C         -18.3781   59.6714   -7.7839 C.ar    1  UNL1        0.0215
     43 S         -17.7409   61.3371   -7.6314 S.3     1  UNL1       -0.1414
     44 C         -18.1344   58.7334   -6.7764 C.ar    1  UNL1        0.0059
     45 C         -18.6307   57.4317   -6.8940 C.ar    1  UNL1        0.0005
     46 H         -18.9048   61.7798   -6.9754 H       1  UNL1        0.1071
@<TRIPOS>BOND
     1    29    30    1
     2    30    31   ar
     3    31    25    1
     4    25    26    2
     5    25    27   am
     6    27     1    1
     7     1     2   ar
     8     2     3   ar
     9     3     4   ar
    10     4     7    1
    11     7     8    1
    12     8     9    1
    13     9    10    1
    14    10    13    1
    15    13    14    1
    16    14    15    1
    17    15    16   ar
    18    16    17   ar
    19    17    18   ar
    20    18    19   ar
    21    19    21    1
    22    21    22    2
    23    21    23    1
    24    19    20   ar
    25    10    11    1
    26    11    12    1
    27     4     5   ar
    28     5     6   ar
    29    31    32   ar
    30    32    33   ar
    31    33    34   ar
    32    34    35   ar
    33    35    36   ar
    34    36    39    1
    35    39    40   ar
    36    40    41   ar
    37    41    42   ar
    38    42    43    1
    39    42    44   ar
    40    44    45   ar
    41    36    37   ar
    42    37    38   ar
    43    38    30   ar
    44     6     1   ar
    45    38    33   ar
    46    12     7    1
    47    45    39   ar
    48    20    15   ar
    49    27    28    1
    50    23    24    1
    51    43    46    1
@<TRIPOS>MOLECULE
*****
 46 51 0 0 0
SMALL
GASTEIGER

@<TRIPOS>ATOM
      1 C         -25.3138   49.7557   -9.1014 C.ar    1  UNL1        0.0702
      2 C         -25.4938   48.5442   -8.4237 C.ar    1  UNL1        0.0191
      3 C         -26.5490   47.6966   -8.7648 C.ar    1  UNL1        0.0356
      4 C         -27.4404   48.0730   -9.7836 C.ar    1  UNL1        0.1318
      5 N         -27.2650   49.2743  -10.4021 N.ar    1  UNL1       -0.2279
      6 C         -26.2437   50.1139  -10.0896 C.ar    1  UNL1        0.1149
      7 N         -28.5243   47.2084  -10.1888 N.pl3   1  UNL1       -0.2932
      8 C         -29.5432   47.6707  -11.1470 C.3     1  UNL1        0.0923
      9 C         -30.8844   46.9426  -10.9371 C.3     1  UNL1        0.0252
     10 C         -31.1576   46.6825   -9.4384 C.3     1  UNL1        0.0472
     11 C         -30.0307   45.8154   -8.8092 C.3     1  UNL1        0.0252
     12 C         -28.6976   45.8866   -9.5727 C.3     1  UNL1        0.0923
     13 C         -31.3925   48.0123   -8.6852 C.3     1  UNL1        0.2054
     14 O         -30.4603   48.1739   -7.6123 O.3     1  UNL1       -0.4755
     15 C         -29.6155   49.2777   -7.3911 C.ar    1  UNL1        0.1388
     16 C         -29.6216   50.4331   -8.1990 C.ar    1  UNL1        0.0369
     17 C         -28.7538   51.4907   -7.9216 C.ar    1  UNL1        0.0033
     18 C         -27.8730   51.4143   -6.8416 C.ar    1  UNL1        0.0066
     19 C         -27.8487   50.2709   -6.0252 C.ar    1  UNL1        0.0785
     20 C         -28.7247   49.2089   -6.3117 C.ar    1  UNL1        0.0433
     21 C         -26.9156   50.1816   -4.8802 C.2     1  UNL1        0.3381
     22 O         -26.6815   49.0703   -4.3322 O.2     1  UNL1       -0.2451
     23 O         -26.2862   51.3257   -4.3963 O.3     1  UNL1       -0.4771
     24 H         -25.6458   51.2754   -3.6129 H       1  UNL1        0.2954
     25 C         -23.3138   51.2069   -9.6764 C.2     1  UNL1        0.2839
     26 O         -23.2691   50.7827  -10.8625 O.2     1  UNL1       -0.2665
     27 N         -24.2285   50.6242   -8.7338 N.am    1  UNL1       -0.2766
     28 H         -24.0423   50.7678   -7.7153 H       1  UNL1        0.1553
     29 C         -23.5318   54.3276  -10.3718 C.3     1  UNL1        0.0345
     30 C         -22.4887   53.6411   -9.5424 C.ar    1  UNL1        0.0202
     31 C         -22.3966   52.2775   -9.2418 C.ar    1  UNL1        0.1946
     32 O         -21.3397   52.0525   -8.4815 O.2     1  UNL1       -0.4492
     33 C         -20.7410   53.1998   -8.2742 C.ar    1  UNL1        0.1452
     34 C         -19.5904   53.4285   -7.5280 C.ar    1  UNL1        0.0375
     35 C         -19.1162   54.7483   -7.4336 C.ar    1  UNL1        0.0031
     36 C         -19.7952   55.8146   -8.0830 C.ar    1  UNL1        0.0002
     37 C         -20.9633   55.5384   -8.8336 C.ar    1  UNL1        0.0028
     38 C         -21.4055   54.2165   -8.9060 C.ar    1  UNL1        0.0337
     39 C         -19.2850   57.2050   -7.9760 C.ar    1  UNL1        0.0000
     40 C         -18.5485   57.6121   -6.8478 C.ar    1  UNL1        0.0005
     41 C         -18.0699   58.9219   -6.7485 C.ar    1  UNL1        0.0059
     42 C         -18.3190   59.8401   -7.7731 C.ar    1  UNL1        0.0215
     43 S         -17.7047   61.5162   -7.6438 S.3     1  UNL1       -0.1414
     44 C         -19.0493   59.4467   -8.8983 C.ar    1  UNL1        0.0059
     45 C         -19.5306   58.1381   -9.0009 C.ar    1  UNL1        0.0005
     46 H         -16.4942   61.1787   -8.2777 H       1  UNL1        0.1071
@<TRIPOS>BOND
     1    29    30    1
     2    30    31   ar
     3    31    25    1
     4    25    26    2
     5    25    27   am
     6    27     1    1
     7     1     2   ar
     8     2     3   ar
     9     3     4   ar
    10     4     7    1
    11     7     8    1
    12     8     9    1
    13     9    10    1
    14    10    13    1
    15    13    14    1
    16    14    15    1
    17    15    16   ar
    18    16    17   ar
    19    17    18   ar
    20    18    19   ar
    21    19    21    1
    22    21    22    2
    23    21    23    1
    24    19    20   ar
    25    10    11    1
    26    11    12    1
    27     4     5   ar
    28     5     6   ar
    29    31    32   ar
    30    32    33   ar
    31    33    34   ar
    32    34    35   ar
    33    35    36   ar
    34    36    39    1
    35    39    40   ar
    36    40    41   ar
    37    41    42   ar
    38    42    43    1
    39    42    44   ar
    40    44    45   ar
    41    36    37   ar
    42    37    38   ar
    43    38    30   ar
    44     6     1   ar
    45    38    33   ar
    46    12     7    1
    47    45    39   ar
    48    20    15   ar
    49    27    28    1
    50    23    24    1
    51    43    46    1
@<TRIPOS>MOLECULE
*****
 46 51 0 0 0
SMALL
GASTEIGER

@<TRIPOS>ATOM
      1 C         -27.6887   49.3460   -5.8468 C.ar    1  UNL1        0.0702
      2 C         -27.3800   49.3359   -4.4816 C.ar    1  UNL1        0.0191
      3 C         -28.3610   49.0200   -3.5402 C.ar    1  UNL1        0.0356
      4 C         -29.6663   48.7264   -3.9695 C.ar    1  UNL1        0.1318
      5 N         -29.9497   48.7796   -5.3011 N.ar    1  UNL1       -0.2279
      6 C         -29.0109   49.0811   -6.2357 C.ar    1  UNL1        0.1149
      7 N         -30.7007   48.3618   -3.0294 N.pl3   1  UNL1       -0.2932
      8 C         -30.8263   49.0553   -1.7359 C.3     1  UNL1        0.0923
      9 C         -31.4702   48.1474   -0.6709 C.3     1  UNL1        0.0252
     10 C         -31.0116   46.6799   -0.8275 C.3     1  UNL1        0.0472
     11 C         -31.3885   46.1253   -2.2304 C.3     1  UNL1        0.0252
     12 C         -31.5836   47.2185   -3.2945 C.3     1  UNL1        0.0923
     13 C         -29.5065   46.5383   -0.5030 C.3     1  UNL1        0.2054
     14 O         -28.9082   45.4827   -1.2607 O.3     1  UNL1       -0.4755
     15 C         -28.0507   45.6234   -2.3678 C.ar    1  UNL1        0.1388
     16 C         -26.6702   45.8849   -2.2511 C.ar    1  UNL1        0.0369
     17 C         -25.8790   46.0141   -3.3939 C.ar    1  UNL1        0.0033
     18 C         -26.4472   45.8847   -4.6622 C.ar    1  UNL1        0.0066
     19 C         -27.8214   45.6268   -4.8012 C.ar    1  UNL1        0.0785
     20 C         -28.6124   45.4994   -3.6455 C.ar    1  UNL1        0.0433
     21 C         -28.4314   45.4913   -6.1426 C.2     1  UNL1        0.3381
     22 O         -27.9075   46.0537   -7.1422 O.2     1  UNL1       -0.2451
     23 O         -29.5914   44.7401   -6.3139 O.3     1  UNL1       -0.4771
     24 H         -30.0170   44.6411   -7.2279 H       1  UNL1        0.2954
     25 C         -26.5976   50.9460   -7.4859 C.2     1  UNL1        0.2839
     26 O         -27.5758   51.7405   -7.4565 O.2     1  UNL1       -0.2665
     27 N         -26.6714   49.6824   -6.8056 N.am    1  UNL1       -0.2766
     28 H         -26.0002   48.9326   -7.0878 H       1  UNL1        0.1553
     29 C         -23.5985   49.9837   -6.8946 C.3     1  UNL1        0.0345
     30 C         -24.0767   50.8766   -7.9998 C.ar    1  UNL1        0.0202
     31 C         -25.3876   51.2952   -8.2540 C.ar    1  UNL1        0.1946
     32 O         -25.4142   52.0766   -9.3191 O.2     1  UNL1       -0.4492
     33 C         -24.1879   52.1871   -9.7684 C.ar    1  UNL1        0.1452
     34 C         -23.7558   52.9138  -10.8721 C.ar    1  UNL1        0.0375
     35 C         -22.3846   52.8934  -11.1803 C.ar    1  UNL1        0.0031
     36 C         -21.4701   52.1511  -10.3851 C.ar    1  UNL1        0.0002
     37 C         -21.9514   51.4250   -9.2693 C.ar    1  UNL1        0.0028
     38 C         -23.3188   51.4679   -8.9925 C.ar    1  UNL1        0.0337
     39 C         -20.0237   52.1369  -10.7206 C.ar    1  UNL1        0.0000
     40 C         -19.5865   52.4666  -12.0173 C.ar    1  UNL1        0.0005
     41 C         -18.2243   52.4516  -12.3314 C.ar    1  UNL1        0.0059
     42 C         -17.2826   52.1090  -11.3564 C.ar    1  UNL1        0.0215
     43 S         -15.5391   52.0911  -11.7609 S.3     1  UNL1       -0.1414
     44 C         -17.7053   51.7799  -10.0652 C.ar    1  UNL1        0.0059
     45 C         -19.0667   51.7927   -9.7473 C.ar    1  UNL1        0.0005
     46 H         -15.3856   53.4417  -11.3957 H       1  UNL1        0.1071
@<TRIPOS>BOND
     1    29    30    1
     2    30    31   ar
     3    31    25    1
     4    25    26    2
     5    25    27   am
     6    27     1    1
     7     1     2   ar
     8     2     3   ar
     9     3     4   ar
    10     4     7    1
    11     7     8    1
    12     8     9    1
    13     9    10    1
    14    10    13    1
    15    13    14    1
    16    14    15    1
    17    15    16   ar
    18    16    17   ar
    19    17    18   ar
    20    18    19   ar
    21    19    21    1
    22    21    22    2
    23    21    23    1
    24    19    20   ar
    25    10    11    1
    26    11    12    1
    27     4     5   ar
    28     5     6   ar
    29    31    32   ar
    30    32    33   ar
    31    33    34   ar
    32    34    35   ar
    33    35    36   ar
    34    36    39    1
    35    39    40   ar
    36    40    41   ar
    37    41    42   ar
    38    42    43    1
    39    42    44   ar
    40    44    45   ar
    41    36    37   ar
    42    37    38   ar
    43    38    30   ar
    44     6     1   ar
    45    38    33   ar
    46    12     7    1
    47    45    39   ar
    48    20    15   ar
    49    27    28    1
    50    23    24    1
    51    43    46    1
@<TRIPOS>MOLECULE
*****
 46 51 0 0 0
SMALL
GASTEIGER

@<TRIPOS>ATOM
      1 C         -26.4190   49.5973   -9.7088 C.ar    1  UNL1        0.0702
      2 C         -26.4872   48.2773   -9.2480 C.ar    1  UNL1        0.0191
      3 C         -27.6422   47.5199   -9.4495 C.ar    1  UNL1        0.0356
      4 C         -28.7439   48.0949  -10.1050 C.ar    1  UNL1        0.1318
      5 N         -28.6654   49.3933  -10.5106 N.ar    1  UNL1       -0.2279
      6 C         -27.5510   50.1487  -10.3286 C.ar    1  UNL1        0.1149
      7 N         -29.9442   47.3338  -10.3627 N.pl3   1  UNL1       -0.2932
      8 C         -29.9330   45.8617  -10.3089 C.3     1  UNL1        0.0923
      9 C         -31.0189   45.2571  -11.2190 C.3     1  UNL1        0.0252
     10 C         -31.1874   46.0763  -12.5185 C.3     1  UNL1        0.0472
     11 C         -31.5822   47.5468  -12.2026 C.3     1  UNL1        0.0252
     12 C         -31.1784   48.0048  -10.7911 C.3     1  UNL1        0.0923
     13 C         -29.9257   45.9636  -13.4051 C.3     1  UNL1        0.2054
     14 O         -30.2492   45.4765  -14.7106 O.3     1  UNL1       -0.4755
     15 C         -30.0833   46.1613  -15.9290 C.ar    1  UNL1        0.1388
     16 C         -30.1595   45.5324  -17.1886 C.ar    1  UNL1        0.0369
     17 C         -29.9829   46.2745  -18.3577 C.ar    1  UNL1        0.0033
     18 C         -29.7303   47.6455  -18.2904 C.ar    1  UNL1        0.0066
     19 C         -29.6478   48.2916  -17.0452 C.ar    1  UNL1        0.0785
     20 C         -29.8252   47.5373  -15.8718 C.ar    1  UNL1        0.0433
     21 C         -29.3774   49.7443  -16.9659 C.2     1  UNL1        0.3381
     22 O         -30.1347   50.5676  -17.5478 O.2     1  UNL1       -0.2451
     23 O         -28.2825   50.2165  -16.2466 O.3     1  UNL1       -0.4771
     24 H         -28.0885   51.2090  -16.1861 H       1  UNL1        0.2954
     25 C         -24.3814   50.8600  -10.5397 C.2     1  UNL1        0.2839
     26 O         -24.5127   50.4222  -11.7145 O.2     1  UNL1       -0.2665
     27 N         -25.2268   50.3697   -9.4864 N.am    1  UNL1       -0.2766
     28 H         -24.9112   50.5060   -8.4993 H       1  UNL1        0.1553
     29 C         -24.8050   53.9379   -9.7538 C.3     1  UNL1        0.0345
     30 C         -23.5109   53.1935   -9.8910 C.ar    1  UNL1        0.0202
     31 C         -23.3303   51.8493  -10.2353 C.ar    1  UNL1        0.1946
     32 O         -22.0420   51.5562  -10.2528 O.2     1  UNL1       -0.4492
     33 C         -21.3778   52.6413   -9.9383 C.ar    1  UNL1        0.1452
     34 C         -19.9989   52.7866   -9.8356 C.ar    1  UNL1        0.0375
     35 C         -19.4927   54.0488   -9.4801 C.ar    1  UNL1        0.0031
     36 C         -20.3674   55.1416   -9.2340 C.ar    1  UNL1        0.0002
     37 C         -21.7653   54.9512   -9.3500 C.ar    1  UNL1        0.0028
     38 C         -22.2329   53.6849   -9.7050 C.ar    1  UNL1        0.0337
     39 C         -19.8211   56.4704   -8.8589 C.ar    1  UNL1        0.0000
     40 C         -19.9854   57.5783   -9.7114 C.ar    1  UNL1        0.0005
     41 C         -19.4694   58.8283   -9.3569 C.ar    1  UNL1        0.0059
     42 C         -18.7849   58.9883   -8.1483 C.ar    1  UNL1        0.0215
     43 S         -18.1258   60.5899   -7.6964 S.3     1  UNL1       -0.1414
     44 C         -18.6158   57.8950   -7.2937 C.ar    1  UNL1        0.0059
     45 C         -19.1294   56.6430   -7.6451 C.ar    1  UNL1        0.0005
     46 H         -19.3159   60.9542   -7.0393 H       1  UNL1        0.1071
@<TRIPOS>BOND
     1    29    30    1
     2    30    31   ar
     3    31    25    1
     4    25    26    2
     5    25    27   am
     6    27     1    1
     7     1     2   ar
     8     2     3   ar
     9     3     4   ar
    10     4     7    1
    11     7     8    1
    12     8     9    1
    13     9    10    1
    14    10    13    1
    15    13    14    1
    16    14    15    1
    17    15    16   ar
    18    16    17   ar
    19    17    18   ar
    20    18    19   ar
    21    19    21    1
    22    21    22    2
    23    21    23    1
    24    19    20   ar
    25    10    11    1
    26    11    12    1
    27     4     5   ar
    28     5     6   ar
    29    31    32   ar
    30    32    33   ar
    31    33    34   ar
    32    34    35   ar
    33    35    36   ar
    34    36    39    1
    35    39    40   ar
    36    40    41   ar
    37    41    42   ar
    38    42    43    1
    39    42    44   ar
    40    44    45   ar
    41    36    37   ar
    42    37    38   ar
    43    38    30   ar
    44     6     1   ar
    45    38    33   ar
    46    12     7    1
    47    45    39   ar
    48    20    15   ar
    49    27    28    1
    50    23    24    1
    51    43    46    1
@<TRIPOS>MOLECULE
*****
 46 51 0 0 0
SMALL
GASTEIGER

@<TRIPOS>ATOM
      1 C         -25.5793   49.8461   -9.2692 C.ar    1  UNL1        0.0702
      2 C         -26.6467   50.3857   -9.9965 C.ar    1  UNL1        0.0191
      3 C         -27.7219   49.5789  -10.3721 C.ar    1  UNL1        0.0356
      4 C         -27.7207   48.2163  -10.0291 C.ar    1  UNL1        0.1318
      5 N         -26.6523   47.7079   -9.3534 N.ar    1  UNL1       -0.2279
      6 C         -25.5966   48.4742   -8.9743 C.ar    1  UNL1        0.1149
      7 N         -28.8300   47.3562  -10.3698 N.pl3   1  UNL1       -0.2932
      8 C         -30.2204   47.7965  -10.1624 C.3     1  UNL1        0.0923
      9 C         -31.1621   46.5985   -9.9364 C.3     1  UNL1        0.0252
     10 C         -30.4731   45.4852   -9.1154 C.3     1  UNL1        0.0472
     11 C         -29.1964   44.9696   -9.8379 C.3     1  UNL1        0.0252
     12 C         -28.5970   45.9809  -10.8294 C.3     1  UNL1        0.0923
     13 C         -30.2025   45.9586   -7.6686 C.3     1  UNL1        0.2054
     14 O         -28.8301   45.7749   -7.3094 O.3     1  UNL1       -0.4755
     15 C         -28.2168   46.1638   -6.1038 C.ar    1  UNL1        0.1388
     16 C         -27.1248   47.0534   -6.0411 C.ar    1  UNL1        0.0369
     17 C         -26.5643   47.3944   -4.8089 C.ar    1  UNL1        0.0033
     18 C         -27.0805   46.8586   -3.6280 C.ar    1  UNL1        0.0066
     19 C         -28.1667   45.9681   -3.6680 C.ar    1  UNL1        0.0785
     20 C         -28.7250   45.6281   -4.9131 C.ar    1  UNL1        0.0433
     21 C         -28.7174   45.3938   -2.4204 C.2     1  UNL1        0.3381
     22 O         -29.6588   44.5560   -2.4640 O.2     1  UNL1       -0.2451
     23 O         -28.2003   45.7736   -1.1845 O.3     1  UNL1       -0.4771
     24 H         -28.5701   45.3865   -0.3244 H       1  UNL1        0.2954
     25 C         -23.5125   51.2067   -9.8298 C.2     1  UNL1        0.2839
     26 O         -23.4512   50.7453  -11.0012 O.2     1  UNL1       -0.2665
     27 N         -24.4733   50.6860   -8.8967 N.am    1  UNL1       -0.2766
     28 H         -24.3097   50.8537   -7.8781 H       1  UNL1        0.1553
     29 C         -23.7881   54.3609  -10.3251 C.3     1  UNL1        0.0345
     30 C         -22.6859   53.6345   -9.6145 C.ar    1  UNL1        0.0202
     31 C         -22.5689   52.2565   -9.4010 C.ar    1  UNL1        0.1946
     32 O         -21.4592   51.9949   -8.7334 O.2     1  UNL1       -0.4492
     33 C         -20.8499   53.1323   -8.5035 C.ar    1  UNL1        0.1452
     34 C         -19.6487   53.3252   -7.8303 C.ar    1  UNL1        0.0375
     35 C         -19.1723   54.6405   -7.6938 C.ar    1  UNL1        0.0031
     36 C         -19.8992   55.7379   -8.2295 C.ar    1  UNL1        0.0002
     37 C         -21.1179   55.4978   -8.9085 C.ar    1  UNL1        0.0028
     38 C         -21.5609   54.1794   -9.0256 C.ar    1  UNL1        0.0337
     39 C         -19.3860   57.1232   -8.0789 C.ar    1  UNL1        0.0000
     40 C         -19.6127   58.0834   -9.0827 C.ar    1  UNL1        0.0005
     41 C         -19.1278   59.3868   -8.9395 C.ar    1  UNL1        0.0059
     42 C         -18.4126   59.7480   -7.7938 C.ar    1  UNL1        0.0215
     43 S         -17.7933   61.4175   -7.6126 S.3     1  UNL1       -0.1414
     44 C         -18.1814   58.8025   -6.7903 C.ar    1  UNL1        0.0059
     45 C         -18.6638   57.4978   -6.9302 C.ar    1  UNL1        0.0005
     46 H         -18.9743   61.8440   -6.9766 H       1  UNL1        0.1071
@<TRIPOS>BOND
     1    29    30    1
     2    30    31   ar
     3    31    25    1
     4    25    26    2
     5    25    27   am
     6    27     1    1
     7     1     2   ar
     8     2     3   ar
     9     3     4   ar
    10     4     7    1
    11     7     8    1
    12     8     9    1
    13     9    10    1
    14    10    13    1
    15    13    14    1
    16    14    15    1
    17    15    16   ar
    18    16    17   ar
    19    17    18   ar
    20    18    19   ar
    21    19    21    1
    22    21    22    2
    23    21    23    1
    24    19    20   ar
    25    10    11    1
    26    11    12    1
    27     4     5   ar
    28     5     6   ar
    29    31    32   ar
    30    32    33   ar
    31    33    34   ar
    32    34    35   ar
    33    35    36   ar
    34    36    39    1
    35    39    40   ar
    36    40    41   ar
    37    41    42   ar
    38    42    43    1
    39    42    44   ar
    40    44    45   ar
    41    36    37   ar
    42    37    38   ar
    43    38    30   ar
    44     6     1   ar
    45    38    33   ar
    46    12     7    1
    47    45    39   ar
    48    20    15   ar
    49    27    28    1
    50    23    24    1
    51    43    46    1
@<TRIPOS>MOLECULE
*****
 46 51 0 0 0
SMALL
GASTEIGER

@<TRIPOS>ATOM
      1 C         -25.1418   49.7330   -9.1071 C.ar    1  UNL1        0.0702
      2 C         -25.7604   49.8788  -10.3543 C.ar    1  UNL1        0.0191
      3 C         -26.7889   49.0155  -10.7353 C.ar    1  UNL1        0.0356
      4 C         -27.1908   47.9878   -9.8655 C.ar    1  UNL1        0.1318
      5 N         -26.5473   47.8444   -8.6731 N.ar    1  UNL1       -0.2279
      6 C         -25.5463   48.6743   -8.2795 C.ar    1  UNL1        0.1149
      7 N         -28.2736   47.0955  -10.2087 N.pl3   1  UNL1       -0.2932
      8 C         -29.4062   47.5600  -11.0282 C.3     1  UNL1        0.0923
      9 C         -30.6858   46.7574  -10.7260 C.3     1  UNL1        0.0252
     10 C         -30.7889   46.4022   -9.2255 C.3     1  UNL1        0.0472
     11 C         -29.5663   45.5572   -8.7680 C.3     1  UNL1        0.0252
     12 C         -28.3250   45.7348   -9.6583 C.3     1  UNL1        0.0923
     13 C         -30.9996   47.6754   -8.3739 C.3     1  UNL1        0.2054
     14 O         -31.1105   48.8396   -9.1978 O.3     1  UNL1       -0.4755
     15 C         -30.1988   49.9094   -9.2694 C.ar    1  UNL1        0.1388
     16 C         -29.3467   50.2745   -8.2072 C.ar    1  UNL1        0.0369
     17 C         -28.4671   51.3494   -8.3478 C.ar    1  UNL1        0.0033
     18 C         -28.4226   52.0716   -9.5413 C.ar    1  UNL1        0.0066
     19 C         -29.2651   51.7261  -10.6116 C.ar    1  UNL1        0.0785
     20 C         -30.1496   50.6432  -10.4621 C.ar    1  UNL1        0.0433
     21 C         -29.2256   52.4890  -11.8790 C.2     1  UNL1        0.3381
     22 O         -29.9290   53.5256  -12.0228 O.2     1  UNL1       -0.2451
     23 O         -28.4098   52.0687  -12.9264 O.3     1  UNL1       -0.4771
     24 H         -28.3755   52.5838  -13.7982 H       1  UNL1        0.2954
     25 C         -23.1711   51.2298   -9.6666 C.2     1  UNL1        0.2839
     26 O         -23.1122   50.8123  -10.8545 O.2     1  UNL1       -0.2665
     27 N         -24.0771   50.6230   -8.7307 N.am    1  UNL1       -0.2766
     28 H         -23.8984   50.7658   -7.7108 H       1  UNL1        0.1553
     29 C         -23.3973   54.3346  -10.4279 C.3     1  UNL1        0.0345
     30 C         -22.3750   53.6746   -9.5523 C.ar    1  UNL1        0.0202
     31 C         -22.2793   52.3179   -9.2230 C.ar    1  UNL1        0.1946
     32 O         -21.2455   52.1183   -8.4248 O.2     1  UNL1       -0.4492
     33 C         -20.6652   53.2755   -8.2201 C.ar    1  UNL1        0.1452
     34 C         -19.5418   53.5302   -7.4416 C.ar    1  UNL1        0.0375
     35 C         -19.0841   54.8565   -7.3570 C.ar    1  UNL1        0.0031
     36 C         -19.7521   55.9032   -8.0482 C.ar    1  UNL1        0.0002
     37 C         -20.8924   55.6008   -8.8307 C.ar    1  UNL1        0.0028
     38 C         -21.3188   54.2732   -8.8923 C.ar    1  UNL1        0.0337
     39 C         -19.2595   57.3007   -7.9512 C.ar    1  UNL1        0.0000
     40 C         -19.5445   58.2321   -8.9672 C.ar    1  UNL1        0.0005
     41 C         -19.0788   59.5470   -8.8744 C.ar    1  UNL1        0.0059
     42 C         -18.3250   59.9485   -7.7675 C.ar    1  UNL1        0.0215
     43 S         -17.7305   61.6327   -7.6508 S.3     1  UNL1       -0.1414
     44 C         -18.0359   59.0319   -6.7523 C.ar    1  UNL1        0.0059
     45 C         -18.4989   57.7158   -6.8418 C.ar    1  UNL1        0.0005
     46 H         -18.8927   62.0533   -6.9776 H       1  UNL1        0.1071
@<TRIPOS>BOND
     1    29    30    1
     2    30    31   ar
     3    31    25    1
     4    25    26    2
     5    25    27   am
     6    27     1    1
     7     1     2   ar
     8     2     3   ar
     9     3     4   ar
    10     4     7    1
    11     7     8    1
    12     8     9    1
    13     9    10    1
    14    10    13    1
    15    13    14    1
    16    14    15    1
    17    15    16   ar
    18    16    17   ar
    19    17    18   ar
    20    18    19   ar
    21    19    21    1
    22    21    22    2
    23    21    23    1
    24    19    20   ar
    25    10    11    1
    26    11    12    1
    27     4     5   ar
    28     5     6   ar
    29    31    32   ar
    30    32    33   ar
    31    33    34   ar
    32    34    35   ar
    33    35    36   ar
    34    36    39    1
    35    39    40   ar
    36    40    41   ar
    37    41    42   ar
    38    42    43    1
    39    42    44   ar
    40    44    45   ar
    41    36    37   ar
    42    37    38   ar
    43    38    30   ar
    44     6     1   ar
    45    38    33   ar
    46    12     7    1
    47    45    39   ar
    48    20    15   ar
    49    27    28    1
    50    23    24    1
    51    43    46    1
