@<TRIPOS>MOLECULE
*****
 47 51 0 0 0
SMALL
GASTEIGER

@<TRIPOS>ATOM
      1 C          -8.9566  -11.6773   31.8884 C.3     1  UNL1        0.1562
      2 C          -8.9729  -12.5325   33.1616 C.3     1  UNL1        0.0622
      3 C         -10.1932  -12.0611   33.9724 C.3     1  UNL1        0.1294
      4 O          -9.8565  -12.0123   35.3393 O.3     1  UNL1       -0.3808
      5 C         -10.4613  -10.6261   33.4676 C.3     1  UNL1        0.1264
      6 N          -9.8015  -10.5256   32.1746 N.am    1  UNL1       -0.2544
      7 C         -10.0728   -9.4817   31.2208 C.2     1  UNL1        0.3081
      8 O          -9.7103   -9.6254   30.0215 O.2     1  UNL1       -0.2522
      9 N         -10.7499   -8.2793   31.6250 N.am    1  UNL1       -0.2681
     10 H         -10.6407  -11.6414   35.8239 H       1  UNL1        0.2107
     11 H         -11.3652   -8.3076   32.4676 H       1  UNL1        0.1564
     12 C         -11.3709  -13.0219   33.7244 C.ar    1  UNL1        0.0310
     13 C         -12.3050  -12.7694   32.6933 C.ar    1  UNL1        0.0026
     14 C         -13.3449  -13.6645   32.4317 C.ar    1  UNL1        0.0295
     15 C         -13.4580  -14.8422   33.1689 C.ar    1  UNL1        0.1424
     16 F         -14.4657  -15.7113   32.9094 F       1  UNL1       -0.2041
     17 C         -12.5193  -15.1363   34.1575 C.ar    1  UNL1        0.0590
     18 C         -11.4734  -14.2474   34.4273 C.ar    1  UNL1        0.1406
     19 F         -10.5533  -14.6072   35.3577 F       1  UNL1       -0.2044
     20 C         -10.6444   -7.0283   30.9243 C.ar    1  UNL1        0.0516
     21 C          -9.6098   -6.7882   30.0005 C.ar    1  UNL1        0.0156
     22 C          -9.5081   -5.5489   29.3612 C.ar    1  UNL1        0.0127
     23 C         -10.4276   -4.5347   29.6458 C.ar    1  UNL1        0.0578
     24 CL        -10.2959   -2.9798   28.8450 Cl      1  UNL1       -0.0822
     25 C         -11.4453   -4.7583   30.5780 C.ar    1  UNL1        0.0127
     26 C         -11.5485   -5.9961   31.2198 C.ar    1  UNL1        0.0156
     27 N          -7.0930  -11.3407   30.1279 N.am    1  UNL1       -0.2680
     28 C          -7.5487  -11.2794   31.4880 C.2     1  UNL1        0.2454
     29 O          -6.7871  -10.7860   32.3619 O.2     1  UNL1       -0.2730
     30 H          -6.4859  -10.5686   29.7722 H       1  UNL1        0.1563
     31 C          -8.1132  -14.4769   27.5043 C.ar    1  UNL1        0.2466
     32 C          -6.7702  -14.0943   27.6427 C.ar    1  UNL1        0.0736
     33 C          -6.4228  -13.0642   28.5186 C.ar    1  UNL1        0.0406
     34 C          -7.4268  -12.4078   29.2372 C.ar    1  UNL1        0.1346
     35 N          -8.7185  -12.8157   29.1178 N.ar    1  UNL1       -0.2228
     36 C          -9.0808  -13.8233   28.2817 C.ar    1  UNL1        0.1691
     37 C          -8.8087  -16.2661   24.3142 C.2     1  UNL1        0.1450
     38 C          -9.1724  -17.5312   24.7941 C.2     1  UNL1        0.0225
     39 C          -9.2069  -17.7775   26.1637 C.2     1  UNL1        0.1158
     40 C          -8.8685  -16.7602   27.0578 C.2     1  UNL1        0.4230
     41 O          -8.9293  -16.9904   28.2973 O.2     1  UNL1       -0.2135
     42 N          -8.4894  -15.5267   26.5902 N.am    1  UNL1       -0.0840
     43 C          -8.4590  -15.2731   25.2452 C.2     1  UNL1        0.2969
     44 O          -9.1482  -16.8994   22.0505 O.2     1  UNL1       -0.2449
     45 C          -8.7734  -16.0048   22.8547 C.2     1  UNL1        0.3441
     46 O          -8.3498  -14.7810   22.3376 O.3     1  UNL1       -0.4770
     47 H          -8.1367  -13.9852   22.9249 H       1  UNL1        0.2954
@<TRIPOS>BOND
     1    44    45    2
     2    45    46    1
     3    45    37    1
     4    37    38    1
     5    38    39    2
     6    39    40    1
     7    40    41    2
     8    40    42    1
     9    42    31    1
    10    31    32   ar
    11    32    33   ar
    12    33    34   ar
    13    34    27    1
    14    27    28   am
    15    28    29    2
    16    28     1    1
    17     1     2    1
    18     2     3    1
    19     3     4    1
    20     3    12    1
    21    12    13   ar
    22    13    14   ar
    23    14    15   ar
    24    15    16    1
    25    15    17   ar
    26    17    18   ar
    27    18    19    1
    28     3     5    1
    29     5     6    1
    30     6     7   am
    31     7     8    2
    32     7     9   am
    33     9    20    1
    34    20    21   ar
    35    21    22   ar
    36    22    23   ar
    37    23    24    1
    38    23    25   ar
    39    25    26   ar
    40    34    35   ar
    41    35    36   ar
    42    42    43    1
    43    43    37    2
    44    36    31   ar
    45     6     1    1
    46    26    20   ar
    47    18    12   ar
    48    46    47    1
    49    27    30    1
    50     4    10    1
    51     9    11    1
@<TRIPOS>MOLECULE
*****
 47 51 0 0 0
SMALL
GASTEIGER

@<TRIPOS>ATOM
      1 C          -8.2497   -7.7892   30.1409 C.3     1  UNL1        0.1562
      2 C          -8.3234   -7.0117   31.4610 C.3     1  UNL1        0.0622
      3 C          -7.5555   -7.8565   32.4931 C.3     1  UNL1        0.1294
      4 O          -8.2424   -7.8315   33.7226 O.3     1  UNL1       -0.3808
      5 C          -7.5941   -9.2916   31.9231 C.3     1  UNL1        0.1264
      6 N          -7.8859   -9.1522   30.5043 N.am    1  UNL1       -0.2544
      7 C          -7.6879  -10.2058   29.5431 C.2     1  UNL1        0.3081
      8 O          -7.6602   -9.9283   28.3132 O.2     1  UNL1       -0.2522
      9 N          -7.5244  -11.5678   29.9738 N.am    1  UNL1       -0.2681
     10 H          -7.7590   -8.4381   34.3438 H       1  UNL1        0.2107
     11 H          -7.1748  -11.7513   30.9400 H       1  UNL1        0.1564
     12 C          -6.1270   -7.3011   32.6436 C.ar    1  UNL1        0.0310
     13 C          -5.3349   -7.6383   33.7654 C.ar    1  UNL1        0.0026
     14 C          -4.0210   -7.1784   33.8807 C.ar    1  UNL1        0.0295
     15 C          -3.4593   -6.4009   32.8692 C.ar    1  UNL1        0.1424
     16 F          -2.1821   -5.9601   32.9819 F       1  UNL1       -0.2041
     17 C          -4.2050   -6.0972   31.7305 C.ar    1  UNL1        0.0590
     18 C          -5.5214   -6.5532   31.6042 C.ar    1  UNL1        0.1406
     19 F          -6.1841   -6.2805   30.4518 F       1  UNL1       -0.2044
     20 C          -7.8004  -12.7078   29.1423 C.ar    1  UNL1        0.0516
     21 C          -9.1009  -13.2330   29.0231 C.ar    1  UNL1        0.0156
     22 C          -9.3352  -14.3659   28.2378 C.ar    1  UNL1        0.0127
     23 C          -8.2752  -14.9921   27.5752 C.ar    1  UNL1        0.0578
     24 CL         -8.5711  -16.4151   26.5933 Cl      1  UNL1       -0.0822
     25 C          -6.9773  -14.4891   27.7057 C.ar    1  UNL1        0.0127
     26 C          -6.7398  -13.3573   28.4915 C.ar    1  UNL1        0.0156
     27 N         -10.7997   -8.1609   29.9288 N.am    1  UNL1       -0.2680
     28 C          -9.5529   -7.7227   29.3677 C.2     1  UNL1        0.2454
     29 O          -9.5570   -7.1740   28.2337 O.2     1  UNL1       -0.2730
     30 H         -11.6571   -7.5964   29.7356 H       1  UNL1        0.1563
     31 C         -11.1830  -11.5960   32.3397 C.ar    1  UNL1        0.2466
     32 C         -11.0654  -11.7321   30.9481 C.ar    1  UNL1        0.0736
     33 C         -10.9262  -10.5996   30.1435 C.ar    1  UNL1        0.0406
     34 C         -10.9262   -9.3334   30.7367 C.ar    1  UNL1        0.1346
     35 N         -11.0048   -9.2222   32.0897 N.ar    1  UNL1       -0.2228
     36 C         -11.1287  -10.3091   32.8953 C.ar    1  UNL1        0.1691
     37 C         -12.4899  -14.8316   33.6377 C.2     1  UNL1        0.1450
     38 C         -11.6678  -15.0194   34.7567 C.2     1  UNL1        0.0225
     39 C         -10.7059  -14.0688   35.0866 C.2     1  UNL1        0.1158
     40 C         -10.5575  -12.9308   34.2919 C.2     1  UNL1        0.4230
     41 O          -9.6988  -12.0651   34.6179 O.2     1  UNL1       -0.2135
     42 N         -11.3455  -12.7552   33.1819 N.am    1  UNL1       -0.0840
     43 C         -12.2988  -13.6812   32.8533 C.2     1  UNL1        0.2969
     44 O         -14.7040  -15.6899   33.6753 O.2     1  UNL1       -0.2449
     45 C         -13.5151  -15.8447   33.2881 C.2     1  UNL1        0.3441
     46 O         -13.2063  -16.9679   32.5215 O.3     1  UNL1       -0.4770
     47 H         -12.3011  -17.1016   32.0898 H       1  UNL1        0.2954
@<TRIPOS>BOND
     1    44    45    2
     2    45    46    1
     3    45    37    1
     4    37    38    1
     5    38    39    2
     6    39    40    1
     7    40    41    2
     8    40    42    1
     9    42    31    1
    10    31    32   ar
    11    32    33   ar
    12    33    34   ar
    13    34    27    1
    14    27    28   am
    15    28    29    2
    16    28     1    1
    17     1     2    1
    18     2     3    1
    19     3     4    1
    20     3    12    1
    21    12    13   ar
    22    13    14   ar
    23    14    15   ar
    24    15    16    1
    25    15    17   ar
    26    17    18   ar
    27    18    19    1
    28     3     5    1
    29     5     6    1
    30     6     7   am
    31     7     8    2
    32     7     9   am
    33     9    20    1
    34    20    21   ar
    35    21    22   ar
    36    22    23   ar
    37    23    24    1
    38    23    25   ar
    39    25    26   ar
    40    34    35   ar
    41    35    36   ar
    42    42    43    1
    43    43    37    2
    44    36    31   ar
    45     6     1    1
    46    26    20   ar
    47    18    12   ar
    48    46    47    1
    49    27    30    1
    50     4    10    1
    51     9    11    1
@<TRIPOS>MOLECULE
*****
 47 51 0 0 0
SMALL
GASTEIGER

@<TRIPOS>ATOM
      1 C          -8.3206   -8.4782   32.3416 C.3     1  UNL1        0.1562
      2 C          -7.5218   -7.7892   31.2281 C.3     1  UNL1        0.0622
      3 C          -8.3834   -7.9013   29.9578 C.3     1  UNL1        0.1294
      4 O          -7.5556   -8.1868   28.8544 O.3     1  UNL1       -0.3808
      5 C          -9.3060   -9.1116   30.2225 C.3     1  UNL1        0.1264
      6 N          -9.3111   -9.3045   31.6647 N.am    1  UNL1       -0.2544
      7 C         -10.2870  -10.1048   32.3579 C.2     1  UNL1        0.3081
      8 O         -10.4220   -9.9784   33.6054 O.2     1  UNL1       -0.2522
      9 N         -11.1044  -11.0455   31.6408 N.am    1  UNL1       -0.2681
     10 H          -8.1474   -8.3192   28.0672 H       1  UNL1        0.2107
     11 H         -11.2706  -10.8930   30.6217 H       1  UNL1        0.1564
     12 C          -9.1542   -6.5847   29.7479 C.ar    1  UNL1        0.0310
     13 C         -10.5679   -6.5633   29.7698 C.ar    1  UNL1        0.0026
     14 C         -11.2699   -5.3637   29.6310 C.ar    1  UNL1        0.0295
     15 C         -10.5805   -4.1595   29.4991 C.ar    1  UNL1        0.1424
     16 F         -11.2648   -2.9962   29.3694 F       1  UNL1       -0.2041
     17 C          -9.1861   -4.1503   29.5247 C.ar    1  UNL1        0.0590
     18 C          -8.4729   -5.3456   29.6639 C.ar    1  UNL1        0.1406
     19 F          -7.1199   -5.2767   29.7422 F       1  UNL1       -0.2044
     20 C         -11.7282  -12.1891   32.2492 C.ar    1  UNL1        0.0516
     21 C         -11.0615  -12.9608   33.2195 C.ar    1  UNL1        0.0156
     22 C         -11.6766  -14.0905   33.7674 C.ar    1  UNL1        0.0127
     23 C         -12.9548  -14.4683   33.3449 C.ar    1  UNL1        0.0578
     24 CL        -13.7230  -15.8878   34.0313 Cl      1  UNL1       -0.0822
     25 C         -13.6148  -13.7193   32.3661 C.ar    1  UNL1        0.0127
     26 C         -13.0015  -12.5899   31.8154 C.ar    1  UNL1        0.0156
     27 N          -6.4502  -10.2102   32.7743 N.am    1  UNL1       -0.2680
     28 C          -7.4286   -9.2826   33.2679 C.2     1  UNL1        0.2454
     29 O          -7.4801   -9.0560   34.5061 O.2     1  UNL1       -0.2730
     30 H          -5.5216  -10.2533   33.2508 H       1  UNL1        0.1563
     31 C          -7.1796  -12.7756   29.5114 C.ar    1  UNL1        0.2466
     32 C          -5.9501  -12.1063   29.6093 C.ar    1  UNL1        0.0736
     33 C          -5.6963  -11.2640   30.6932 C.ar    1  UNL1        0.0406
     34 C          -6.6852  -11.0801   31.6645 C.ar    1  UNL1        0.1346
     35 N          -7.8567  -11.7645   31.5725 N.ar    1  UNL1       -0.2228
     36 C          -8.1231  -12.5991   30.5343 C.ar    1  UNL1        0.1691
     37 C          -6.6574  -14.8528   26.4659 C.2     1  UNL1        0.1450
     38 C          -7.9594  -15.3163   26.2353 C.2     1  UNL1        0.0225
     39 C          -9.0011  -14.9233   27.0708 C.2     1  UNL1        0.1158
     40 C          -8.7414  -14.0718   28.1460 C.2     1  UNL1        0.4230
     41 O          -9.7001  -13.7034   28.8796 O.2     1  UNL1       -0.2135
     42 N          -7.4631  -13.6346   28.3884 N.am    1  UNL1       -0.0840
     43 C          -6.4333  -14.0102   27.5683 C.2     1  UNL1        0.2969
     44 O          -4.7988  -16.2248   25.9151 O.2     1  UNL1       -0.2449
     45 C          -5.5487  -15.2714   25.5743 C.2     1  UNL1        0.3441
     46 O          -5.3163  -14.6479   24.3488 O.3     1  UNL1       -0.4770
     47 H          -5.9400  -13.9498   23.9651 H       1  UNL1        0.2954
@<TRIPOS>BOND
     1    44    45    2
     2    45    46    1
     3    45    37    1
     4    37    38    1
     5    38    39    2
     6    39    40    1
     7    40    41    2
     8    40    42    1
     9    42    31    1
    10    31    32   ar
    11    32    33   ar
    12    33    34   ar
    13    34    27    1
    14    27    28   am
    15    28    29    2
    16    28     1    1
    17     1     2    1
    18     2     3    1
    19     3     4    1
    20     3    12    1
    21    12    13   ar
    22    13    14   ar
    23    14    15   ar
    24    15    16    1
    25    15    17   ar
    26    17    18   ar
    27    18    19    1
    28     3     5    1
    29     5     6    1
    30     6     7   am
    31     7     8    2
    32     7     9   am
    33     9    20    1
    34    20    21   ar
    35    21    22   ar
    36    22    23   ar
    37    23    24    1
    38    23    25   ar
    39    25    26   ar
    40    34    35   ar
    41    35    36   ar
    42    42    43    1
    43    43    37    2
    44    36    31   ar
    45     6     1    1
    46    26    20   ar
    47    18    12   ar
    48    46    47    1
    49    27    30    1
    50     4    10    1
    51     9    11    1
@<TRIPOS>MOLECULE
*****
 47 51 0 0 0
SMALL
GASTEIGER

@<TRIPOS>ATOM
      1 C          -6.6947  -15.7554   24.8677 C.3     1  UNL1        0.1562
      2 C          -8.0023  -14.9937   24.6174 C.3     1  UNL1        0.0622
      3 C          -8.6094  -15.6030   23.3411 C.3     1  UNL1        0.1294
      4 O          -9.1537  -14.5761   22.5453 O.3     1  UNL1       -0.3808
      5 C          -7.4062  -16.2296   22.6023 C.3     1  UNL1        0.1264
      6 N          -6.3651  -16.4013   23.6042 N.am    1  UNL1       -0.2544
      7 C          -5.2118  -17.2430   23.4183 C.2     1  UNL1        0.3081
      8 O          -4.5263  -17.5886   24.4189 O.2     1  UNL1       -0.2522
      9 N          -4.8357  -17.6890   22.1041 N.am    1  UNL1       -0.2681
     10 H          -9.4748  -14.9937   21.7027 H       1  UNL1        0.2107
     11 H          -5.5663  -17.7344   21.3601 H       1  UNL1        0.1564
     12 C          -9.6857  -16.6330   23.7312 C.ar    1  UNL1        0.0310
     13 C          -9.4644  -17.5443   24.7896 C.ar    1  UNL1        0.0026
     14 C         -10.4573  -18.4457   25.1802 C.ar    1  UNL1        0.0295
     15 C         -11.6993  -18.4377   24.5475 C.ar    1  UNL1        0.1424
     16 F         -12.6627  -19.3108   24.9322 F       1  UNL1       -0.2041
     17 C         -11.9576  -17.5146   23.5345 C.ar    1  UNL1        0.0590
     18 C         -10.9708  -16.6068   23.1359 C.ar    1  UNL1        0.1406
     19 F         -11.2911  -15.6909   22.1872 F       1  UNL1       -0.2044
     20 C          -3.5034  -18.0967   21.7490 C.ar    1  UNL1        0.0516
     21 C          -3.1183  -19.4505   21.7723 C.ar    1  UNL1        0.0156
     22 C          -1.8055  -19.8160   21.4594 C.ar    1  UNL1        0.0127
     23 C          -0.8628  -18.8363   21.1331 C.ar    1  UNL1        0.0578
     24 CL          0.7842  -19.2972   20.7441 Cl      1  UNL1       -0.0822
     25 C          -1.2322  -17.4879   21.1286 C.ar    1  UNL1        0.0127
     26 C          -2.5439  -17.1193   21.4425 C.ar    1  UNL1        0.0156
     27 N          -5.4903  -14.4249   26.7289 N.am    1  UNL1       -0.2680
     28 C          -5.5884  -14.8412   25.3584 C.2     1  UNL1        0.2454
     29 O          -4.6707  -14.5174   24.5583 O.2     1  UNL1       -0.2730
     30 H          -4.5434  -14.3796   27.1678 H       1  UNL1        0.1563
     31 C          -8.8178  -13.3346   29.0739 C.ar    1  UNL1        0.2466
     32 C          -8.8946  -14.4579   28.2364 C.ar    1  UNL1        0.0736
     33 C          -7.7927  -14.8325   27.4653 C.ar    1  UNL1        0.0406
     34 C          -6.6244  -14.0664   27.5219 C.ar    1  UNL1        0.1346
     35 N          -6.5556  -13.0024   28.3660 N.ar    1  UNL1       -0.2228
     36 C          -7.6095  -12.6247   29.1354 C.ar    1  UNL1        0.1691
     37 C         -11.6366  -13.4798   31.5019 C.2     1  UNL1        0.1450
     38 C         -12.1202  -12.1670   31.4249 C.2     1  UNL1        0.0225
     39 C         -11.5284  -11.2523   30.5584 C.2     1  UNL1        0.1158
     40 C         -10.4442  -11.6462   29.7723 C.2     1  UNL1        0.4230
     41 O          -9.9343  -10.8135   28.9725 O.2     1  UNL1       -0.2135
     42 N          -9.9534  -12.9248   29.8624 N.am    1  UNL1       -0.0840
     43 C         -10.5330  -13.8334   30.7067 C.2     1  UNL1        0.2969
     44 O         -12.8803  -14.0406   33.4459 O.2     1  UNL1       -0.2449
     45 C         -12.2688  -14.4537   32.4247 C.2     1  UNL1        0.3441
     46 O         -12.2223  -15.8270   32.1876 O.3     1  UNL1       -0.4770
     47 H         -11.8422  -16.2211   31.3368 H       1  UNL1        0.2954
@<TRIPOS>BOND
     1    44    45    2
     2    45    46    1
     3    45    37    1
     4    37    38    1
     5    38    39    2
     6    39    40    1
     7    40    41    2
     8    40    42    1
     9    42    31    1
    10    31    32   ar
    11    32    33   ar
    12    33    34   ar
    13    34    27    1
    14    27    28   am
    15    28    29    2
    16    28     1    1
    17     1     2    1
    18     2     3    1
    19     3     4    1
    20     3    12    1
    21    12    13   ar
    22    13    14   ar
    23    14    15   ar
    24    15    16    1
    25    15    17   ar
    26    17    18   ar
    27    18    19    1
    28     3     5    1
    29     5     6    1
    30     6     7   am
    31     7     8    2
    32     7     9   am
    33     9    20    1
    34    20    21   ar
    35    21    22   ar
    36    22    23   ar
    37    23    24    1
    38    23    25   ar
    39    25    26   ar
    40    34    35   ar
    41    35    36   ar
    42    42    43    1
    43    43    37    2
    44    36    31   ar
    45     6     1    1
    46    26    20   ar
    47    18    12   ar
    48    46    47    1
    49    27    30    1
    50     4    10    1
    51     9    11    1
@<TRIPOS>MOLECULE
*****
 47 51 0 0 0
SMALL
GASTEIGER

@<TRIPOS>ATOM
      1 C          -8.6018  -11.4230   32.1377 C.3     1  UNL1        0.1562
      2 C          -8.7245  -12.2855   33.4001 C.3     1  UNL1        0.0622
      3 C         -10.0970  -11.9500   34.0101 C.3     1  UNL1        0.1294
      4 O          -9.9810  -11.8775   35.4121 O.3     1  UNL1       -0.3808
      5 C         -10.4320  -10.5465   33.4587 C.3     1  UNL1        0.1264
      6 N          -9.5956  -10.3676   32.2815 N.am    1  UNL1       -0.2544
      7 C          -9.8243   -9.3498   31.2890 C.2     1  UNL1        0.3081
      8 O          -9.2690   -9.4455   30.1608 O.2     1  UNL1       -0.2522
      9 N         -10.6766   -8.2276   31.5749 N.am    1  UNL1       -0.2681
     10 H         -10.8646  -11.5940   35.7675 H       1  UNL1        0.2107
     11 H         -11.4077   -8.3264   32.3132 H       1  UNL1        0.1564
     12 C         -11.1165  -13.0259   33.5920 C.ar    1  UNL1        0.0310
     13 C         -11.7841  -12.9445   32.3482 C.ar    1  UNL1        0.0026
     14 C         -12.6710  -13.9446   31.9427 C.ar    1  UNL1        0.0295
     15 C         -12.8874  -15.0593   32.7512 C.ar    1  UNL1        0.1424
     16 F         -13.7452  -16.0306   32.3527 F       1  UNL1       -0.2041
     17 C         -12.2023  -15.1853   33.9594 C.ar    1  UNL1        0.0590
     18 C         -11.3113  -14.1902   34.3749 C.ar    1  UNL1        0.1406
     19 F         -10.6259  -14.3879   35.5293 F       1  UNL1       -0.2044
     20 C         -10.5953   -6.9668   30.8887 C.ar    1  UNL1        0.0516
     21 C          -9.4591   -6.6105   30.1379 C.ar    1  UNL1        0.0156
     22 C          -9.3901   -5.3622   29.5119 C.ar    1  UNL1        0.0127
     23 C         -10.4456   -4.4540   29.6386 C.ar    1  UNL1        0.0578
     24 CL        -10.3551   -2.8873   28.8551 Cl      1  UNL1       -0.0822
     25 C         -11.5682   -4.7921   30.4002 C.ar    1  UNL1        0.0127
     26 C         -11.6393   -6.0391   31.0285 C.ar    1  UNL1        0.0156
     27 N          -6.5805  -10.7701   30.6634 N.am    1  UNL1       -0.2680
     28 C          -7.1982  -10.8778   31.9550 C.2     1  UNL1        0.2454
     29 O          -6.5937  -10.4131   32.9578 O.2     1  UNL1       -0.2730
     30 H          -6.0079   -9.9214   30.4559 H       1  UNL1        0.1563
     31 C          -6.9194  -13.7107   27.6638 C.ar    1  UNL1        0.2466
     32 C          -7.9804  -13.5038   28.5587 C.ar    1  UNL1        0.0736
     33 C          -7.8805  -12.5236   29.5477 C.ar    1  UNL1        0.0406
     34 C          -6.7080  -11.7683   29.6482 C.ar    1  UNL1        0.1346
     35 N          -5.7046  -11.9576   28.7501 N.ar    1  UNL1       -0.2228
     36 C          -5.7823  -12.8964   27.7713 C.ar    1  UNL1        0.1691
     37 C          -8.2538  -16.5145   25.6095 C.2     1  UNL1        0.1450
     38 C          -7.2130  -16.6855   24.6871 C.2     1  UNL1        0.0225
     39 C          -6.0722  -15.8916   24.7633 C.2     1  UNL1        0.1158
     40 C          -5.9730  -14.9172   25.7580 C.2     1  UNL1        0.4230
     41 O          -4.9218  -14.2224   25.8307 O.2     1  UNL1       -0.2135
     42 N          -7.0007  -14.7315   26.6487 N.am    1  UNL1       -0.0840
     43 C          -8.1237  -15.5120   26.5859 C.2     1  UNL1        0.2969
     44 O         -10.1829  -17.3312   24.4907 O.2     1  UNL1       -0.2449
     45 C          -9.4683  -17.3618   25.5279 C.2     1  UNL1        0.3441
     46 O          -9.8407  -18.2138   26.5671 O.3     1  UNL1       -0.4770
     47 H          -9.2597  -18.3676   27.3810 H       1  UNL1        0.2954
@<TRIPOS>BOND
     1    44    45    2
     2    45    46    1
     3    45    37    1
     4    37    38    1
     5    38    39    2
     6    39    40    1
     7    40    41    2
     8    40    42    1
     9    42    31    1
    10    31    32   ar
    11    32    33   ar
    12    33    34   ar
    13    34    27    1
    14    27    28   am
    15    28    29    2
    16    28     1    1
    17     1     2    1
    18     2     3    1
    19     3     4    1
    20     3    12    1
    21    12    13   ar
    22    13    14   ar
    23    14    15   ar
    24    15    16    1
    25    15    17   ar
    26    17    18   ar
    27    18    19    1
    28     3     5    1
    29     5     6    1
    30     6     7   am
    31     7     8    2
    32     7     9   am
    33     9    20    1
    34    20    21   ar
    35    21    22   ar
    36    22    23   ar
    37    23    24    1
    38    23    25   ar
    39    25    26   ar
    40    34    35   ar
    41    35    36   ar
    42    42    43    1
    43    43    37    2
    44    36    31   ar
    45     6     1    1
    46    26    20   ar
    47    18    12   ar
    48    46    47    1
    49    27    30    1
    50     4    10    1
    51     9    11    1
