@<TRIPOS>MOLECULE
*****
 47 52 0 0 0
SMALL
GASTEIGER

@<TRIPOS>ATOM
      1 C          -9.0787  -13.6482   28.8845 C.2     1  UNL1        0.2483
      2 O          -9.8584  -14.3465   29.5870 O.2     1  UNL1       -0.2701
      3 N          -8.8702  -12.2567   29.1928 N.am    1  UNL1       -0.2945
      4 H          -8.1037  -11.7528   28.6926 H       1  UNL1        0.1501
      5 C          -7.0039  -15.5371   25.6263 C.ar    1  UNL1        0.0502
      6 C          -8.4029  -15.6017   25.7203 C.ar    1  UNL1        0.0148
      7 C          -9.0697  -14.9808   26.7793 C.ar    1  UNL1        0.0080
      8 C          -8.3507  -14.2901   27.7687 C.ar    1  UNL1        0.0808
      9 C          -6.9488  -14.2086   27.6644 C.ar    1  UNL1        0.1457
     10 F          -6.2227  -13.4860   28.5547 F       1  UNL1       -0.2040
     11 C          -6.2852  -14.8309   26.6024 C.ar    1  UNL1        0.0443
     12 N          -4.7431  -16.9248   22.3834 N.pl3   1  UNL1       -0.3043
     13 C          -5.9402  -16.1277   22.1055 C.3     1  UNL1        0.1122
     14 C          -6.9625  -16.3223   23.2273 C.3     1  UNL1        0.1122
     15 N          -6.3102  -16.1723   24.5358 N.pl3   1  UNL1       -0.3040
     16 C          -5.0979  -16.9601   24.8005 C.3     1  UNL1        0.1122
     17 C          -4.0812  -16.7506   23.6783 C.3     1  UNL1        0.1122
     18 C          -2.1422  -16.7169   21.0350 C.3     1  UNL1        0.0323
     19 C          -3.0689  -17.8825   20.8213 C.ar    1  UNL1       -0.0085
     20 C          -2.6732  -18.9321   19.9754 C.ar    1  UNL1       -0.0022
     21 C          -3.5187  -20.0220   19.7550 C.ar    1  UNL1        0.0112
     22 C          -4.7651  -20.0803   20.3823 C.ar    1  UNL1        0.0589
     23 CL         -5.8252  -21.4495   20.1028 Cl      1  UNL1       -0.0822
     24 C          -5.1636  -19.0516   21.2399 C.ar    1  UNL1        0.0256
     25 C          -4.3198  -17.9553   21.4758 C.ar    1  UNL1        0.0447
     26 C          -9.5805  -11.5010   30.2372 C.3     1  UNL1        0.1535
     27 C          -9.8306  -10.0740   29.8187 C.2     1  UNL1        0.2443
     28 O         -10.1605   -9.8101   28.6308 O.2     1  UNL1       -0.2730
     29 N          -9.7848   -9.0296   30.8043 N.am    1  UNL1       -0.2825
     30 H          -9.8272   -9.3082   31.8110 H       1  UNL1        0.1549
     31 C          -9.7939   -7.6259   30.4923 C.ar    1  UNL1        0.0535
     32 C         -11.0129   -6.9348   30.4623 C.ar    1  UNL1        0.0353
     33 C         -11.0256   -5.5664   30.1821 C.ar    1  UNL1        0.1002
     34 N          -9.8595   -4.9057   29.9559 N.ar    1  UNL1       -0.2422
     35 C          -8.6603   -5.5442   29.9975 C.ar    1  UNL1        0.1002
     36 C          -8.6028   -6.9127   30.2732 C.ar    1  UNL1        0.0353
     37 C         -10.8871  -12.1878   30.6784 C.3     1  UNL1        0.0569
     38 C         -10.7994  -12.6731   32.0966 C.ar    1  UNL1       -0.0017
     39 C          -9.9407  -12.2002   33.0849 C.ar    1  UNL1        0.0681
     40 N         -10.1944  -12.8136   34.2634 N.ar    1  UNL1       -0.3523
     41 C         -11.2114  -13.6613   34.0297 C.ar    1  UNL1        0.0563
     42 C         -11.8379  -14.5030   34.9479 C.ar    1  UNL1        0.0170
     43 C         -12.9036  -15.2990   34.4893 C.ar    1  UNL1        0.0015
     44 C         -13.3164  -15.2343   33.1398 C.ar    1  UNL1        0.0001
     45 C         -12.6668  -14.3740   32.2359 C.ar    1  UNL1        0.0012
     46 C         -11.6111  -13.6006   32.7192 C.ar    1  UNL1        0.0131
     47 H          -9.7065  -12.6482   35.1716 H       1  UNL1        0.1660
@<TRIPOS>BOND
     1    18    19    1
     2    19    20   ar
     3    20    21   ar
     4    21    22   ar
     5    22    23    1
     6    22    24   ar
     7    24    25   ar
     8    25    12    1
     9    12    13    1
    10    13    14    1
    11    14    15    1
    12    15     5    1
    13     5     6   ar
    14     6     7   ar
    15     7     8   ar
    16     8     1    1
    17     1     2    2
    18     1     3   am
    19     3    26    1
    20    26    37    1
    21    37    38    1
    22    38    39   ar
    23    39    40   ar
    24    40    41   ar
    25    41    42   ar
    26    42    43   ar
    27    43    44   ar
    28    44    45   ar
    29    45    46   ar
    30    26    27    1
    31    27    28    2
    32    27    29   am
    33    29    31    1
    34    31    32   ar
    35    32    33   ar
    36    33    34   ar
    37    34    35   ar
    38    35    36   ar
    39     8     9   ar
    40     9    10    1
    41     9    11   ar
    42    15    16    1
    43    16    17    1
    44    25    19   ar
    45    17    12    1
    46    11     5   ar
    47    46    38   ar
    48    36    31   ar
    49    46    41   ar
    50     3     4    1
    51    40    47    1
    52    29    30    1
@<TRIPOS>MOLECULE
*****
 47 52 0 0 0
SMALL
GASTEIGER

@<TRIPOS>ATOM
      1 C          -7.7252  -11.8347   30.5293 C.2     1  UNL1        0.2483
      2 O          -6.6263  -11.2197   30.5867 O.2     1  UNL1       -0.2701
      3 N          -8.7643  -11.5598   31.4883 N.am    1  UNL1       -0.2945
      4 H          -9.7106  -11.9682   31.3171 H       1  UNL1        0.1501
      5 C          -8.3172  -14.6614   27.3438 C.ar    1  UNL1        0.0502
      6 C          -7.0280  -14.2226   27.6839 C.ar    1  UNL1        0.0148
      7 C          -6.8439  -13.3079   28.7237 C.ar    1  UNL1        0.0080
      8 C          -7.9452  -12.8086   29.4384 C.ar    1  UNL1        0.0808
      9 C          -9.2369  -13.2633   29.1104 C.ar    1  UNL1        0.1457
     10 F         -10.3198  -12.8666   29.8258 F       1  UNL1       -0.2040
     11 C          -9.4168  -14.1794   28.0693 C.ar    1  UNL1        0.0443
     12 N          -9.4037  -17.3189   24.2925 N.pl3   1  UNL1       -0.3043
     13 C          -9.5147  -17.7723   25.6809 C.3     1  UNL1        0.1122
     14 C          -8.4778  -17.0507   26.5445 C.3     1  UNL1        0.1122
     15 N          -8.5140  -15.6064   26.2751 N.pl3   1  UNL1       -0.3040
     16 C          -8.4225  -15.1593   24.8779 C.3     1  UNL1        0.1122
     17 C          -9.4684  -15.8799   24.0273 C.3     1  UNL1        0.1122
     18 C         -11.5616  -18.5706   22.7423 C.3     1  UNL1        0.0323
     19 C         -10.1088  -18.8543   22.4743 C.ar    1  UNL1       -0.0085
     20 C          -9.7573  -19.7208   21.4256 C.ar    1  UNL1       -0.0022
     21 C          -8.4157  -20.0058   21.1612 C.ar    1  UNL1        0.0112
     22 C          -7.4095  -19.4235   21.9353 C.ar    1  UNL1        0.0589
     23 CL         -5.7257  -19.7842   21.6017 Cl      1  UNL1       -0.0822
     24 C          -7.7447  -18.5462   22.9699 C.ar    1  UNL1        0.0256
     25 C          -9.0885  -18.2454   23.2403 C.ar    1  UNL1        0.0447
     26 C          -8.6374  -10.6589   32.6453 C.3     1  UNL1        0.1535
     27 C          -8.6862   -9.2100   32.2302 C.2     1  UNL1        0.2443
     28 O          -8.0681   -8.3377   32.8986 O.2     1  UNL1       -0.2730
     29 N          -9.3606   -8.8446   31.0153 N.am    1  UNL1       -0.2825
     30 H          -9.5799   -9.6055   30.3327 H       1  UNL1        0.1549
     31 C          -9.6543   -7.4901   30.6324 C.ar    1  UNL1        0.0535
     32 C         -10.9596   -7.0007   30.7782 C.ar    1  UNL1        0.0353
     33 C         -11.2457   -5.6787   30.4290 C.ar    1  UNL1        0.1002
     34 N         -10.2589   -4.8668   29.9658 N.ar    1  UNL1       -0.2422
     35 C          -8.9798   -5.3066   29.8319 C.ar    1  UNL1        0.1002
     36 C          -8.6509   -6.6221   30.1687 C.ar    1  UNL1        0.0353
     37 C          -9.6758  -10.9574   33.7436 C.3     1  UNL1        0.0569
     38 C         -10.9093  -11.5956   33.1728 C.ar    1  UNL1       -0.0017
     39 C         -11.6925  -11.1051   32.1318 C.ar    1  UNL1        0.0681
     40 N         -12.6774  -11.9814   31.8292 N.ar    1  UNL1       -0.3523
     41 C         -12.5164  -13.0239   32.6626 C.ar    1  UNL1        0.0563
     42 C         -13.2824  -14.1875   32.7182 C.ar    1  UNL1        0.0170
     43 C         -12.9231  -15.1666   33.6627 C.ar    1  UNL1        0.0015
     44 C         -11.8172  -14.9644   34.5182 C.ar    1  UNL1        0.0001
     45 C         -11.0609  -13.7808   34.4382 C.ar    1  UNL1        0.0012
     46 C         -11.4443  -12.8271   33.4949 C.ar    1  UNL1        0.0131
     47 H         -13.4043  -11.8726   31.0875 H       1  UNL1        0.1660
@<TRIPOS>BOND
     1    18    19    1
     2    19    20   ar
     3    20    21   ar
     4    21    22   ar
     5    22    23    1
     6    22    24   ar
     7    24    25   ar
     8    25    12    1
     9    12    13    1
    10    13    14    1
    11    14    15    1
    12    15     5    1
    13     5     6   ar
    14     6     7   ar
    15     7     8   ar
    16     8     1    1
    17     1     2    2
    18     1     3   am
    19     3    26    1
    20    26    37    1
    21    37    38    1
    22    38    39   ar
    23    39    40   ar
    24    40    41   ar
    25    41    42   ar
    26    42    43   ar
    27    43    44   ar
    28    44    45   ar
    29    45    46   ar
    30    26    27    1
    31    27    28    2
    32    27    29   am
    33    29    31    1
    34    31    32   ar
    35    32    33   ar
    36    33    34   ar
    37    34    35   ar
    38    35    36   ar
    39     8     9   ar
    40     9    10    1
    41     9    11   ar
    42    15    16    1
    43    16    17    1
    44    25    19   ar
    45    17    12    1
    46    11     5   ar
    47    46    38   ar
    48    36    31   ar
    49    46    41   ar
    50     3     4    1
    51    40    47    1
    52    29    30    1
@<TRIPOS>MOLECULE
*****
 47 52 0 0 0
SMALL
GASTEIGER

@<TRIPOS>ATOM
      1 C          -8.9921  -13.9768   28.6657 C.2     1  UNL1        0.2483
      2 O          -9.8117  -14.7047   29.2882 O.2     1  UNL1       -0.2701
      3 N          -8.7307  -12.6313   29.1088 N.am    1  UNL1       -0.2945
      4 H          -7.9357  -12.1155   28.6689 H       1  UNL1        0.1501
      5 C          -6.9442  -15.6347   25.2678 C.ar    1  UNL1        0.0502
      6 C          -8.3453  -15.6652   25.3467 C.ar    1  UNL1        0.0148
      7 C          -9.0031  -15.1197   26.4519 C.ar    1  UNL1        0.0080
      8 C          -8.2731  -14.5401   27.5026 C.ar    1  UNL1        0.0808
      9 C          -6.8685  -14.4918   27.4148 C.ar    1  UNL1        0.1457
     10 F          -6.1297  -13.8721   28.3698 F       1  UNL1       -0.2040
     11 C          -6.2139  -15.0385   26.3066 C.ar    1  UNL1        0.0443
     12 N          -5.0641  -16.8073   21.7120 N.pl3   1  UNL1       -0.3043
     13 C          -6.5230  -16.9111   21.7936 C.3     1  UNL1        0.1122
     14 C          -6.9438  -17.1464   23.2458 C.3     1  UNL1        0.1122
     15 N          -6.2596  -16.1925   24.1302 N.pl3   1  UNL1       -0.3040
     16 C          -4.7977  -16.0790   24.0289 C.3     1  UNL1        0.1122
     17 C          -4.3902  -15.8352   22.5758 C.3     1  UNL1        0.1122
     18 C          -6.2733  -19.3459   20.8636 C.3     1  UNL1        0.0323
     19 C          -4.8673  -18.9602   20.4927 C.ar    1  UNL1       -0.0085
     20 C          -4.1068  -19.8208   19.6834 C.ar    1  UNL1       -0.0022
     21 C          -2.7965  -19.4887   19.3311 C.ar    1  UNL1        0.0112
     22 C          -2.2333  -18.2906   19.7759 C.ar    1  UNL1        0.0589
     23 CL         -0.5873  -17.8768   19.3329 Cl      1  UNL1       -0.0822
     24 C          -2.9848  -17.4174   20.5667 C.ar    1  UNL1        0.0256
     25 C          -4.3049  -17.7358   20.9206 C.ar    1  UNL1        0.0447
     26 C          -9.4261  -11.9488   30.2120 C.3     1  UNL1        0.1535
     27 C          -9.5888  -10.4745   29.9398 C.2     1  UNL1        0.2443
     28 O          -8.7212   -9.8544   29.2671 O.2     1  UNL1       -0.2730
     29 N         -10.7847   -9.8038   30.3688 N.am    1  UNL1       -0.2825
     30 H         -11.6066  -10.3944   30.6308 H       1  UNL1        0.1549
     31 C         -10.9569   -8.3763   30.3567 C.ar    1  UNL1        0.0535
     32 C         -11.9852   -7.8000   31.1150 C.ar    1  UNL1        0.0353
     33 C         -12.1430   -6.4121   31.1248 C.ar    1  UNL1        0.1002
     34 N         -11.2927   -5.6240   30.4154 N.ar    1  UNL1       -0.2422
     35 C         -10.2741   -6.1519   29.6864 C.ar    1  UNL1        0.1002
     36 C         -10.0816   -7.5352   29.6484 C.ar    1  UNL1        0.0353
     37 C         -10.7783  -12.6034   30.5533 C.3     1  UNL1        0.0569
     38 C         -10.8594  -12.9678   32.0076 C.ar    1  UNL1       -0.0017
     39 C         -10.1453  -12.3855   33.0510 C.ar    1  UNL1        0.0681
     40 N         -10.5312  -12.9093   34.2368 N.ar    1  UNL1       -0.3523
     41 C         -11.4888  -13.8088   33.9518 C.ar    1  UNL1        0.0563
     42 C         -12.2057  -14.5944   34.8534 C.ar    1  UNL1        0.0170
     43 C         -13.1843  -15.4626   34.3355 C.ar    1  UNL1        0.0015
     44 C         -13.4239  -15.5231   32.9445 C.ar    1  UNL1        0.0001
     45 C         -12.6863  -14.7169   32.0583 C.ar    1  UNL1        0.0012
     46 C         -11.7202  -13.8696   32.6013 C.ar    1  UNL1        0.0131
     47 H         -10.1669  -12.6530   35.1813 H       1  UNL1        0.1660
@<TRIPOS>BOND
     1    18    19    1
     2    19    20   ar
     3    20    21   ar
     4    21    22   ar
     5    22    23    1
     6    22    24   ar
     7    24    25   ar
     8    25    12    1
     9    12    13    1
    10    13    14    1
    11    14    15    1
    12    15     5    1
    13     5     6   ar
    14     6     7   ar
    15     7     8   ar
    16     8     1    1
    17     1     2    2
    18     1     3   am
    19     3    26    1
    20    26    37    1
    21    37    38    1
    22    38    39   ar
    23    39    40   ar
    24    40    41   ar
    25    41    42   ar
    26    42    43   ar
    27    43    44   ar
    28    44    45   ar
    29    45    46   ar
    30    26    27    1
    31    27    28    2
    32    27    29   am
    33    29    31    1
    34    31    32   ar
    35    32    33   ar
    36    33    34   ar
    37    34    35   ar
    38    35    36   ar
    39     8     9   ar
    40     9    10    1
    41     9    11   ar
    42    15    16    1
    43    16    17    1
    44    25    19   ar
    45    17    12    1
    46    11     5   ar
    47    46    38   ar
    48    36    31   ar
    49    46    41   ar
    50     3     4    1
    51    40    47    1
    52    29    30    1
@<TRIPOS>MOLECULE
*****
 47 52 0 0 0
SMALL
GASTEIGER

@<TRIPOS>ATOM
      1 C          -9.3684  -12.4890   29.9001 C.2     1  UNL1        0.2483
      2 O          -8.9834  -12.4991   31.1004 O.2     1  UNL1       -0.2701
      3 N         -10.5261  -11.7241   29.5133 N.am    1  UNL1       -0.2945
      4 H         -10.7214  -11.6115   28.4931 H       1  UNL1        0.1501
      5 C          -7.1399  -14.6975   26.9599 C.ar    1  UNL1        0.0502
      6 C          -8.5096  -14.9368   27.1514 C.ar    1  UNL1        0.0148
      7 C          -9.2275  -14.2112   28.1052 C.ar    1  UNL1        0.0080
      8 C          -8.5887  -13.2380   28.8911 C.ar    1  UNL1        0.0808
      9 C          -7.2189  -12.9839   28.6859 C.ar    1  UNL1        0.1457
     10 F          -6.5811  -11.9992   29.3682 F       1  UNL1       -0.2040
     11 C          -6.5041  -13.7120   27.7296 C.ar    1  UNL1        0.0443
     12 N          -4.5869  -16.5063   24.1736 N.pl3   1  UNL1       -0.3043
     13 C          -5.3389  -15.3196   23.7590 C.3     1  UNL1        0.1122
     14 C          -6.6504  -15.2390   24.5431 C.3     1  UNL1        0.1122
     15 N          -6.3943  -15.4396   25.9764 N.pl3   1  UNL1       -0.3040
     16 C          -5.6218  -16.6219   26.3837 C.3     1  UNL1        0.1122
     17 C          -4.3106  -16.6867   25.6006 C.3     1  UNL1        0.1122
     18 C          -6.7324  -17.9333   22.7641 C.3     1  UNL1        0.0323
     19 C          -5.2770  -18.2334   22.5299 C.ar    1  UNL1       -0.0085
     20 C          -4.9171  -19.2047   21.5809 C.ar    1  UNL1       -0.0022
     21 C          -3.5729  -19.5066   21.3503 C.ar    1  UNL1        0.0112
     22 C          -2.5726  -18.8370   22.0586 C.ar    1  UNL1        0.0589
     23 CL         -0.8855  -19.2189   21.7678 Cl      1  UNL1       -0.0822
     24 C          -2.9162  -17.8562   22.9926 C.ar    1  UNL1        0.0256
     25 C          -4.2627  -17.5381   23.2274 C.ar    1  UNL1        0.0447
     26 C         -11.4087  -10.9915   30.4356 C.3     1  UNL1        0.1535
     27 C         -12.1585  -11.9277   31.3496 C.2     1  UNL1        0.2443
     28 O         -13.3560  -11.6856   31.6614 O.2     1  UNL1       -0.2730
     29 N         -11.5314  -13.1452   31.7840 N.am    1  UNL1       -0.2825
     30 H         -10.6834  -13.4680   31.2647 H       1  UNL1        0.1549
     31 C         -12.0575  -14.0002   32.8134 C.ar    1  UNL1        0.0535
     32 C         -11.6236  -13.8336   34.1357 C.ar    1  UNL1        0.0353
     33 C         -12.1481  -14.6464   35.1435 C.ar    1  UNL1        0.1002
     34 N         -13.0869  -15.5829   34.8449 N.ar    1  UNL1       -0.2422
     35 C         -13.5420  -15.7549   33.5757 C.ar    1  UNL1        0.1002
     36 C         -13.0430  -14.9637   32.5379 C.ar    1  UNL1        0.0353
     37 C         -10.6585   -9.9125   31.2396 C.3     1  UNL1        0.0569
     38 C         -11.1993   -8.5412   30.9541 C.ar    1  UNL1       -0.0017
     39 C         -12.5076   -8.1071   31.1482 C.ar    1  UNL1        0.0681
     40 N         -12.6155   -6.7901   30.8595 N.ar    1  UNL1       -0.3523
     41 C         -11.3856   -6.3876   30.4949 C.ar    1  UNL1        0.0563
     42 C         -10.9924   -5.1025   30.1236 C.ar    1  UNL1        0.0170
     43 C          -9.6394   -4.8978   29.7963 C.ar    1  UNL1        0.0015
     44 C          -8.7198   -5.9689   29.8498 C.ar    1  UNL1        0.0001
     45 C          -9.1448   -7.2550   30.2301 C.ar    1  UNL1        0.0012
     46 C         -10.4929   -7.4276   30.5445 C.ar    1  UNL1        0.0131
     47 H         -13.4781   -6.2052   30.9228 H       1  UNL1        0.1660
@<TRIPOS>BOND
     1    18    19    1
     2    19    20   ar
     3    20    21   ar
     4    21    22   ar
     5    22    23    1
     6    22    24   ar
     7    24    25   ar
     8    25    12    1
     9    12    13    1
    10    13    14    1
    11    14    15    1
    12    15     5    1
    13     5     6   ar
    14     6     7   ar
    15     7     8   ar
    16     8     1    1
    17     1     2    2
    18     1     3   am
    19     3    26    1
    20    26    37    1
    21    37    38    1
    22    38    39   ar
    23    39    40   ar
    24    40    41   ar
    25    41    42   ar
    26    42    43   ar
    27    43    44   ar
    28    44    45   ar
    29    45    46   ar
    30    26    27    1
    31    27    28    2
    32    27    29   am
    33    29    31    1
    34    31    32   ar
    35    32    33   ar
    36    33    34   ar
    37    34    35   ar
    38    35    36   ar
    39     8     9   ar
    40     9    10    1
    41     9    11   ar
    42    15    16    1
    43    16    17    1
    44    25    19   ar
    45    17    12    1
    46    11     5   ar
    47    46    38   ar
    48    36    31   ar
    49    46    41   ar
    50     3     4    1
    51    40    47    1
    52    29    30    1
@<TRIPOS>MOLECULE
*****
 47 52 0 0 0
SMALL
GASTEIGER

@<TRIPOS>ATOM
      1 C          -9.2081  -13.3494   29.3447 C.2     1  UNL1        0.2483
      2 O         -10.1413  -13.9959   29.8926 O.2     1  UNL1       -0.2701
      3 N          -8.8691  -12.0277   29.8067 N.am    1  UNL1       -0.2945
      4 H          -7.9954  -11.5884   29.4390 H       1  UNL1        0.1501
      5 C          -7.0176  -15.2262   26.1561 C.ar    1  UNL1        0.0502
      6 C          -8.4006  -15.4242   26.2906 C.ar    1  UNL1        0.0148
      7 C          -9.1058  -14.8066   27.3265 C.ar    1  UNL1        0.0080
      8 C          -8.4410  -13.9854   28.2520 C.ar    1  UNL1        0.0808
      9 C          -7.0570  -13.7708   28.1060 C.ar    1  UNL1        0.1457
     10 F          -6.3905  -12.9237   28.9306 F       1  UNL1       -0.2040
     11 C          -6.3550  -14.3905   27.0674 C.ar    1  UNL1        0.0443
     12 N          -4.5715  -16.6421   23.0633 N.pl3   1  UNL1       -0.3043
     13 C          -5.5917  -15.6420   22.7399 C.3     1  UNL1        0.1122
     14 C          -6.7718  -15.7770   23.7046 C.3     1  UNL1        0.1122
     15 N          -6.2849  -15.8574   25.0890 N.pl3   1  UNL1       -0.3040
     16 C          -5.2467  -16.8495   25.4022 C.3     1  UNL1        0.1122
     17 C          -4.0699  -16.6990   24.4382 C.3     1  UNL1        0.1122
     18 C          -1.9913  -16.4214   21.6776 C.3     1  UNL1        0.0323
     19 C          -2.9456  -17.5568   21.4262 C.ar    1  UNL1       -0.0085
     20 C          -2.5869  -18.5723   20.5240 C.ar    1  UNL1       -0.0022
     21 C          -3.4585  -19.6334   20.2680 C.ar    1  UNL1        0.0112
     22 C          -4.6945  -19.6971   20.9152 C.ar    1  UNL1        0.0589
     23 CL         -5.7876  -21.0300   20.5909 Cl      1  UNL1       -0.0822
     24 C          -5.0562  -18.7029   21.8281 C.ar    1  UNL1        0.0256
     25 C          -4.1859  -17.6361   22.0999 C.ar    1  UNL1        0.0447
     26 C          -9.5968  -11.2757   30.8418 C.3     1  UNL1        0.1535
     27 C         -10.0702  -12.1765   31.9547 C.2     1  UNL1        0.2443
     28 O          -9.3307  -12.3939   32.9525 O.2     1  UNL1       -0.2730
     29 N         -11.4050  -12.7068   31.9160 N.am    1  UNL1       -0.2825
     30 H         -12.0865  -12.2621   31.2598 H       1  UNL1        0.1549
     31 C         -11.8898  -13.7345   32.7971 C.ar    1  UNL1        0.0535
     32 C         -11.9041  -13.5060   34.1799 C.ar    1  UNL1        0.0353
     33 C         -12.3951  -14.4921   35.0390 C.ar    1  UNL1        0.1002
     34 N         -12.8718  -15.6606   34.5342 N.ar    1  UNL1       -0.2422
     35 C         -12.8893  -15.9035   33.1969 C.ar    1  UNL1        0.1002
     36 C         -12.4066  -14.9445   32.3029 C.ar    1  UNL1        0.0353
     37 C          -8.7817  -10.0909   31.3945 C.3     1  UNL1        0.0569
     38 C          -7.3069  -10.3673   31.3399 C.ar    1  UNL1       -0.0017
     39 C          -6.5503  -11.0329   32.3003 C.ar    1  UNL1        0.0681
     40 N          -5.2715  -11.1702   31.8815 N.ar    1  UNL1       -0.3523
     41 C          -5.2173  -10.6066   30.6621 C.ar    1  UNL1        0.0563
     42 C          -4.1095  -10.5195   29.8199 C.ar    1  UNL1        0.0170
     43 C          -4.2821   -9.8998   28.5686 C.ar    1  UNL1        0.0015
     44 C          -5.5441   -9.3898   28.1902 C.ar    1  UNL1        0.0001
     45 C          -6.6450   -9.4937   29.0599 C.ar    1  UNL1        0.0012
     46 C          -6.4416  -10.1093   30.2952 C.ar    1  UNL1        0.0131
     47 H          -4.4914  -11.6341   32.3977 H       1  UNL1        0.1660
@<TRIPOS>BOND
     1    18    19    1
     2    19    20   ar
     3    20    21   ar
     4    21    22   ar
     5    22    23    1
     6    22    24   ar
     7    24    25   ar
     8    25    12    1
     9    12    13    1
    10    13    14    1
    11    14    15    1
    12    15     5    1
    13     5     6   ar
    14     6     7   ar
    15     7     8   ar
    16     8     1    1
    17     1     2    2
    18     1     3   am
    19     3    26    1
    20    26    37    1
    21    37    38    1
    22    38    39   ar
    23    39    40   ar
    24    40    41   ar
    25    41    42   ar
    26    42    43   ar
    27    43    44   ar
    28    44    45   ar
    29    45    46   ar
    30    26    27    1
    31    27    28    2
    32    27    29   am
    33    29    31    1
    34    31    32   ar
    35    32    33   ar
    36    33    34   ar
    37    34    35   ar
    38    35    36   ar
    39     8     9   ar
    40     9    10    1
    41     9    11   ar
    42    15    16    1
    43    16    17    1
    44    25    19   ar
    45    17    12    1
    46    11     5   ar
    47    46    38   ar
    48    36    31   ar
    49    46    41   ar
    50     3     4    1
    51    40    47    1
    52    29    30    1
@<TRIPOS>MOLECULE
*****
 47 52 0 0 0
SMALL
GASTEIGER

@<TRIPOS>ATOM
      1 C          -9.2607  -13.5628   29.0378 C.2     1  UNL1        0.2483
      2 O          -9.9770  -14.2921   29.7754 O.2     1  UNL1       -0.2701
      3 N          -9.1720  -12.1457   29.2808 N.am    1  UNL1       -0.2945
      4 H          -8.4519  -11.6017   28.7545 H       1  UNL1        0.1501
      5 C          -7.0347  -15.4140   25.8587 C.ar    1  UNL1        0.0502
      6 C          -8.4296  -15.5514   25.9331 C.ar    1  UNL1        0.0148
      7 C          -9.1459  -14.9424   26.9663 C.ar    1  UNL1        0.0080
      8 C          -8.4812  -14.1908   27.9493 C.ar    1  UNL1        0.0808
      9 C          -7.0841  -14.0365   27.8642 C.ar    1  UNL1        0.1457
     10 F          -6.4124  -13.2551   28.7474 F       1  UNL1       -0.2040
     11 C          -6.3708  -14.6472   26.8279 C.ar    1  UNL1        0.0443
     12 N          -4.5894  -16.7811   22.7436 N.pl3   1  UNL1       -0.3043
     13 C          -5.6978  -15.8822   22.4135 C.3     1  UNL1        0.1122
     14 C          -6.8292  -16.0629   23.4277 C.3     1  UNL1        0.1122
     15 N          -6.2902  -16.0365   24.7948 N.pl3   1  UNL1       -0.3040
     16 C          -5.1649  -16.9267   25.1136 C.3     1  UNL1        0.1122
     17 C          -4.0379  -16.7307   24.0995 C.3     1  UNL1        0.1122
     18 C          -1.9435  -16.5794   21.4846 C.3     1  UNL1        0.0323
     19 C          -2.8855  -17.7173   21.2005 C.ar    1  UNL1       -0.0085
     20 C          -2.4837  -18.7443   20.3300 C.ar    1  UNL1       -0.0022
     21 C          -3.3429  -19.8080   20.0445 C.ar    1  UNL1        0.0112
     22 C          -4.6095  -19.8628   20.6304 C.ar    1  UNL1        0.0589
     23 CL         -5.6867  -21.1992   20.2691 Cl      1  UNL1       -0.0822
     24 C          -5.0148  -18.8570   21.5117 C.ar    1  UNL1        0.0256
     25 C          -4.1577  -17.7874   21.8130 C.ar    1  UNL1        0.0447
     26 C          -9.9437  -11.4063   30.2928 C.3     1  UNL1        0.1535
     27 C         -10.2343  -12.2580   31.5028 C.2     1  UNL1        0.2443
     28 O          -9.3446  -12.4425   32.3770 O.2     1  UNL1       -0.2730
     29 N         -11.5593  -12.7774   31.7004 N.am    1  UNL1       -0.2825
     30 H         -12.3363  -12.3528   31.1446 H       1  UNL1        0.1549
     31 C         -11.8989  -13.7650   32.6888 C.ar    1  UNL1        0.0535
     32 C         -11.6211  -13.5120   34.0391 C.ar    1  UNL1        0.0353
     33 C         -11.9693  -14.4582   35.0061 C.ar    1  UNL1        0.1002
     34 N         -12.5894  -15.6110   34.6400 N.ar    1  UNL1       -0.2422
     35 C         -12.8896  -15.8761   33.3410 C.ar    1  UNL1        0.1002
     36 C         -12.5577  -14.9571   32.3423 C.ar    1  UNL1        0.0353
     37 C          -9.2717  -10.0797   30.6956 C.3     1  UNL1        0.0569
     38 C         -10.2269   -8.9263   30.5873 C.ar    1  UNL1       -0.0017
     39 C         -11.5968   -8.9564   30.8329 C.ar    1  UNL1        0.0681
     40 N         -12.1245   -7.7165   30.7153 N.ar    1  UNL1       -0.3523
     41 C         -11.0987   -6.9037   30.4080 C.ar    1  UNL1        0.0563
     42 C         -11.1443   -5.5250   30.2054 C.ar    1  UNL1        0.0170
     43 C          -9.9381   -4.8636   29.9099 C.ar    1  UNL1        0.0015
     44 C          -8.7270   -5.5862   29.8274 C.ar    1  UNL1        0.0001
     45 C          -8.7108   -6.9771   30.0386 C.ar    1  UNL1        0.0012
     46 C          -9.9230   -7.6051   30.3255 C.ar    1  UNL1        0.0131
     47 H         -13.1242   -7.4475   30.8513 H       1  UNL1        0.1660
@<TRIPOS>BOND
     1    18    19    1
     2    19    20   ar
     3    20    21   ar
     4    21    22   ar
     5    22    23    1
     6    22    24   ar
     7    24    25   ar
     8    25    12    1
     9    12    13    1
    10    13    14    1
    11    14    15    1
    12    15     5    1
    13     5     6   ar
    14     6     7   ar
    15     7     8   ar
    16     8     1    1
    17     1     2    2
    18     1     3   am
    19     3    26    1
    20    26    37    1
    21    37    38    1
    22    38    39   ar
    23    39    40   ar
    24    40    41   ar
    25    41    42   ar
    26    42    43   ar
    27    43    44   ar
    28    44    45   ar
    29    45    46   ar
    30    26    27    1
    31    27    28    2
    32    27    29   am
    33    29    31    1
    34    31    32   ar
    35    32    33   ar
    36    33    34   ar
    37    34    35   ar
    38    35    36   ar
    39     8     9   ar
    40     9    10    1
    41     9    11   ar
    42    15    16    1
    43    16    17    1
    44    25    19   ar
    45    17    12    1
    46    11     5   ar
    47    46    38   ar
    48    36    31   ar
    49    46    41   ar
    50     3     4    1
    51    40    47    1
    52    29    30    1
@<TRIPOS>MOLECULE
*****
 47 52 0 0 0
SMALL
GASTEIGER

@<TRIPOS>ATOM
      1 C          -7.9119  -11.8082   30.6771 C.2     1  UNL1        0.2483
      2 O          -6.9274  -11.0209   30.6835 O.2     1  UNL1       -0.2701
      3 N          -8.9016  -11.7446   31.7218 N.am    1  UNL1       -0.2945
      4 H          -9.7791  -12.2987   31.6008 H       1  UNL1        0.1501
      5 C          -8.2854  -14.5830   27.4138 C.ar    1  UNL1        0.0502
      6 C          -7.0347  -14.0511   27.7643 C.ar    1  UNL1        0.0148
      7 C          -6.9212  -13.1540   28.8292 C.ar    1  UNL1        0.0080
      8 C          -8.0566  -12.7656   29.5594 C.ar    1  UNL1        0.0808
      9 C          -9.3086  -13.3139   29.2206 C.ar    1  UNL1        0.1457
     10 F         -10.4173  -13.0263   29.9484 F       1  UNL1       -0.2040
     11 C          -9.4177  -14.2120   28.1542 C.ar    1  UNL1        0.0443
     12 N          -9.1581  -17.1659   24.2325 N.pl3   1  UNL1       -0.3043
     13 C          -9.4386  -17.6229   25.5957 C.3     1  UNL1        0.1122
     14 C          -8.4687  -16.9567   26.5739 C.3     1  UNL1        0.1122
     15 N          -8.4093  -15.5105   26.3191 N.pl3   1  UNL1       -0.3040
     16 C          -8.1474  -15.0588   24.9451 C.3     1  UNL1        0.1122
     17 C          -9.1277  -15.7237   23.9788 C.3     1  UNL1        0.1122
     18 C         -11.2167  -18.6009   22.7063 C.3     1  UNL1        0.0323
     19 C          -9.7463  -18.7955   22.4552 C.ar    1  UNL1       -0.0085
     20 C          -9.3303  -19.6662   21.4341 C.ar    1  UNL1       -0.0022
     21 C          -7.9708  -19.8695   21.1860 C.ar    1  UNL1        0.0112
     22 C          -7.0112  -19.2003   21.9489 C.ar    1  UNL1        0.0589
     23 CL         -5.3048  -19.4584   21.6359 Cl      1  UNL1       -0.0822
     24 C          -7.4115  -18.3180   22.9558 C.ar    1  UNL1        0.0256
     25 C          -8.7743  -18.0991   23.2094 C.ar    1  UNL1        0.0447
     26 C          -8.8313  -10.8769   32.9086 C.3     1  UNL1        0.1535
     27 C          -8.0787   -9.6020   32.6218 C.2     1  UNL1        0.2443
     28 O          -8.6876   -8.5935   32.1725 O.2     1  UNL1       -0.2730
     29 N          -6.6838   -9.5141   32.9545 N.am    1  UNL1       -0.2825
     30 H          -6.2923  -10.2329   33.6050 H       1  UNL1        0.1549
     31 C          -5.8216   -8.4416   32.5374 C.ar    1  UNL1        0.0535
     32 C          -5.9016   -7.9655   31.2215 C.ar    1  UNL1        0.0353
     33 C          -5.0824   -6.9087   30.8172 C.ar    1  UNL1        0.1002
     34 N          -4.2239   -6.3347   31.7008 N.ar    1  UNL1       -0.2422
     35 C          -4.1375   -6.7611   32.9886 C.ar    1  UNL1        0.1002
     36 C          -4.9382   -7.8160   33.4338 C.ar    1  UNL1        0.0353
     37 C         -10.2197  -10.5799   33.5067 C.3     1  UNL1        0.0569
     38 C         -11.2744  -11.4670   32.9108 C.ar    1  UNL1       -0.0017
     39 C         -12.0538  -11.1937   31.7903 C.ar    1  UNL1        0.0681
     40 N         -12.8419  -12.2523   31.4942 N.ar    1  UNL1       -0.3523
     41 C         -12.5594  -13.1940   32.4112 C.ar    1  UNL1        0.0563
     42 C         -13.1078  -14.4723   32.5065 C.ar    1  UNL1        0.0170
     43 C         -12.6503  -15.3085   33.5414 C.ar    1  UNL1        0.0015
     44 C         -11.6641  -14.8548   34.4454 C.ar    1  UNL1        0.0001
     45 C         -11.1270  -13.5602   34.3238 C.ar    1  UNL1        0.0012
     46 C         -11.6037  -12.7531   33.2905 C.ar    1  UNL1        0.0131
     47 H         -13.5201  -12.3247   30.7035 H       1  UNL1        0.1660
@<TRIPOS>BOND
     1    18    19    1
     2    19    20   ar
     3    20    21   ar
     4    21    22   ar
     5    22    23    1
     6    22    24   ar
     7    24    25   ar
     8    25    12    1
     9    12    13    1
    10    13    14    1
    11    14    15    1
    12    15     5    1
    13     5     6   ar
    14     6     7   ar
    15     7     8   ar
    16     8     1    1
    17     1     2    2
    18     1     3   am
    19     3    26    1
    20    26    37    1
    21    37    38    1
    22    38    39   ar
    23    39    40   ar
    24    40    41   ar
    25    41    42   ar
    26    42    43   ar
    27    43    44   ar
    28    44    45   ar
    29    45    46   ar
    30    26    27    1
    31    27    28    2
    32    27    29   am
    33    29    31    1
    34    31    32   ar
    35    32    33   ar
    36    33    34   ar
    37    34    35   ar
    38    35    36   ar
    39     8     9   ar
    40     9    10    1
    41     9    11   ar
    42    15    16    1
    43    16    17    1
    44    25    19   ar
    45    17    12    1
    46    11     5   ar
    47    46    38   ar
    48    36    31   ar
    49    46    41   ar
    50     3     4    1
    51    40    47    1
    52    29    30    1
@<TRIPOS>MOLECULE
*****
 47 52 0 0 0
SMALL
GASTEIGER

@<TRIPOS>ATOM
      1 C          -8.8328  -11.6981   30.7575 C.2     1  UNL1        0.2483
      2 O          -9.8406  -10.9458   30.6711 O.2     1  UNL1       -0.2701
      3 N          -8.0442  -11.7231   31.9627 N.am    1  UNL1       -0.2945
      4 H          -7.3172  -12.4674   32.0580 H       1  UNL1        0.1501
      5 C          -7.9107  -14.2942   27.4563 C.ar    1  UNL1        0.0502
      6 C          -9.2153  -14.2201   27.9687 C.ar    1  UNL1        0.0148
      7 C          -9.5076  -13.3701   29.0382 C.ar    1  UNL1        0.0080
      8 C          -8.5002  -12.5837   29.6209 C.ar    1  UNL1        0.0808
      9 C          -7.1954  -12.6432   29.0947 C.ar    1  UNL1        0.1457
     10 F          -6.2106  -11.8433   29.5765 F       1  UNL1       -0.2040
     11 C          -6.9071  -13.4948   28.0237 C.ar    1  UNL1        0.0443
     12 N          -7.2601  -16.4786   23.9409 N.pl3   1  UNL1       -0.3043
     13 C          -8.5741  -16.5689   24.5819 C.3     1  UNL1        0.1122
     14 C          -8.4293  -16.3526   26.0898 C.3     1  UNL1        0.1122
     15 N          -7.6028  -15.1659   26.3522 N.pl3   1  UNL1       -0.3040
     16 C          -6.2941  -15.0724   25.6898 C.3     1  UNL1        0.1122
     17 C          -6.4526  -15.2810   24.1837 C.3     1  UNL1        0.1122
     18 C          -9.0586  -18.4373   22.6939 C.3     1  UNL1        0.0323
     19 C          -7.5611  -18.5477   22.6035 C.ar    1  UNL1       -0.0085
     20 C          -6.9902  -19.6017   21.8706 C.ar    1  UNL1       -0.0022
     21 C          -5.6024  -19.7302   21.7776 C.ar    1  UNL1        0.0112
     22 C          -4.7688  -18.8040   22.4084 C.ar    1  UNL1        0.0589
     23 CL         -3.0265  -18.9685   22.2910 Cl      1  UNL1       -0.0822
     24 C          -5.3237  -17.7410   23.1258 C.ar    1  UNL1        0.0256
     25 C          -6.7164  -17.5963   23.2198 C.ar    1  UNL1        0.0447
     26 C          -8.2452  -10.8482   33.1292 C.3     1  UNL1        0.1535
     27 C          -7.7861   -9.4386   32.8530 C.2     1  UNL1        0.2443
     28 O          -7.5152   -8.6614   33.8081 O.2     1  UNL1       -0.2730
     29 N          -7.5673   -9.0190   31.4964 N.am    1  UNL1       -0.2825
     30 H          -7.4906   -9.7609   30.7639 H       1  UNL1        0.1549
     31 C          -7.3399   -7.6553   31.1012 C.ar    1  UNL1        0.0535
     32 C          -6.0365   -7.2314   30.8079 C.ar    1  UNL1        0.0353
     33 C          -5.8126   -5.9137   30.4016 C.ar    1  UNL1        0.1002
     34 N          -6.8564   -5.0522   30.2757 N.ar    1  UNL1       -0.2422
     35 C          -8.1336   -5.4390   30.5339 C.ar    1  UNL1        0.1002
     36 C          -8.4013   -6.7476   30.9438 C.ar    1  UNL1        0.0353
     37 C          -9.6984  -10.8692   33.6404 C.3     1  UNL1        0.0569
     38 C         -10.0969  -12.2409   34.1031 C.ar    1  UNL1       -0.0017
     39 C          -9.5674  -12.9393   35.1846 C.ar    1  UNL1        0.0681
     40 N         -10.2211  -14.1111   35.3552 N.ar    1  UNL1       -0.3523
     41 C         -11.1642  -14.1533   34.3980 C.ar    1  UNL1        0.0563
     42 C         -12.1028  -15.1610   34.1803 C.ar    1  UNL1        0.0170
     43 C         -13.0172  -14.9909   33.1246 C.ar    1  UNL1        0.0015
     44 C         -12.9754  -13.8294   32.3214 C.ar    1  UNL1        0.0001
     45 C         -12.0182  -12.8278   32.5656 C.ar    1  UNL1        0.0012
     46 C         -11.1225  -13.0271   33.6165 C.ar    1  UNL1        0.0131
     47 H         -10.0370  -14.8277   36.0920 H       1  UNL1        0.1660
@<TRIPOS>BOND
     1    18    19    1
     2    19    20   ar
     3    20    21   ar
     4    21    22   ar
     5    22    23    1
     6    22    24   ar
     7    24    25   ar
     8    25    12    1
     9    12    13    1
    10    13    14    1
    11    14    15    1
    12    15     5    1
    13     5     6   ar
    14     6     7   ar
    15     7     8   ar
    16     8     1    1
    17     1     2    2
    18     1     3   am
    19     3    26    1
    20    26    37    1
    21    37    38    1
    22    38    39   ar
    23    39    40   ar
    24    40    41   ar
    25    41    42   ar
    26    42    43   ar
    27    43    44   ar
    28    44    45   ar
    29    45    46   ar
    30    26    27    1
    31    27    28    2
    32    27    29   am
    33    29    31    1
    34    31    32   ar
    35    32    33   ar
    36    33    34   ar
    37    34    35   ar
    38    35    36   ar
    39     8     9   ar
    40     9    10    1
    41     9    11   ar
    42    15    16    1
    43    16    17    1
    44    25    19   ar
    45    17    12    1
    46    11     5   ar
    47    46    38   ar
    48    36    31   ar
    49    46    41   ar
    50     3     4    1
    51    40    47    1
    52    29    30    1
@<TRIPOS>MOLECULE
*****
 47 52 0 0 0
SMALL
GASTEIGER

@<TRIPOS>ATOM
      1 C          -9.2933  -12.6198   29.8576 C.2     1  UNL1        0.2483
      2 O         -10.5475  -12.5623   29.7441 O.2     1  UNL1       -0.2701
      3 N          -8.6356  -12.0102   30.9849 N.am    1  UNL1       -0.2945
      4 H          -7.6207  -12.2120   31.1289 H       1  UNL1        0.1501
      5 C          -7.0684  -14.7994   26.8932 C.ar    1  UNL1        0.0502
      6 C          -8.4343  -15.0520   27.0952 C.ar    1  UNL1        0.0148
      7 C          -9.1511  -14.3358   28.0569 C.ar    1  UNL1        0.0080
      8 C          -8.5149  -13.3588   28.8403 C.ar    1  UNL1        0.0808
      9 C          -7.1493  -13.0913   28.6246 C.ar    1  UNL1        0.1457
     10 F          -6.5152  -12.1025   29.3043 F       1  UNL1       -0.2040
     11 C          -6.4356  -13.8101   27.6605 C.ar    1  UNL1        0.0443
     12 N          -4.5206  -16.5781   24.0829 N.pl3   1  UNL1       -0.3043
     13 C          -5.2823  -15.3940   23.6788 C.3     1  UNL1        0.1122
     14 C          -6.5897  -15.3254   24.4709 C.3     1  UNL1        0.1122
     15 N          -6.3241  -15.5319   25.9016 N.pl3   1  UNL1       -0.3040
     16 C          -5.5420  -16.7114   26.2984 C.3     1  UNL1        0.1122
     17 C          -4.2350  -16.7641   25.5074 C.3     1  UNL1        0.1122
     18 C          -6.6658  -18.0250   22.6933 C.3     1  UNL1        0.0323
     19 C          -5.2099  -18.3075   22.4414 C.ar    1  UNL1       -0.0085
     20 C          -4.8499  -19.2716   21.4849 C.ar    1  UNL1       -0.0022
     21 C          -3.5051  -19.5573   21.2379 C.ar    1  UNL1        0.0112
     22 C          -2.5044  -18.8786   21.9369 C.ar    1  UNL1        0.0589
     23 CL         -0.8165  -19.2402   21.6255 Cl      1  UNL1       -0.0822
     24 C          -2.8484  -17.9049   22.8782 C.ar    1  UNL1        0.0256
     25 C          -4.1956  -17.6030   23.1295 C.ar    1  UNL1        0.0447
     26 C          -9.2984  -11.2037   32.0225 C.3     1  UNL1        0.1535
     27 C         -10.5265  -11.8923   32.5626 C.2     1  UNL1        0.2443
     28 O         -11.4289  -11.2229   33.1346 O.2     1  UNL1       -0.2730
     29 N         -10.7057  -13.2996   32.3355 N.am    1  UNL1       -0.2825
     30 H         -10.1167  -13.7529   31.6002 H       1  UNL1        0.1549
     31 C         -11.7153  -14.0975   32.9771 C.ar    1  UNL1        0.0535
     32 C         -12.6174  -14.8287   32.1920 C.ar    1  UNL1        0.0353
     33 C         -13.5859  -15.6233   32.8100 C.ar    1  UNL1        0.1002
     34 N         -13.6421  -15.6994   34.1659 N.ar    1  UNL1       -0.2422
     35 C         -12.7689  -15.0178   34.9536 C.ar    1  UNL1        0.1002
     36 C         -11.7854  -14.2107   34.3762 C.ar    1  UNL1        0.0353
     37 C          -8.3408  -10.8022   33.1606 C.3     1  UNL1        0.0569
     38 C          -7.0755  -10.1971   32.6245 C.ar    1  UNL1       -0.0017
     39 C          -5.9305  -10.8819   32.2272 C.ar    1  UNL1        0.0681
     40 N          -5.0176  -10.0213   31.7218 N.ar    1  UNL1       -0.3523
     41 C          -5.5801   -8.8019   31.7874 C.ar    1  UNL1        0.0563
     42 C          -5.0288   -7.5931   31.3650 C.ar    1  UNL1        0.0170
     43 C          -5.8060   -6.4293   31.5108 C.ar    1  UNL1        0.0015
     44 C          -7.1031   -6.4996   32.0662 C.ar    1  UNL1        0.0001
     45 C          -7.6346   -7.7340   32.4820 C.ar    1  UNL1        0.0012
     46 C          -6.8385   -8.8693   32.3286 C.ar    1  UNL1        0.0131
     47 H          -4.0741  -10.2617   31.3445 H       1  UNL1        0.1660
@<TRIPOS>BOND
     1    18    19    1
     2    19    20   ar
     3    20    21   ar
     4    21    22   ar
     5    22    23    1
     6    22    24   ar
     7    24    25   ar
     8    25    12    1
     9    12    13    1
    10    13    14    1
    11    14    15    1
    12    15     5    1
    13     5     6   ar
    14     6     7   ar
    15     7     8   ar
    16     8     1    1
    17     1     2    2
    18     1     3   am
    19     3    26    1
    20    26    37    1
    21    37    38    1
    22    38    39   ar
    23    39    40   ar
    24    40    41   ar
    25    41    42   ar
    26    42    43   ar
    27    43    44   ar
    28    44    45   ar
    29    45    46   ar
    30    26    27    1
    31    27    28    2
    32    27    29   am
    33    29    31    1
    34    31    32   ar
    35    32    33   ar
    36    33    34   ar
    37    34    35   ar
    38    35    36   ar
    39     8     9   ar
    40     9    10    1
    41     9    11   ar
    42    15    16    1
    43    16    17    1
    44    25    19   ar
    45    17    12    1
    46    11     5   ar
    47    46    38   ar
    48    36    31   ar
    49    46    41   ar
    50     3     4    1
    51    40    47    1
    52    29    30    1
