@<TRIPOS>MOLECULE
*****
 52 57 0 0 0
SMALL
GASTEIGER

@<TRIPOS>ATOM
      1 C          -7.8980  -14.4689   27.4623 C.ar    1  UNL1        0.0502
      2 C          -6.7533  -13.7951   27.9098 C.ar    1  UNL1        0.0148
      3 C          -6.8433  -12.8575   28.9409 C.ar    1  UNL1        0.0080
      4 C          -8.0823  -12.5660   29.5357 C.ar    1  UNL1        0.0808
      5 C          -9.2245  -13.2764   29.1166 C.ar    1  UNL1        0.1457
      6 F         -10.4227  -13.1027   29.7277 F       1  UNL1       -0.2040
      7 C          -9.1303  -14.2120   28.0823 C.ar    1  UNL1        0.0443
      8 N          -7.9990  -16.6982   23.9240 N.pl3   1  UNL1       -0.3041
      9 C          -9.1770  -16.7064   24.8006 C.3     1  UNL1        0.1122
     10 C          -8.7522  -16.5166   26.2586 C.3     1  UNL1        0.1122
     11 N          -7.8086  -15.3978   26.3668 N.pl3   1  UNL1       -0.3040
     12 C          -6.6289  -15.4061   25.4947 C.3     1  UNL1        0.1122
     13 C          -7.0632  -15.5729   24.0400 C.3     1  UNL1        0.1122
     14 C          -6.6233  -18.7992   21.1321 C.ar    1  UNL1        0.0084
     15 C          -6.6891  -17.9586   22.2516 C.ar    1  UNL1        0.0127
     16 C          -7.9299  -17.5765   22.7851 C.ar    1  UNL1        0.0476
     17 C          -9.1093  -18.0456   22.1870 C.ar    1  UNL1        0.0184
     18 C          -9.0594  -18.9060   21.0772 C.ar    1  UNL1        0.0724
     19 C          -7.8097  -19.2578   20.5402 C.ar    1  UNL1        0.0021
     20 C         -10.3321  -19.3589   20.4063 C.3     1  UNL1        0.4186
     21 F         -11.0599  -18.2719   19.9534 F       1  UNL1       -0.1659
     22 F         -10.0164  -20.1689   19.3318 F       1  UNL1       -0.1659
     23 F         -11.1245  -20.0706   21.2904 F       1  UNL1       -0.1659
     24 C          -5.2848  -19.1702   20.5493 C.3     1  UNL1        0.1687
     25 C          -3.3839  -18.2451   19.5988 C.3     1  UNL1        0.1746
     26 O          -4.7806  -18.1155   19.7528 O.3     1  UNL1       -0.3463
     27 C          -8.1617  -11.4862   30.5457 C.2     1  UNL1        0.2483
     28 O          -8.9461  -10.5178   30.3511 O.2     1  UNL1       -0.2701
     29 N          -7.4242  -11.5750   31.7769 N.am    1  UNL1       -0.2945
     30 H          -6.7874  -12.3876   31.9095 H       1  UNL1        0.1501
     31 C          -7.7937  -10.8063   32.9704 C.3     1  UNL1        0.1535
     32 C          -7.2585   -9.3858   32.9090 C.2     1  UNL1        0.2443
     33 O          -7.8787   -8.4727   33.5167 O.2     1  UNL1       -0.2730
     34 N          -5.9621   -9.0896   32.3662 N.am    1  UNL1       -0.2825
     35 H          -5.2611   -8.6541   33.0071 H       1  UNL1        0.1549
     36 C          -5.5902   -9.3052   30.9946 C.ar    1  UNL1        0.0535
     37 C          -6.1496   -8.5446   29.9565 C.ar    1  UNL1        0.0353
     38 C          -5.7922   -8.8140   28.6337 C.ar    1  UNL1        0.1002
     39 N          -4.8883   -9.7910   28.3571 N.ar    1  UNL1       -0.2422
     40 C          -4.3053  -10.5209   29.3445 C.ar    1  UNL1        0.1002
     41 C          -4.6364  -10.2826   30.6810 C.ar    1  UNL1        0.0353
     42 C          -9.3199  -10.8681   33.2108 C.3     1  UNL1        0.0569
     43 C          -9.7712  -12.1013   33.9461 C.ar    1  UNL1       -0.0017
     44 C          -9.2128  -12.6218   35.1109 C.ar    1  UNL1        0.0681
     45 N          -9.8989  -13.7138   35.5179 N.ar    1  UNL1       -0.3523
     46 C         -10.8827  -13.8909   34.6195 C.ar    1  UNL1        0.0563
     47 C         -11.8599  -14.8853   34.6232 C.ar    1  UNL1        0.0170
     48 C         -12.8046  -14.8828   33.5809 C.ar    1  UNL1        0.0015
     49 C         -12.7492  -13.9007   32.5674 C.ar    1  UNL1        0.0001
     50 C         -11.7507  -12.9105   32.5885 C.ar    1  UNL1        0.0012
     51 C         -10.8340  -12.9314   33.6406 C.ar    1  UNL1        0.0131
     52 H          -9.7046  -14.2945   36.3637 H       1  UNL1        0.1660
@<TRIPOS>BOND
     1    25    26    1
     2    26    24    1
     3    24    14    1
     4    14    15   ar
     5    15    16   ar
     6    16     8    1
     7     8     9    1
     8     9    10    1
     9    10    11    1
    10    11     1    1
    11     1     2   ar
    12     2     3   ar
    13     3     4   ar
    14     4    27    1
    15    27    28    2
    16    27    29   am
    17    29    31    1
    18    31    42    1
    19    42    43    1
    20    43    44   ar
    21    44    45   ar
    22    45    46   ar
    23    46    47   ar
    24    47    48   ar
    25    48    49   ar
    26    49    50   ar
    27    50    51   ar
    28    31    32    1
    29    32    33    2
    30    32    34   am
    31    34    36    1
    32    36    37   ar
    33    37    38   ar
    34    38    39   ar
    35    39    40   ar
    36    40    41   ar
    37     4     5   ar
    38     5     6    1
    39     5     7   ar
    40    11    12    1
    41    12    13    1
    42    16    17   ar
    43    17    18   ar
    44    18    20    1
    45    20    21    1
    46    20    22    1
    47    20    23    1
    48    18    19   ar
    49    19    14   ar
    50    13     8    1
    51     7     1   ar
    52    51    43   ar
    53    41    36   ar
    54    51    46   ar
    55    29    30    1
    56    45    52    1
    57    34    35    1
@<TRIPOS>MOLECULE
*****
 52 57 0 0 0
SMALL
GASTEIGER

@<TRIPOS>ATOM
      1 C          -7.8462  -14.4351   27.5259 C.ar    1  UNL1        0.0502
      2 C          -6.6928  -13.7733   27.9689 C.ar    1  UNL1        0.0148
      3 C          -6.7657  -12.8492   29.0134 C.ar    1  UNL1        0.0080
      4 C          -7.9962  -12.5593   29.6266 C.ar    1  UNL1        0.0808
      5 C          -9.1469  -13.2582   29.2116 C.ar    1  UNL1        0.1457
      6 F         -10.3370  -13.0864   29.8390 F       1  UNL1       -0.2040
      7 C          -9.0698  -14.1802   28.1638 C.ar    1  UNL1        0.0443
      8 N          -8.0278  -16.6305   23.9696 N.pl3   1  UNL1       -0.3041
      9 C          -9.1670  -16.6841   24.8944 C.3     1  UNL1        0.1122
     10 C          -8.6873  -16.4960   26.3356 C.3     1  UNL1        0.1122
     11 N          -7.7747  -15.3496   26.4171 N.pl3   1  UNL1       -0.3040
     12 C          -6.6329  -15.3125   25.4965 C.3     1  UNL1        0.1122
     13 C          -7.1227  -15.4779   24.0593 C.3     1  UNL1        0.1122
     14 C          -6.7088  -18.6440   21.0873 C.ar    1  UNL1        0.0084
     15 C          -6.7529  -17.8171   22.2181 C.ar    1  UNL1        0.0127
     16 C          -7.9797  -17.4946   22.8189 C.ar    1  UNL1        0.0476
     17 C          -9.1671  -18.0095   22.2769 C.ar    1  UNL1        0.0184
     18 C          -9.1376  -18.8569   21.1564 C.ar    1  UNL1        0.0724
     19 C          -7.9033  -19.1488   20.5520 C.ar    1  UNL1        0.0021
     20 C         -10.4225  -19.3591   20.5467 C.3     1  UNL1        0.4186
     21 F         -11.0934  -20.1860   21.4312 F       1  UNL1       -0.1659
     22 F         -11.2304  -18.2813   20.2365 F       1  UNL1       -0.1659
     23 F         -10.1673  -20.0788   19.3921 F       1  UNL1       -0.1659
     24 C          -5.3875  -18.9507   20.4324 C.3     1  UNL1        0.1687
     25 C          -3.2498  -19.7079   20.9117 C.3     1  UNL1        0.1746
     26 O          -4.6161  -19.8101   21.2494 O.3     1  UNL1       -0.3463
     27 C          -8.0580  -11.4928   30.6518 C.2     1  UNL1        0.2483
     28 O          -7.2229  -10.5484   30.6087 O.2     1  UNL1       -0.2701
     29 N          -9.1070  -11.4776   31.6351 N.am    1  UNL1       -0.2945
     30 H          -9.7828  -12.2692   31.6434 H       1  UNL1        0.1501
     31 C          -9.4866  -10.2596   32.3592 C.3     1  UNL1        0.1535
     32 C          -9.6353   -9.0742   31.4207 C.2     1  UNL1        0.2443
     33 O         -10.4226   -9.1657   30.4411 O.2     1  UNL1       -0.2730
     34 N          -9.0774   -7.7882   31.7335 N.am    1  UNL1       -0.2825
     35 H          -9.7416   -6.9877   31.8328 H       1  UNL1        0.1549
     36 C          -7.6702   -7.5266   31.8654 C.ar    1  UNL1        0.0535
     37 C          -6.9549   -7.9281   33.0039 C.ar    1  UNL1        0.0353
     38 C          -5.5976   -7.6177   33.1112 C.ar    1  UNL1        0.1002
     39 N          -4.9688   -6.9525   32.1062 N.ar    1  UNL1       -0.2422
     40 C          -5.6286   -6.5807   30.9774 C.ar    1  UNL1        0.1002
     41 C          -6.9874   -6.8721   30.8316 C.ar    1  UNL1        0.0353
     42 C         -10.7431  -10.5067   33.2258 C.3     1  UNL1        0.0569
     43 C         -11.6626  -11.5647   32.6777 C.ar    1  UNL1       -0.0017
     44 C         -12.4948  -11.4444   31.5675 C.ar    1  UNL1        0.0681
     45 N         -13.1467  -12.6065   31.3365 N.ar    1  UNL1       -0.3523
     46 C         -12.7379  -13.4585   32.2920 C.ar    1  UNL1        0.0563
     47 C         -13.1257  -14.7871   32.4603 C.ar    1  UNL1        0.0170
     48 C         -12.5666  -15.5045   33.5333 C.ar    1  UNL1        0.0015
     49 C         -11.6465  -14.8839   34.4068 C.ar    1  UNL1        0.0001
     50 C         -11.2749  -13.5413   34.2137 C.ar    1  UNL1        0.0012
     51 C         -11.8373  -12.8580   33.1346 C.ar    1  UNL1        0.0131
     52 H         -13.8243  -12.8003   30.5659 H       1  UNL1        0.1660
@<TRIPOS>BOND
     1    25    26    1
     2    26    24    1
     3    24    14    1
     4    14    15   ar
     5    15    16   ar
     6    16     8    1
     7     8     9    1
     8     9    10    1
     9    10    11    1
    10    11     1    1
    11     1     2   ar
    12     2     3   ar
    13     3     4   ar
    14     4    27    1
    15    27    28    2
    16    27    29   am
    17    29    31    1
    18    31    42    1
    19    42    43    1
    20    43    44   ar
    21    44    45   ar
    22    45    46   ar
    23    46    47   ar
    24    47    48   ar
    25    48    49   ar
    26    49    50   ar
    27    50    51   ar
    28    31    32    1
    29    32    33    2
    30    32    34   am
    31    34    36    1
    32    36    37   ar
    33    37    38   ar
    34    38    39   ar
    35    39    40   ar
    36    40    41   ar
    37     4     5   ar
    38     5     6    1
    39     5     7   ar
    40    11    12    1
    41    12    13    1
    42    16    17   ar
    43    17    18   ar
    44    18    20    1
    45    20    21    1
    46    20    22    1
    47    20    23    1
    48    18    19   ar
    49    19    14   ar
    50    13     8    1
    51     7     1   ar
    52    51    43   ar
    53    41    36   ar
    54    51    46   ar
    55    29    30    1
    56    45    52    1
    57    34    35    1
@<TRIPOS>MOLECULE
*****
 52 57 0 0 0
SMALL
GASTEIGER

@<TRIPOS>ATOM
      1 C          -7.8687  -14.4804   27.4869 C.ar    1  UNL1        0.0502
      2 C          -6.7261  -13.7989   27.9278 C.ar    1  UNL1        0.0148
      3 C          -6.8183  -12.8538   28.9518 C.ar    1  UNL1        0.0080
      4 C          -8.0577  -12.5624   29.5459 C.ar    1  UNL1        0.0808
      5 C          -9.1977  -13.2804   29.1338 C.ar    1  UNL1        0.1457
      6 F         -10.3958  -13.1065   29.7450 F       1  UNL1       -0.2040
      7 C          -9.1012  -14.2235   28.1065 C.ar    1  UNL1        0.0443
      8 N          -7.9443  -16.7266   23.9586 N.pl3   1  UNL1       -0.3041
      9 C          -9.1412  -16.7021   24.8089 C.3     1  UNL1        0.1122
     10 C          -8.7443  -16.5142   26.2750 C.3     1  UNL1        0.1122
     11 N          -7.7772  -15.4173   26.3984 N.pl3   1  UNL1       -0.3040
     12 C          -6.5790  -15.4583   25.5528 C.3     1  UNL1        0.1122
     13 C          -6.9849  -15.6230   24.0896 C.3     1  UNL1        0.1122
     14 C          -8.9648  -18.8793   21.0558 C.ar    1  UNL1        0.0084
     15 C          -9.0358  -18.0026   22.1470 C.ar    1  UNL1        0.0127
     16 C          -7.8708  -17.6127   22.8261 C.ar    1  UNL1        0.0476
     17 C          -6.6289  -18.1088   22.4015 C.ar    1  UNL1        0.0184
     18 C          -6.5393  -18.9716   21.2961 C.ar    1  UNL1        0.0724
     19 C          -7.7175  -19.3721   20.6439 C.ar    1  UNL1        0.0021
     20 C          -5.2068  -19.5446   20.8827 C.3     1  UNL1        0.4186
     21 F          -4.6106  -18.7504   19.9183 F       1  UNL1       -0.1659
     22 F          -4.3780  -19.6112   21.9869 F       1  UNL1       -0.1659
     23 F          -5.3628  -20.8162   20.3584 F       1  UNL1       -0.1659
     24 C         -10.2274  -19.3171   20.3610 C.3     1  UNL1        0.1687
     25 C         -11.3915  -17.3675   19.8951 C.3     1  UNL1        0.1746
     26 O         -10.5859  -18.3915   19.3531 O.3     1  UNL1       -0.3463
     27 C          -8.1400  -11.4753   30.5477 C.2     1  UNL1        0.2483
     28 O          -8.9294  -10.5121   30.3475 O.2     1  UNL1       -0.2701
     29 N          -7.3993  -11.5511   31.7779 N.am    1  UNL1       -0.2945
     30 H          -6.7584  -12.3596   31.9153 H       1  UNL1        0.1501
     31 C          -7.7699  -10.7750   32.9663 C.3     1  UNL1        0.1535
     32 C          -7.2342   -9.3551   32.8967 C.2     1  UNL1        0.2443
     33 O          -7.8573   -8.4372   33.4942 O.2     1  UNL1       -0.2730
     34 N          -5.9350   -9.0631   32.3583 N.am    1  UNL1       -0.2825
     35 H          -5.2372   -8.6228   32.9993 H       1  UNL1        0.1549
     36 C          -5.5560   -9.2893   30.9903 C.ar    1  UNL1        0.0535
     37 C          -6.1089   -8.5357   29.9437 C.ar    1  UNL1        0.0353
     38 C          -5.7449   -8.8153   28.6248 C.ar    1  UNL1        0.1002
     39 N          -4.8409   -9.7954   28.3602 N.ar    1  UNL1       -0.2422
     40 C          -4.2641  -10.5188   29.3561 C.ar    1  UNL1        0.1002
     41 C          -4.6019  -10.2702   30.6890 C.ar    1  UNL1        0.0353
     42 C          -9.2963  -10.8348   33.2055 C.3     1  UNL1        0.0569
     43 C          -9.7494  -12.0663   33.9426 C.ar    1  UNL1       -0.0017
     44 C          -9.1940  -12.5841   35.1100 C.ar    1  UNL1        0.0681
     45 N          -9.8810  -13.6752   35.5178 N.ar    1  UNL1       -0.3523
     46 C         -10.8626  -13.8544   34.6174 C.ar    1  UNL1        0.0563
     47 C         -11.8398  -14.8487   34.6210 C.ar    1  UNL1        0.0170
     48 C         -12.7819  -14.8487   33.5763 C.ar    1  UNL1        0.0015
     49 C         -12.7240  -13.8690   32.5607 C.ar    1  UNL1        0.0001
     50 C         -11.7256  -12.8787   32.5819 C.ar    1  UNL1        0.0012
     51 C         -10.8115  -12.8971   33.6363 C.ar    1  UNL1        0.0131
     52 H          -9.6888  -14.2539   36.3654 H       1  UNL1        0.1660
@<TRIPOS>BOND
     1    25    26    1
     2    26    24    1
     3    24    14    1
     4    14    15   ar
     5    15    16   ar
     6    16     8    1
     7     8     9    1
     8     9    10    1
     9    10    11    1
    10    11     1    1
    11     1     2   ar
    12     2     3   ar
    13     3     4   ar
    14     4    27    1
    15    27    28    2
    16    27    29   am
    17    29    31    1
    18    31    42    1
    19    42    43    1
    20    43    44   ar
    21    44    45   ar
    22    45    46   ar
    23    46    47   ar
    24    47    48   ar
    25    48    49   ar
    26    49    50   ar
    27    50    51   ar
    28    31    32    1
    29    32    33    2
    30    32    34   am
    31    34    36    1
    32    36    37   ar
    33    37    38   ar
    34    38    39   ar
    35    39    40   ar
    36    40    41   ar
    37     4     5   ar
    38     5     6    1
    39     5     7   ar
    40    11    12    1
    41    12    13    1
    42    16    17   ar
    43    17    18   ar
    44    18    20    1
    45    20    21    1
    46    20    22    1
    47    20    23    1
    48    18    19   ar
    49    19    14   ar
    50    13     8    1
    51     7     1   ar
    52    51    43   ar
    53    41    36   ar
    54    51    46   ar
    55    29    30    1
    56    45    52    1
    57    34    35    1
@<TRIPOS>MOLECULE
*****
 52 57 0 0 0
SMALL
GASTEIGER

@<TRIPOS>ATOM
      1 C          -7.7370  -14.1411   27.7606 C.ar    1  UNL1        0.0502
      2 C          -9.0772  -14.1834   28.1686 C.ar    1  UNL1        0.0148
      3 C          -9.5282  -13.3568   29.1999 C.ar    1  UNL1        0.0080
      4 C          -8.6441  -12.4810   29.8523 C.ar    1  UNL1        0.0808
      5 C          -7.3082  -12.4062   29.4112 C.ar    1  UNL1        0.1457
      6 F          -6.4431  -11.5063   29.9417 F       1  UNL1       -0.2040
      7 C          -6.8605  -13.2375   28.3804 C.ar    1  UNL1        0.0443
      8 N          -6.3454  -16.1589   24.3706 N.pl3   1  UNL1       -0.3041
      9 C          -7.7750  -15.8381   24.4673 C.3     1  UNL1        0.1122
     10 C          -8.2139  -15.8160   25.9333 C.3     1  UNL1        0.1122
     11 N          -7.2659  -15.0295   26.7311 N.pl3   1  UNL1       -0.3040
     12 C          -5.8412  -15.3666   26.6361 C.3     1  UNL1        0.1122
     13 C          -5.4065  -15.3640   25.1719 C.3     1  UNL1        0.1122
     14 C          -6.2660  -18.4283   21.3797 C.ar    1  UNL1        0.0084
     15 C          -6.7442  -17.6032   22.4069 C.ar    1  UNL1        0.0127
     16 C          -5.8542  -16.9920   23.3038 C.ar    1  UNL1        0.0476
     17 C          -4.4758  -17.2135   23.1632 C.ar    1  UNL1        0.0184
     18 C          -3.9798  -18.0208   22.1257 C.ar    1  UNL1        0.0724
     19 C          -4.8859  -18.6456   21.2524 C.ar    1  UNL1        0.0021
     20 C          -2.5014  -18.2991   22.0170 C.3     1  UNL1        0.4186
     21 F          -1.8445  -17.9117   23.1723 F       1  UNL1       -0.1659
     22 F          -2.3067  -19.6533   21.8206 F       1  UNL1       -0.1659
     23 F          -1.9500  -17.6051   20.9538 F       1  UNL1       -0.1659
     24 C          -7.2362  -19.1063   20.4481 C.3     1  UNL1        0.1687
     25 C          -9.4511  -19.2501   19.7803 C.3     1  UNL1        0.1746
     26 O          -8.5594  -18.6836   20.7157 O.3     1  UNL1       -0.3463
     27 C          -9.1268  -11.7027   31.0157 C.2     1  UNL1        0.2483
     28 O          -8.4376  -11.6831   32.0719 O.2     1  UNL1       -0.2701
     29 N         -10.3195  -10.9049   30.9232 N.am    1  UNL1       -0.2945
     30 H         -10.8652  -10.9396   30.0375 H       1  UNL1        0.1501
     31 C         -10.5937   -9.7937   31.8408 C.3     1  UNL1        0.1535
     32 C         -11.0255   -8.5439   31.0929 C.2     1  UNL1        0.2443
     33 O         -12.1677   -8.5140   30.5616 O.2     1  UNL1       -0.2730
     34 N         -10.2670   -7.3258   31.1556 N.am    1  UNL1       -0.2825
     35 H         -10.7403   -6.4853   31.5572 H       1  UNL1        0.1549
     36 C          -8.9269   -7.1800   30.6565 C.ar    1  UNL1        0.0535
     37 C          -8.2589   -8.2442   30.0317 C.ar    1  UNL1        0.0353
     38 C          -6.9425   -8.0734   29.5982 C.ar    1  UNL1        0.1002
     39 N          -6.3220   -6.8745   29.7585 N.ar    1  UNL1       -0.2422
     40 C          -6.9558   -5.8164   30.3298 C.ar    1  UNL1        0.1002
     41 C          -8.2731   -5.9466   30.7773 C.ar    1  UNL1        0.0353
     42 C         -11.5992  -10.2220   32.9347 C.3     1  UNL1        0.0569
     43 C         -12.3307  -11.4998   32.6228 C.ar    1  UNL1       -0.0017
     44 C         -13.2933  -11.6826   31.6331 C.ar    1  UNL1        0.0681
     45 N         -13.7063  -12.9700   31.6063 N.ar    1  UNL1       -0.3523
     46 C         -13.0172  -13.6016   32.5720 C.ar    1  UNL1        0.0563
     47 C         -13.0920  -14.9502   32.9178 C.ar    1  UNL1        0.0170
     48 C         -12.2720  -15.4069   33.9656 C.ar    1  UNL1        0.0015
     49 C         -11.4090  -14.5148   34.6396 C.ar    1  UNL1        0.0001
     50 C         -11.3559  -13.1589   34.2701 C.ar    1  UNL1        0.0012
     51 C         -12.1725  -12.7368   33.2201 C.ar    1  UNL1        0.0131
     52 H         -14.4124  -13.3864   30.9596 H       1  UNL1        0.1660
@<TRIPOS>BOND
     1    25    26    1
     2    26    24    1
     3    24    14    1
     4    14    15   ar
     5    15    16   ar
     6    16     8    1
     7     8     9    1
     8     9    10    1
     9    10    11    1
    10    11     1    1
    11     1     2   ar
    12     2     3   ar
    13     3     4   ar
    14     4    27    1
    15    27    28    2
    16    27    29   am
    17    29    31    1
    18    31    42    1
    19    42    43    1
    20    43    44   ar
    21    44    45   ar
    22    45    46   ar
    23    46    47   ar
    24    47    48   ar
    25    48    49   ar
    26    49    50   ar
    27    50    51   ar
    28    31    32    1
    29    32    33    2
    30    32    34   am
    31    34    36    1
    32    36    37   ar
    33    37    38   ar
    34    38    39   ar
    35    39    40   ar
    36    40    41   ar
    37     4     5   ar
    38     5     6    1
    39     5     7   ar
    40    11    12    1
    41    12    13    1
    42    16    17   ar
    43    17    18   ar
    44    18    20    1
    45    20    21    1
    46    20    22    1
    47    20    23    1
    48    18    19   ar
    49    19    14   ar
    50    13     8    1
    51     7     1   ar
    52    51    43   ar
    53    41    36   ar
    54    51    46   ar
    55    29    30    1
    56    45    52    1
    57    34    35    1
@<TRIPOS>MOLECULE
*****
 52 57 0 0 0
SMALL
GASTEIGER

@<TRIPOS>ATOM
      1 C          -7.8041  -14.3930   27.5542 C.ar    1  UNL1        0.0502
      2 C          -6.6571  -13.7077   27.9773 C.ar    1  UNL1        0.0148
      3 C          -6.7319  -12.7813   29.0197 C.ar    1  UNL1        0.0080
      4 C          -7.9583  -12.5127   29.6505 C.ar    1  UNL1        0.0808
      5 C          -9.1015  -13.2350   29.2553 C.ar    1  UNL1        0.1457
      6 F         -10.2851  -13.0838   29.9002 F       1  UNL1       -0.2040
      7 C          -9.0226  -14.1593   28.2096 C.ar    1  UNL1        0.0443
      8 N          -7.9452  -16.5769   23.9889 N.pl3   1  UNL1       -0.3041
      9 C          -9.1238  -16.5729   24.8646 C.3     1  UNL1        0.1122
     10 C          -8.6967  -16.4091   26.3251 C.3     1  UNL1        0.1122
     11 N          -7.7318  -15.3102   26.4475 N.pl3   1  UNL1       -0.3040
     12 C          -6.5517  -15.3307   25.5761 C.3     1  UNL1        0.1122
     13 C          -6.9879  -15.4714   24.1191 C.3     1  UNL1        0.1122
     14 C          -9.0051  -18.5885   21.0003 C.ar    1  UNL1        0.0084
     15 C          -9.0548  -17.7316   22.1083 C.ar    1  UNL1        0.0127
     16 C          -7.8920  -17.4425   22.8395 C.ar    1  UNL1        0.0476
     17 C          -6.6738  -18.0197   22.4503 C.ar    1  UNL1        0.0184
     18 C          -6.6039  -18.8637   21.3292 C.ar    1  UNL1        0.0724
     19 C          -7.7817  -19.1630   20.6240 C.ar    1  UNL1        0.0021
     20 C          -5.3015  -19.5246   20.9528 C.3     1  UNL1        0.4186
     21 F          -4.6939  -18.8489   19.9085 F       1  UNL1       -0.1659
     22 F          -4.4557  -19.5185   22.0460 F       1  UNL1       -0.1659
     23 F          -5.5143  -20.8331   20.5543 F       1  UNL1       -0.1659
     24 C         -10.2680  -18.9178   20.2485 C.3     1  UNL1        0.1687
     25 C         -11.4307  -16.9615   19.8084 C.3     1  UNL1        0.1746
     26 O         -11.3272  -18.0779   20.6652 O.3     1  UNL1       -0.3463
     27 C          -8.0250  -11.4438   30.6729 C.2     1  UNL1        0.2483
     28 O          -7.2165  -10.4779   30.6072 O.2     1  UNL1       -0.2701
     29 N          -9.0514  -11.4522   31.6798 N.am    1  UNL1       -0.2945
     30 H          -9.7056  -12.2614   31.7065 H       1  UNL1        0.1501
     31 C          -9.4467  -10.2415   32.4078 C.3     1  UNL1        0.1535
     32 C          -9.6249   -9.0586   31.4714 C.2     1  UNL1        0.2443
     33 O         -10.4253   -9.1610   30.5036 O.2     1  UNL1       -0.2730
     34 N          -9.0796   -7.7652   31.7756 N.am    1  UNL1       -0.2825
     35 H          -9.7528   -6.9736   31.8845 H       1  UNL1        0.1549
     36 C          -7.6741   -7.4849   31.8867 C.ar    1  UNL1        0.0535
     37 C          -6.9795   -6.8124   30.8697 C.ar    1  UNL1        0.0353
     38 C          -5.6058   -6.5966   30.9984 C.ar    1  UNL1        0.1002
     39 N          -4.9517   -7.0140   32.1146 N.ar    1  UNL1       -0.2422
     40 C          -5.6049   -7.6381   33.1302 C.ar    1  UNL1        0.1002
     41 C          -6.9794   -7.8733   33.0398 C.ar    1  UNL1        0.0353
     42 C         -10.6909  -10.5117   33.2852 C.3     1  UNL1        0.0569
     43 C         -11.6183  -11.5548   32.7222 C.ar    1  UNL1       -0.0017
     44 C         -12.4393  -11.4172   31.6057 C.ar    1  UNL1        0.0681
     45 N         -13.1032  -12.5697   31.3613 N.ar    1  UNL1       -0.3523
     46 C         -12.7131  -13.4328   32.3147 C.ar    1  UNL1        0.0563
     47 C         -13.1185  -14.7576   32.4708 C.ar    1  UNL1        0.0170
     48 C         -12.5775  -15.4888   33.5439 C.ar    1  UNL1        0.0015
     49 C         -11.6577  -14.8851   34.4295 C.ar    1  UNL1        0.0001
     50 C         -11.2681  -13.5459   34.2484 C.ar    1  UNL1        0.0012
     51 C         -11.8127  -12.8488   33.1690 C.ar    1  UNL1        0.0131
     52 H         -13.7763  -12.7503   30.5837 H       1  UNL1        0.1660
@<TRIPOS>BOND
     1    25    26    1
     2    26    24    1
     3    24    14    1
     4    14    15   ar
     5    15    16   ar
     6    16     8    1
     7     8     9    1
     8     9    10    1
     9    10    11    1
    10    11     1    1
    11     1     2   ar
    12     2     3   ar
    13     3     4   ar
    14     4    27    1
    15    27    28    2
    16    27    29   am
    17    29    31    1
    18    31    42    1
    19    42    43    1
    20    43    44   ar
    21    44    45   ar
    22    45    46   ar
    23    46    47   ar
    24    47    48   ar
    25    48    49   ar
    26    49    50   ar
    27    50    51   ar
    28    31    32    1
    29    32    33    2
    30    32    34   am
    31    34    36    1
    32    36    37   ar
    33    37    38   ar
    34    38    39   ar
    35    39    40   ar
    36    40    41   ar
    37     4     5   ar
    38     5     6    1
    39     5     7   ar
    40    11    12    1
    41    12    13    1
    42    16    17   ar
    43    17    18   ar
    44    18    20    1
    45    20    21    1
    46    20    22    1
    47    20    23    1
    48    18    19   ar
    49    19    14   ar
    50    13     8    1
    51     7     1   ar
    52    51    43   ar
    53    41    36   ar
    54    51    46   ar
    55    29    30    1
    56    45    52    1
    57    34    35    1
@<TRIPOS>MOLECULE
*****
 52 57 0 0 0
SMALL
GASTEIGER

@<TRIPOS>ATOM
      1 C          -7.7200  -14.1039   27.7223 C.ar    1  UNL1        0.0502
      2 C          -9.0607  -14.1962   28.1203 C.ar    1  UNL1        0.0148
      3 C          -9.5429  -13.4072   29.1669 C.ar    1  UNL1        0.0080
      4 C          -8.6899  -12.5199   29.8446 C.ar    1  UNL1        0.0808
      5 C          -7.3542  -12.3946   29.4143 C.ar    1  UNL1        0.1457
      6 F          -6.5203  -11.4811   29.9705 F       1  UNL1       -0.2040
      7 C          -6.8752  -13.1884   28.3681 C.ar    1  UNL1        0.0443
      8 N          -6.1779  -15.9906   24.3220 N.pl3   1  UNL1       -0.3041
      9 C          -7.5948  -15.6057   24.3376 C.3     1  UNL1        0.1122
     10 C          -8.1377  -15.6460   25.7680 C.3     1  UNL1        0.1122
     11 N          -7.2157  -14.9541   26.6763 N.pl3   1  UNL1       -0.3040
     12 C          -5.8046  -15.3552   26.6610 C.3     1  UNL1        0.1122
     13 C          -5.2648  -15.2902   25.2337 C.3     1  UNL1        0.1122
     14 C          -3.8183  -17.3656   21.7445 C.ar    1  UNL1        0.0084
     15 C          -4.3270  -16.6048   22.8060 C.ar    1  UNL1        0.0127
     16 C          -5.6485  -16.7845   23.2437 C.ar    1  UNL1        0.0476
     17 C          -6.4598  -17.7368   22.6083 C.ar    1  UNL1        0.0184
     18 C          -5.9576  -18.5221   21.5568 C.ar    1  UNL1        0.0724
     19 C          -4.6409  -18.3113   21.1143 C.ar    1  UNL1        0.0021
     20 C          -6.8541  -19.5024   20.8426 C.3     1  UNL1        0.4186
     21 F          -6.2328  -20.7333   20.7192 F       1  UNL1       -0.1659
     22 F          -8.0232  -19.6581   21.5631 F       1  UNL1       -0.1659
     23 F          -7.1639  -19.0464   19.5728 F       1  UNL1       -0.1659
     24 C          -2.4100  -17.1349   21.2625 C.3     1  UNL1        0.1687
     25 C          -0.7888  -17.9352   19.8121 C.3     1  UNL1        0.1746
     26 O          -2.1748  -17.8418   20.0600 O.3     1  UNL1       -0.3463
     27 C          -9.2032  -11.7831   31.0219 C.2     1  UNL1        0.2483
     28 O          -8.5842  -11.8662   32.1178 O.2     1  UNL1       -0.2701
     29 N         -10.3408  -10.9114   30.9055 N.am    1  UNL1       -0.2945
     30 H         -10.8286  -10.8619   29.9873 H       1  UNL1        0.1501
     31 C         -10.6116   -9.8411   31.8714 C.3     1  UNL1        0.1535
     32 C         -11.0605   -8.5646   31.1807 C.2     1  UNL1        0.2443
     33 O         -12.2189   -8.5117   30.6878 O.2     1  UNL1       -0.2730
     34 N         -10.2939   -7.3525   31.2606 N.am    1  UNL1       -0.2825
     35 H         -10.7497   -6.5244   31.7056 H       1  UNL1        0.1549
     36 C          -8.9697   -7.1953   30.7239 C.ar    1  UNL1        0.0535
     37 C          -8.2981   -8.2627   30.1087 C.ar    1  UNL1        0.0353
     38 C          -6.9963   -8.0793   29.6376 C.ar    1  UNL1        0.1002
     39 N          -6.3943   -6.8658   29.7524 N.ar    1  UNL1       -0.2422
     40 C          -7.0331   -5.8052   30.3135 C.ar    1  UNL1        0.1002
     41 C          -8.3361   -5.9478   30.7976 C.ar    1  UNL1        0.0353
     42 C         -11.6013  -10.3214   32.9580 C.3     1  UNL1        0.0569
     43 C         -12.3301  -11.5888   32.6006 C.ar    1  UNL1       -0.0017
     44 C         -13.2577  -11.7495   31.5743 C.ar    1  UNL1        0.0681
     45 N         -13.6784  -13.0332   31.5131 N.ar    1  UNL1       -0.3523
     46 C         -13.0290  -13.6844   32.4931 C.ar    1  UNL1        0.0563
     47 C         -13.1256  -15.0374   32.8154 C.ar    1  UNL1        0.0170
     48 C         -12.3471  -15.5159   33.8848 C.ar    1  UNL1        0.0015
     49 C         -11.5027  -14.6406   34.6029 C.ar    1  UNL1        0.0001
     50 C         -11.4268  -13.2797   34.2564 C.ar    1  UNL1        0.0012
     51 C         -12.2021  -12.8358   33.1842 C.ar    1  UNL1        0.0131
     52 H         -14.3637  -13.4346   30.8351 H       1  UNL1        0.1660
@<TRIPOS>BOND
     1    25    26    1
     2    26    24    1
     3    24    14    1
     4    14    15   ar
     5    15    16   ar
     6    16     8    1
     7     8     9    1
     8     9    10    1
     9    10    11    1
    10    11     1    1
    11     1     2   ar
    12     2     3   ar
    13     3     4   ar
    14     4    27    1
    15    27    28    2
    16    27    29   am
    17    29    31    1
    18    31    42    1
    19    42    43    1
    20    43    44   ar
    21    44    45   ar
    22    45    46   ar
    23    46    47   ar
    24    47    48   ar
    25    48    49   ar
    26    49    50   ar
    27    50    51   ar
    28    31    32    1
    29    32    33    2
    30    32    34   am
    31    34    36    1
    32    36    37   ar
    33    37    38   ar
    34    38    39   ar
    35    39    40   ar
    36    40    41   ar
    37     4     5   ar
    38     5     6    1
    39     5     7   ar
    40    11    12    1
    41    12    13    1
    42    16    17   ar
    43    17    18   ar
    44    18    20    1
    45    20    21    1
    46    20    22    1
    47    20    23    1
    48    18    19   ar
    49    19    14   ar
    50    13     8    1
    51     7     1   ar
    52    51    43   ar
    53    41    36   ar
    54    51    46   ar
    55    29    30    1
    56    45    52    1
    57    34    35    1
@<TRIPOS>MOLECULE
*****
 52 57 0 0 0
SMALL
GASTEIGER

@<TRIPOS>ATOM
      1 C          -7.6966  -14.3143   27.6053 C.ar    1  UNL1        0.0502
      2 C          -9.0368  -14.3650   28.0123 C.ar    1  UNL1        0.0148
      3 C          -9.4917  -13.5474   29.0490 C.ar    1  UNL1        0.0080
      4 C          -8.6117  -12.6723   29.7078 C.ar    1  UNL1        0.0808
      5 C          -7.2758  -12.5889   29.2679 C.ar    1  UNL1        0.1457
      6 F          -6.4148  -11.6890   29.8049 F       1  UNL1       -0.2040
      7 C          -6.8241  -13.4113   28.2317 C.ar    1  UNL1        0.0443
      8 N          -6.2689  -16.2988   24.2107 N.pl3   1  UNL1       -0.3041
      9 C          -7.6923  -15.9445   24.2782 C.3     1  UNL1        0.1122
     10 C          -8.1676  -15.9404   25.7330 C.3     1  UNL1        0.1122
     11 N          -7.2212  -15.1936   26.5699 N.pl3   1  UNL1       -0.3040
     12 C          -5.8033  -15.5642   26.5037 C.3     1  UNL1        0.1122
     13 C          -5.3315  -15.5436   25.0511 C.3     1  UNL1        0.1122
     14 C          -6.1710  -18.5381   21.1977 C.ar    1  UNL1        0.0084
     15 C          -6.6553  -17.7218   22.2290 C.ar    1  UNL1        0.0127
     16 C          -5.7712  -17.1227   23.1398 C.ar    1  UNL1        0.0476
     17 C          -4.3924  -17.3473   23.0087 C.ar    1  UNL1        0.0184
     18 C          -3.8900  -18.1457   21.9674 C.ar    1  UNL1        0.0724
     19 C          -4.7905  -18.7586   21.0800 C.ar    1  UNL1        0.0021
     20 C          -2.4116  -18.4278   21.8686 C.3     1  UNL1        0.4186
     21 F          -1.8472  -17.7192   20.8218 F       1  UNL1       -0.1659
     22 F          -1.7973  -18.0536   23.0489 F       1  UNL1       -0.1659
     23 F          -2.1845  -19.7756   21.6493 F       1  UNL1       -0.1659
     24 C          -7.1352  -19.2033   20.2509 C.3     1  UNL1        0.1687
     25 C          -9.3540  -19.3549   19.5977 C.3     1  UNL1        0.1746
     26 O          -8.4684  -18.8645   20.5808 O.3     1  UNL1       -0.3463
     27 C          -9.0982  -11.9040   30.8762 C.2     1  UNL1        0.2483
     28 O          -8.2721  -11.5242   31.7505 O.2     1  UNL1       -0.2701
     29 N         -10.4787  -11.5147   30.9775 N.am    1  UNL1       -0.2945
     30 H         -11.1356  -11.8409   30.2389 H       1  UNL1        0.1501
     31 C         -10.9214  -10.4080   31.8325 C.3     1  UNL1        0.1535
     32 C         -11.0223  -10.8312   33.2881 C.2     1  UNL1        0.2443
     33 O         -10.2709  -10.2817   34.1374 O.2     1  UNL1       -0.2730
     34 N         -12.0864  -11.6736   33.7581 N.am    1  UNL1       -0.2825
     35 H         -12.7262  -11.2795   34.4840 H       1  UNL1        0.1549
     36 C         -12.2918  -13.0314   33.3333 C.ar    1  UNL1        0.0535
     37 C         -12.9836  -13.3311   32.1498 C.ar    1  UNL1        0.0353
     38 C         -13.1977  -14.6645   31.7944 C.ar    1  UNL1        0.1002
     39 N         -12.7159  -15.6650   32.5785 N.ar    1  UNL1       -0.2422
     40 C         -12.0134  -15.4042   33.7126 C.ar    1  UNL1        0.1002
     41 C         -11.7781  -14.0833   34.1033 C.ar    1  UNL1        0.0353
     42 C         -10.0273   -9.1637   31.6246 C.3     1  UNL1        0.0569
     43 C         -10.7734   -7.9529   31.1321 C.ar    1  UNL1       -0.0017
     44 C         -12.1544   -7.7730   31.1358 C.ar    1  UNL1        0.0681
     45 N         -12.4735   -6.5478   30.6607 N.ar    1  UNL1       -0.3523
     46 C         -11.3081   -5.9533   30.3530 C.ar    1  UNL1        0.0563
     47 C         -11.1251   -4.6704   29.8387 C.ar    1  UNL1        0.0170
     48 C          -9.8080   -4.2425   29.5919 C.ar    1  UNL1        0.0015
     49 C          -8.7162   -5.0983   29.8571 C.ar    1  UNL1        0.0001
     50 C          -8.9311   -6.3883   30.3743 C.ar    1  UNL1        0.0012
     51 C         -10.2476   -6.7814   30.6195 C.ar    1  UNL1        0.0131
     52 H         -13.4323   -6.1462   30.5617 H       1  UNL1        0.1660
@<TRIPOS>BOND
     1    25    26    1
     2    26    24    1
     3    24    14    1
     4    14    15   ar
     5    15    16   ar
     6    16     8    1
     7     8     9    1
     8     9    10    1
     9    10    11    1
    10    11     1    1
    11     1     2   ar
    12     2     3   ar
    13     3     4   ar
    14     4    27    1
    15    27    28    2
    16    27    29   am
    17    29    31    1
    18    31    42    1
    19    42    43    1
    20    43    44   ar
    21    44    45   ar
    22    45    46   ar
    23    46    47   ar
    24    47    48   ar
    25    48    49   ar
    26    49    50   ar
    27    50    51   ar
    28    31    32    1
    29    32    33    2
    30    32    34   am
    31    34    36    1
    32    36    37   ar
    33    37    38   ar
    34    38    39   ar
    35    39    40   ar
    36    40    41   ar
    37     4     5   ar
    38     5     6    1
    39     5     7   ar
    40    11    12    1
    41    12    13    1
    42    16    17   ar
    43    17    18   ar
    44    18    20    1
    45    20    21    1
    46    20    22    1
    47    20    23    1
    48    18    19   ar
    49    19    14   ar
    50    13     8    1
    51     7     1   ar
    52    51    43   ar
    53    41    36   ar
    54    51    46   ar
    55    29    30    1
    56    45    52    1
    57    34    35    1
@<TRIPOS>MOLECULE
*****
 52 57 0 0 0
SMALL
GASTEIGER

@<TRIPOS>ATOM
      1 C          -7.4570  -14.1605   27.6612 C.ar    1  UNL1        0.0502
      2 C          -6.4972  -13.2680   28.1579 C.ar    1  UNL1        0.0148
      3 C          -6.8418  -12.3316   29.1349 C.ar    1  UNL1        0.0080
      4 C          -8.1567  -12.2609   29.6249 C.ar    1  UNL1        0.0808
      5 C          -9.1095  -13.1880   29.1584 C.ar    1  UNL1        0.1457
      6 F         -10.3638  -13.2246   29.6731 F       1  UNL1       -0.2040
      7 C          -8.7609  -14.1217   28.1784 C.ar    1  UNL1        0.0443
      8 N          -6.4391  -16.3105   24.2201 N.pl3   1  UNL1       -0.3041
      9 C          -7.8425  -15.9334   24.4308 C.3     1  UNL1        0.1122
     10 C          -8.1509  -15.8595   25.9281 C.3     1  UNL1        0.1122
     11 N          -7.1095  -15.0906   26.6195 N.pl3   1  UNL1       -0.3040
     12 C          -5.7115  -15.4838   26.4113 C.3     1  UNL1        0.1122
     13 C          -5.4061  -15.5329   24.9156 C.3     1  UNL1        0.1122
     14 C          -6.7006  -18.6249   21.2744 C.ar    1  UNL1        0.0084
     15 C          -7.0572  -17.7577   22.3162 C.ar    1  UNL1        0.0127
     16 C          -6.0728  -17.1871   23.1381 C.ar    1  UNL1        0.0476
     17 C          -4.7228  -17.4919   22.9071 C.ar    1  UNL1        0.0184
     18 C          -4.3481  -18.3427   21.8535 C.ar    1  UNL1        0.0724
     19 C          -5.3477  -18.9255   21.0566 C.ar    1  UNL1        0.0021
     20 C          -2.8996  -18.7097   21.6486 C.3     1  UNL1        0.4186
     21 F          -2.4444  -18.2422   20.4277 F       1  UNL1       -0.1659
     22 F          -2.1408  -18.1472   22.6577 F       1  UNL1       -0.1659
     23 F          -2.7351  -20.0839   21.6730 F       1  UNL1       -0.1659
     24 C          -7.7712  -19.2580   20.4248 C.3     1  UNL1        0.1687
     25 C          -9.9902  -19.0382   19.7919 C.3     1  UNL1        0.1746
     26 O          -9.0514  -18.8033   20.8190 O.3     1  UNL1       -0.3463
     27 C          -8.5158  -11.1836   30.5750 C.2     1  UNL1        0.2483
     28 O          -9.5566  -10.5018   30.3679 O.2     1  UNL1       -0.2701
     29 N          -7.7433  -10.9678   31.7684 N.am    1  UNL1       -0.2945
     30 H          -6.8915  -11.5483   31.9128 H       1  UNL1        0.1501
     31 C          -8.2818  -10.2591   32.9345 C.3     1  UNL1        0.1535
     32 C          -8.8048  -11.2251   33.9840 C.2     1  UNL1        0.2443
     33 O          -7.9898  -11.7588   34.7831 O.2     1  UNL1       -0.2730
     34 N         -10.2107  -11.3821   34.2327 N.am    1  UNL1       -0.2825
     35 H         -10.5591  -11.1432   35.1883 H       1  UNL1        0.1549
     36 C         -11.1507  -11.8925   33.2724 C.ar    1  UNL1        0.0535
     37 C         -11.9410  -11.0331   32.4940 C.ar    1  UNL1        0.0353
     38 C         -12.8718  -11.5701   31.6022 C.ar    1  UNL1        0.1002
     39 N         -12.9925  -12.9179   31.4720 N.ar    1  UNL1       -0.2422
     40 C         -12.2170  -13.7739   32.1886 C.ar    1  UNL1        0.1002
     41 C         -11.2740  -13.2765   33.0919 C.ar    1  UNL1        0.0353
     42 C          -7.2437   -9.2599   33.4956 C.3     1  UNL1        0.0569
     43 C          -6.6827   -8.3201   32.4625 C.ar    1  UNL1       -0.0017
     44 C          -5.3680   -8.2819   32.0047 C.ar    1  UNL1        0.0681
     45 N          -5.2287   -7.3410   31.0434 N.ar    1  UNL1       -0.3523
     46 C          -6.4412   -6.7815   30.8923 C.ar    1  UNL1        0.0563
     47 C          -6.7982   -5.7681   30.0038 C.ar    1  UNL1        0.0170
     48 C          -8.1350   -5.3304   30.0082 C.ar    1  UNL1        0.0015
     49 C          -9.0733   -5.9054   30.8935 C.ar    1  UNL1        0.0001
     50 C          -8.6841   -6.9253   31.7803 C.ar    1  UNL1        0.0012
     51 C          -7.3541   -7.3467   31.7458 C.ar    1  UNL1        0.0131
     52 H          -4.3554   -7.1054   30.5216 H       1  UNL1        0.1660
@<TRIPOS>BOND
     1    25    26    1
     2    26    24    1
     3    24    14    1
     4    14    15   ar
     5    15    16   ar
     6    16     8    1
     7     8     9    1
     8     9    10    1
     9    10    11    1
    10    11     1    1
    11     1     2   ar
    12     2     3   ar
    13     3     4   ar
    14     4    27    1
    15    27    28    2
    16    27    29   am
    17    29    31    1
    18    31    42    1
    19    42    43    1
    20    43    44   ar
    21    44    45   ar
    22    45    46   ar
    23    46    47   ar
    24    47    48   ar
    25    48    49   ar
    26    49    50   ar
    27    50    51   ar
    28    31    32    1
    29    32    33    2
    30    32    34   am
    31    34    36    1
    32    36    37   ar
    33    37    38   ar
    34    38    39   ar
    35    39    40   ar
    36    40    41   ar
    37     4     5   ar
    38     5     6    1
    39     5     7   ar
    40    11    12    1
    41    12    13    1
    42    16    17   ar
    43    17    18   ar
    44    18    20    1
    45    20    21    1
    46    20    22    1
    47    20    23    1
    48    18    19   ar
    49    19    14   ar
    50    13     8    1
    51     7     1   ar
    52    51    43   ar
    53    41    36   ar
    54    51    46   ar
    55    29    30    1
    56    45    52    1
    57    34    35    1
@<TRIPOS>MOLECULE
*****
 52 57 0 0 0
SMALL
GASTEIGER

@<TRIPOS>ATOM
      1 C          -7.7805  -14.2262   27.6216 C.ar    1  UNL1        0.0502
      2 C          -6.7147  -13.4334   28.0690 C.ar    1  UNL1        0.0148
      3 C          -6.9185  -12.4684   29.0576 C.ar    1  UNL1        0.0080
      4 C          -8.1953  -12.2684   29.6087 C.ar    1  UNL1        0.0808
      5 C          -9.2561  -13.0963   29.1913 C.ar    1  UNL1        0.1457
      6 F         -10.4821  -13.0091   29.7647 F       1  UNL1       -0.2040
      7 C          -9.0482  -14.0591   28.1995 C.ar    1  UNL1        0.0443
      8 N          -7.4097  -16.5136   24.1388 N.pl3   1  UNL1       -0.3041
      9 C          -8.7356  -16.3666   24.7522 C.3     1  UNL1        0.1122
     10 C          -8.6010  -16.1915   26.2666 C.3     1  UNL1        0.1122
     11 N          -7.5762  -15.1852   26.5682 N.pl3   1  UNL1       -0.3040
     12 C          -6.2514  -15.3488   25.9596 C.3     1  UNL1        0.1122
     13 C          -6.3933  -15.4998   24.4464 C.3     1  UNL1        0.1122
     14 C          -5.7253  -18.7214   21.6108 C.ar    1  UNL1        0.0084
     15 C          -5.9200  -17.8521   22.6929 C.ar    1  UNL1        0.0127
     16 C          -7.2102  -17.4212   23.0388 C.ar    1  UNL1        0.0476
     17 C          -8.3089  -17.8701   22.2903 C.ar    1  UNL1        0.0184
     18 C          -8.1320  -18.7585   21.2161 C.ar    1  UNL1        0.0724
     19 C          -6.8315  -19.1595   20.8673 C.ar    1  UNL1        0.0021
     20 C          -9.3122  -19.1903   20.3821 C.3     1  UNL1        0.4186
     21 F          -9.9819  -18.0899   19.8752 F       1  UNL1       -0.1659
     22 F          -8.8658  -19.9695   19.3314 F       1  UNL1       -0.1659
     23 F         -10.2049  -19.9263   21.1421 F       1  UNL1       -0.1659
     24 C          -4.3312  -19.1453   21.2296 C.3     1  UNL1        0.1687
     25 C          -2.7832  -18.0822   19.8708 C.3     1  UNL1        0.1746
     26 O          -3.4896  -18.0168   21.0906 O.3     1  UNL1       -0.3463
     27 C          -8.4008  -11.1617   30.5706 C.2     1  UNL1        0.2483
     28 O          -9.3162  -10.3210   30.3553 O.2     1  UNL1       -0.2701
     29 N          -7.6305  -11.0879   31.7825 N.am    1  UNL1       -0.2945
     30 H          -6.8843  -11.7977   31.9332 H       1  UNL1        0.1501
     31 C          -8.0760  -10.3199   32.9503 C.3     1  UNL1        0.1535
     32 C          -8.6461  -11.2237   34.0301 C.2     1  UNL1        0.2443
     33 O          -7.8559  -11.7973   34.8265 O.2     1  UNL1       -0.2730
     34 N         -10.0545  -11.2745   34.3070 N.am    1  UNL1       -0.2825
     35 H         -10.3666  -10.9913   35.2631 H       1  UNL1        0.1549
     36 C         -11.0466  -11.7366   33.3752 C.ar    1  UNL1        0.0535
     37 C         -11.3628  -13.0988   33.2585 C.ar    1  UNL1        0.0353
     38 C         -12.3029  -13.5104   32.3115 C.ar    1  UNL1        0.1002
     39 N         -12.9256  -12.5927   31.5254 N.ar    1  UNL1       -0.2422
     40 C         -12.6638  -11.2637   31.6395 C.ar    1  UNL1        0.1002
     41 C         -11.7293  -10.8112   32.5747 C.ar    1  UNL1        0.0353
     42 C          -6.9443   -9.4008   33.4656 C.3     1  UNL1        0.0569
     43 C          -6.4651   -8.3974   32.4512 C.ar    1  UNL1       -0.0017
     44 C          -5.1672   -8.2685   31.9632 C.ar    1  UNL1        0.0681
     45 N          -5.1069   -7.2908   31.0309 N.ar    1  UNL1       -0.3523
     46 C          -6.3530   -6.7979   30.9280 C.ar    1  UNL1        0.0563
     47 C          -6.7903   -5.7789   30.0829 C.ar    1  UNL1        0.0170
     48 C          -8.1495   -5.4198   30.1343 C.ar    1  UNL1        0.0015
     49 C          -9.0299   -6.0763   31.0223 C.ar    1  UNL1        0.0001
     50 C          -8.5601   -7.0998   31.8648 C.ar    1  UNL1        0.0012
     51 C          -7.2095   -7.4421   31.7840 C.ar    1  UNL1        0.0131
     52 H          -4.2625   -6.9883   30.4963 H       1  UNL1        0.1660
@<TRIPOS>BOND
     1    25    26    1
     2    26    24    1
     3    24    14    1
     4    14    15   ar
     5    15    16   ar
     6    16     8    1
     7     8     9    1
     8     9    10    1
     9    10    11    1
    10    11     1    1
    11     1     2   ar
    12     2     3   ar
    13     3     4   ar
    14     4    27    1
    15    27    28    2
    16    27    29   am
    17    29    31    1
    18    31    42    1
    19    42    43    1
    20    43    44   ar
    21    44    45   ar
    22    45    46   ar
    23    46    47   ar
    24    47    48   ar
    25    48    49   ar
    26    49    50   ar
    27    50    51   ar
    28    31    32    1
    29    32    33    2
    30    32    34   am
    31    34    36    1
    32    36    37   ar
    33    37    38   ar
    34    38    39   ar
    35    39    40   ar
    36    40    41   ar
    37     4     5   ar
    38     5     6    1
    39     5     7   ar
    40    11    12    1
    41    12    13    1
    42    16    17   ar
    43    17    18   ar
    44    18    20    1
    45    20    21    1
    46    20    22    1
    47    20    23    1
    48    18    19   ar
    49    19    14   ar
    50    13     8    1
    51     7     1   ar
    52    51    43   ar
    53    41    36   ar
    54    51    46   ar
    55    29    30    1
    56    45    52    1
    57    34    35    1
