@<TRIPOS>MOLECULE
*****
 38 42 0 0 0
SMALL
GASTEIGER

@<TRIPOS>ATOM
      1 C          49.1675   13.0460  -21.2260 C.2     1  UNL1        0.2511
      2 O          49.2730   14.1856  -21.7565 O.2     1  UNL1       -0.2698
      3 N          48.7474   11.9153  -22.0235 N.am    1  UNL1       -0.2612
      4 C          47.9571   10.8353  -21.4204 C.3     1  UNL1        0.1419
      5 C          46.5283   11.3161  -21.1931 C.3     1  UNL1        0.2268
      6 O          46.1668   12.3364  -22.1230 O.3     1  UNL1       -0.4739
      7 C          46.2598   12.1924  -23.5126 C.ar    1  UNL1        0.1369
      8 C          45.0759   12.3038  -24.2481 C.ar    1  UNL1        0.0367
      9 C          45.0859   12.2122  -25.6381 C.ar    1  UNL1        0.0031
     10 C          46.2922   12.0320  -26.3283 C.ar    1  UNL1        0.0000
     11 C          47.4878   11.9405  -25.5966 C.ar    1  UNL1        0.0011
     12 C          47.4965   11.9915  -24.1885 C.ar    1  UNL1        0.0396
     13 C          48.8540   11.9592  -23.4899 C.3     1  UNL1        0.1539
     14 I          50.0604   10.2977  -24.1512 I       1  UNL1       -0.0478
     15 C          46.3086   11.9505  -27.8109 C.ar    1  UNL1        0.0015
     16 C          46.6154   10.7230  -28.4627 C.ar    1  UNL1        0.0016
     17 C          46.6333   10.6368  -29.8675 C.ar    1  UNL1        0.0206
     18 C          46.3419   11.7880  -30.5911 C.ar    1  UNL1        0.0985
     19 N          46.3040   11.9333  -31.9279 N.ar    1  UNL1       -0.2241
     20 C          45.9757   13.2437  -32.0797 C.ar    1  UNL1        0.1750
     21 N          45.8129   13.8999  -30.9058 N.ar    1  UNL1       -0.3349
     22 C          46.0470   12.9655  -29.9772 C.ar    1  UNL1        0.0757
     23 C          46.0178   13.0961  -28.5916 C.ar    1  UNL1        0.0185
     24 H          45.5623   14.9033  -30.7624 H       1  UNL1        0.1675
     25 C          50.7228   12.6244  -19.2697 C.ar    1  UNL1        0.0503
     26 C          50.8873   12.4661  -17.8786 C.ar    1  UNL1        0.0328
     27 C          49.8019   12.6080  -17.0061 C.ar    1  UNL1        0.1069
     28 C          48.5414   12.9305  -17.5152 C.ar    1  UNL1        0.0186
     29 C          48.3583   13.0845  -18.8888 C.ar    1  UNL1        0.0071
     30 C          49.4317   12.9162  -19.7769 C.ar    1  UNL1        0.0668
     31 S          50.0366   12.4266  -15.2706 S.O2    1  UNL1        0.0105
     32 C          51.6956   12.9055  -14.8466 C.3     1  UNL1        0.1816
     33 O          49.0590   13.2937  -14.5279 O.2     1  UNL1       -0.1686
     34 O          49.8083   10.9946  -14.8747 O.2     1  UNL1       -0.1686
     35 N          51.8573   12.5272  -20.1573 N.pl3   1  UNL1       -0.3325
     36 H          52.0482   11.6184  -20.6358 H       1  UNL1        0.1468
     37 C          52.8360   14.0070  -21.8698 C.3     1  UNL1        0.0229
     38 C          52.7822   13.6388  -20.3906 C.3     1  UNL1        0.0871
@<TRIPOS>BOND
     1    37    38    1
     2    38    35    1
     3    35    25    1
     4    25    26   ar
     5    26    27   ar
     6    27    31    1
     7    31    32    1
     8    31    33    2
     9    31    34    2
    10    27    28   ar
    11    28    29   ar
    12    29    30   ar
    13    30     1    1
    14     1     2    2
    15     1     3   am
    16     3     4    1
    17     4     5    1
    18     5     6    1
    19     6     7    1
    20     7     8   ar
    21     8     9   ar
    22     9    10   ar
    23    10    15    1
    24    15    16   ar
    25    16    17   ar
    26    17    18   ar
    27    18    19   ar
    28    19    20   ar
    29    20    21   ar
    30    21    22   ar
    31    22    23   ar
    32    10    11   ar
    33    11    12   ar
    34    12    13    1
    35    13    14    1
    36    30    25   ar
    37    13     3    1
    38    12     7   ar
    39    23    15   ar
    40    22    18   ar
    41    35    36    1
    42    21    24    1
@<TRIPOS>MOLECULE
*****
 38 42 0 0 0
SMALL
GASTEIGER

@<TRIPOS>ATOM
      1 C          49.1406   12.9769  -21.6924 C.2     1  UNL1        0.2511
      2 O          49.0143   14.1552  -22.1246 O.2     1  UNL1       -0.2698
      3 N          48.9177   11.8559  -22.5783 N.am    1  UNL1       -0.2612
      4 C          48.3626   10.5999  -22.0596 C.3     1  UNL1        0.1419
      5 C          46.8760   10.7804  -21.7732 C.3     1  UNL1        0.2268
      6 O          46.3021   11.7859  -22.6074 O.3     1  UNL1       -0.4739
      7 C          46.3801   11.7761  -24.0053 C.ar    1  UNL1        0.1369
      8 C          45.1754   11.7204  -24.7130 C.ar    1  UNL1        0.0367
      9 C          45.1621   11.7461  -26.1057 C.ar    1  UNL1        0.0031
     10 C          46.3600   11.8552  -26.8246 C.ar    1  UNL1        0.0000
     11 C          47.5723   11.9330  -26.1192 C.ar    1  UNL1        0.0011
     12 C          47.6122   11.8696  -24.7122 C.ar    1  UNL1        0.0396
     13 C          48.9714   12.0388  -24.0368 C.3     1  UNL1        0.1539
     14 I          50.4491   10.6963  -24.8538 I       1  UNL1       -0.0478
     15 C          46.3483   11.8996  -28.3088 C.ar    1  UNL1        0.0015
     16 C          46.6547   10.7353  -29.0679 C.ar    1  UNL1        0.0016
     17 C          46.6460   10.7685  -30.4751 C.ar    1  UNL1        0.0206
     18 C          46.3290   11.9733  -31.0929 C.ar    1  UNL1        0.0985
     19 N          46.2635   12.2308  -32.4116 N.ar    1  UNL1       -0.2241
     20 C          45.9191   13.5453  -32.4456 C.ar    1  UNL1        0.1750
     21 N          45.7727   14.0979  -31.2175 N.ar    1  UNL1       -0.3349
     22 C          46.0343   13.0911  -30.3760 C.ar    1  UNL1        0.0757
     23 C          46.0308   13.1037  -28.9839 C.ar    1  UNL1        0.0185
     24 H          45.5149   15.0827  -30.9848 H       1  UNL1        0.1675
     25 C          48.4643   12.7290  -19.2623 C.ar    1  UNL1        0.0503
     26 C          48.8553   12.5906  -17.9150 C.ar    1  UNL1        0.0328
     27 C          50.2072   12.4914  -17.5658 C.ar    1  UNL1        0.1069
     28 C          51.1838   12.5091  -18.5648 C.ar    1  UNL1        0.0186
     29 C          50.8164   12.6518  -19.9022 C.ar    1  UNL1        0.0071
     30 C          49.4666   12.7817  -20.2633 C.ar    1  UNL1        0.0668
     31 S          50.6696   12.2978  -15.8780 S.O2    1  UNL1        0.0105
     32 C          49.5975   13.2816  -14.8563 C.3     1  UNL1        0.1816
     33 O          50.5568   10.8533  -15.4782 O.2     1  UNL1       -0.1686
     34 O          52.0934   12.7407  -15.6881 O.2     1  UNL1       -0.1686
     35 N          47.0660   12.7789  -19.6181 N.pl3   1  UNL1       -0.3325
     36 H          46.8026   13.0209  -20.5995 H       1  UNL1        0.1468
     37 C          44.7276   12.0449  -19.3472 C.3     1  UNL1        0.0229
     38 C          45.9907   12.5428  -18.6520 C.3     1  UNL1        0.0871
@<TRIPOS>BOND
     1    37    38    1
     2    38    35    1
     3    35    25    1
     4    25    26   ar
     5    26    27   ar
     6    27    31    1
     7    31    32    1
     8    31    33    2
     9    31    34    2
    10    27    28   ar
    11    28    29   ar
    12    29    30   ar
    13    30     1    1
    14     1     2    2
    15     1     3   am
    16     3     4    1
    17     4     5    1
    18     5     6    1
    19     6     7    1
    20     7     8   ar
    21     8     9   ar
    22     9    10   ar
    23    10    15    1
    24    15    16   ar
    25    16    17   ar
    26    17    18   ar
    27    18    19   ar
    28    19    20   ar
    29    20    21   ar
    30    21    22   ar
    31    22    23   ar
    32    10    11   ar
    33    11    12   ar
    34    12    13    1
    35    13    14    1
    36    30    25   ar
    37    13     3    1
    38    12     7   ar
    39    23    15   ar
    40    22    18   ar
    41    35    36    1
    42    21    24    1
