@<TRIPOS>MOLECULE
*****
 36 40 0 0 0
SMALL
GASTEIGER

@<TRIPOS>ATOM
      1 C          -9.6226   -6.9993   30.9044 C.ar    1  UNL1        0.1379
      2 C          -9.9700   -5.6544   30.6531 C.ar    1  UNL1        0.0615
      3 BR         -8.6360   -4.3653   30.1792 Br      1  UNL1       -0.0472
      4 C         -11.3105   -5.2359   30.7743 C.ar    1  UNL1        0.0843
      5 C         -12.2962   -6.1616   31.1435 C.ar    1  UNL1        0.2972
      6 N         -11.9170   -7.4429   31.3752 N.ar    1  UNL1       -0.1224
      7 C         -12.6531   -8.5056   31.7272 C.ar    1  UNL1        0.3137
      8 C         -11.7830   -9.5875   31.8263 C.ar    1  UNL1        0.1320
      9 N         -10.5186   -9.1891   31.5356 N.ar    1  UNL1       -0.2940
     10 C         -10.6508   -7.8743   31.2702 C.ar    1  UNL1        0.3128
     11 H          -9.6979   -9.7327   31.5218 H       1  UNL1        0.1718
     12 N          -5.6378   -8.4551   30.5464 N.3     1  UNL1       -0.2647
     13 C          -6.4068   -8.6860   31.7894 C.3     1  UNL1        0.0941
     14 C          -7.4464   -7.5813   31.9863 C.3     1  UNL1        0.1084
     15 N          -8.2671   -7.4533   30.7817 N.pl3   1  UNL1       -0.2984
     16 C          -7.5879   -7.3706   29.4881 C.3     1  UNL1        0.1084
     17 C          -6.5449   -8.4846   29.3801 C.3     1  UNL1        0.0941
     18 C          -4.5821   -9.4760   30.3872 C.3     1  UNL1        0.1200
     19 N          -6.1566  -12.3432   28.7263 N.ar    1  UNL1       -0.3128
     20 C          -5.2242  -11.9228   27.8474 C.ar    1  UNL1        0.1780
     21 N          -4.5347  -10.8510   28.2914 N.ar    1  UNL1       -0.2273
     22 C          -5.0598  -10.5954   29.5076 C.ar    1  UNL1        0.0885
     23 C          -6.0426  -11.5277   29.7940 C.ar    1  UNL1        0.0537
     24 C          -6.9016  -11.5794   31.0245 C.3     1  UNL1        0.0514
     25 C          -6.5285  -14.3913   27.4292 C.3     1  UNL1        0.0265
     26 C          -7.0385  -13.4980   28.5540 C.3     1  UNL1        0.1073
     27 C         -12.1346  -10.9825   32.1888 C.ar    1  UNL1        0.0218
     28 C         -11.3119  -11.7054   33.0652 C.ar    1  UNL1        0.0013
     29 C         -11.6264  -13.0194   33.4183 C.ar    1  UNL1       -0.0042
     30 C         -12.7762  -13.6592   32.9076 C.ar    1  UNL1       -0.0228
     31 C         -13.5987  -12.9217   32.0252 C.ar    1  UNL1       -0.0042
     32 C         -13.2816  -11.6065   31.6734 C.ar    1  UNL1        0.0013
     33 C         -13.0879  -15.1122   33.3228 C.3     1  UNL1        0.0189
     34 C         -12.6729  -15.3275   34.7946 C.3     1  UNL1        0.0044
     35 C         -12.2996  -16.0860   32.4201 C.3     1  UNL1        0.0044
     36 C         -14.5890  -15.4697   33.2010 C.3     1  UNL1        0.0044
@<TRIPOS>BOND
     1    25    26    1
     2    26    19    1
     3    19    20   ar
     4    20    21   ar
     5    21    22   ar
     6    22    18    1
     7    18    12    1
     8    12    13    1
     9    13    14    1
    10    14    15    1
    11    15     1    1
    12     1     2   ar
    13     2     3    1
    14     2     4   ar
    15     4     5   ar
    16     5     6   ar
    17     6     7   ar
    18     7     8   ar
    19     8    27    1
    20    27    28   ar
    21    28    29   ar
    22    29    30   ar
    23    30    33    1
    24    33    34    1
    25    33    35    1
    26    33    36    1
    27    30    31   ar
    28    31    32   ar
    29     8     9   ar
    30     9    10   ar
    31    15    16    1
    32    16    17    1
    33    22    23   ar
    34    23    24    1
    35    23    19   ar
    36    17    12    1
    37    10     1   ar
    38    10     6   ar
    39    32    27   ar
    40     9    11    1
@<TRIPOS>MOLECULE
*****
 36 40 0 0 0
SMALL
GASTEIGER

@<TRIPOS>ATOM
      1 C          -8.1863  -16.7124   24.8358 C.ar    1  UNL1        0.1379
      2 C          -8.8557  -17.9374   24.6263 C.ar    1  UNL1        0.0615
      3 BR         -8.6988  -18.8729   22.9631 Br      1  UNL1       -0.0472
      4 C          -9.6745  -18.4777   25.6383 C.ar    1  UNL1        0.0843
      5 C          -9.8193  -17.7939   26.8534 C.ar    1  UNL1        0.2972
      6 N          -9.1578  -16.6205   27.0108 N.ar    1  UNL1       -0.1224
      7 C          -9.1220  -15.7895   28.0611 C.ar    1  UNL1        0.3137
      8 C          -8.2853  -14.7326   27.7144 C.ar    1  UNL1        0.1320
      9 N          -7.8098  -14.9157   26.4565 N.ar    1  UNL1       -0.2940
     10 C          -8.3718  -16.0777   26.0684 C.ar    1  UNL1        0.3128
     11 H          -7.1982  -14.3361   25.9473 H       1  UNL1        0.1718
     12 N          -5.6596  -15.1305   21.7961 N.3     1  UNL1       -0.2647
     13 C          -5.1007  -16.0100   22.8468 C.3     1  UNL1        0.0941
     14 C          -5.9301  -15.9039   24.1277 C.3     1  UNL1        0.1084
     15 N          -7.3414  -16.1435   23.8252 N.pl3   1  UNL1       -0.2984
     16 C          -7.9391  -15.4238   22.6999 C.3     1  UNL1        0.1084
     17 C          -7.0387  -15.5494   21.4695 C.3     1  UNL1        0.0941
     18 C          -4.8215  -15.1704   20.5803 C.3     1  UNL1        0.1200
     19 N          -2.1141  -17.6329   20.8353 N.ar    1  UNL1       -0.3128
     20 C          -1.6492  -16.5593   21.5059 C.ar    1  UNL1        0.1780
     21 N          -2.5229  -15.5308   21.5139 N.ar    1  UNL1       -0.2273
     22 C          -3.5850  -15.9884   20.8193 C.ar    1  UNL1        0.0885
     23 C          -3.3513  -17.2934   20.4201 C.ar    1  UNL1        0.0537
     24 C          -4.2594  -18.1570   19.5930 C.3     1  UNL1        0.0514
     25 C           0.0525  -18.6818   20.3651 C.3     1  UNL1        0.0265
     26 C          -1.4214  -18.9121   20.6784 C.3     1  UNL1        0.1073
     27 C          -7.9337  -13.5624   28.5559 C.ar    1  UNL1        0.0218
     28 C          -8.9253  -12.9248   29.3159 C.ar    1  UNL1        0.0013
     29 C          -8.6138  -11.8222   30.1141 C.ar    1  UNL1       -0.0042
     30 C          -7.2978  -11.3162   30.1818 C.ar    1  UNL1       -0.0228
     31 C          -6.3059  -11.9662   29.4120 C.ar    1  UNL1       -0.0042
     32 C          -6.6205  -13.0697   28.6139 C.ar    1  UNL1        0.0013
     33 C          -6.9954  -10.0958   31.0762 C.3     1  UNL1        0.0189
     34 C          -5.4839  -10.0483   31.3887 C.3     1  UNL1        0.0044
     35 C          -7.7884  -10.2155   32.3958 C.3     1  UNL1        0.0044
     36 C          -7.3812   -8.7495   30.4169 C.3     1  UNL1        0.0044
@<TRIPOS>BOND
     1    25    26    1
     2    26    19    1
     3    19    20   ar
     4    20    21   ar
     5    21    22   ar
     6    22    18    1
     7    18    12    1
     8    12    13    1
     9    13    14    1
    10    14    15    1
    11    15     1    1
    12     1     2   ar
    13     2     3    1
    14     2     4   ar
    15     4     5   ar
    16     5     6   ar
    17     6     7   ar
    18     7     8   ar
    19     8    27    1
    20    27    28   ar
    21    28    29   ar
    22    29    30   ar
    23    30    33    1
    24    33    34    1
    25    33    35    1
    26    33    36    1
    27    30    31   ar
    28    31    32   ar
    29     8     9   ar
    30     9    10   ar
    31    15    16    1
    32    16    17    1
    33    22    23   ar
    34    23    24    1
    35    23    19   ar
    36    17    12    1
    37    10     1   ar
    38    10     6   ar
    39    32    27   ar
    40     9    11    1
@<TRIPOS>MOLECULE
*****
 36 40 0 0 0
SMALL
GASTEIGER

@<TRIPOS>ATOM
      1 C         -10.3028   -6.9697   30.6363 C.ar    1  UNL1        0.1379
      2 C         -10.6896   -5.6132   30.6894 C.ar    1  UNL1        0.0615
      3 BR         -9.5780   -4.2427   29.9463 Br      1  UNL1       -0.0472
      4 C         -11.8966   -5.2463   31.3181 C.ar    1  UNL1        0.0843
      5 C         -12.7109   -6.2346   31.8883 C.ar    1  UNL1        0.2972
      6 N         -12.2998   -7.5248   31.8138 N.ar    1  UNL1       -0.1224
      7 C         -12.8886   -8.6407   32.2645 C.ar    1  UNL1        0.3137
      8 C         -12.0591   -9.7045   31.9214 C.ar    1  UNL1        0.1320
      9 N         -10.9665   -9.2421   31.2625 N.ar    1  UNL1       -0.2940
     10 C         -11.1570   -7.9083   31.2242 C.ar    1  UNL1        0.3128
     11 H         -10.2121   -9.7592   30.8981 H       1  UNL1        0.1718
     12 N          -6.6357   -8.1780   28.8420 N.3     1  UNL1       -0.2647
     13 C          -6.6949   -6.9464   29.6603 C.3     1  UNL1        0.0941
     14 C          -8.1031   -6.3500   29.6251 C.3     1  UNL1        0.1084
     15 N          -9.0828   -7.3712   29.9966 N.pl3   1  UNL1       -0.2984
     16 C          -9.0023   -8.6773   29.3415 C.3     1  UNL1        0.1084
     17 C          -7.5621   -9.1912   29.3892 C.3     1  UNL1        0.0941
     18 C          -5.2617   -8.7192   28.8102 C.3     1  UNL1        0.1200
     19 N          -4.8268  -11.1053   31.5627 N.ar    1  UNL1       -0.3128
     20 C          -5.0614  -11.8819   30.4855 C.ar    1  UNL1        0.1780
     21 N          -5.2559  -11.1656   29.3585 N.ar    1  UNL1       -0.2273
     22 C          -5.1310   -9.8813   29.7523 C.ar    1  UNL1        0.0885
     23 C          -4.8401   -9.8369   31.1053 C.ar    1  UNL1        0.0537
     24 C          -4.6624   -8.6062   31.9468 C.3     1  UNL1        0.0514
     25 C          -3.0664  -11.9283   33.0589 C.3     1  UNL1        0.0265
     26 C          -4.5436  -11.5806   32.9173 C.3     1  UNL1        0.1073
     27 C         -12.2901  -11.1419   32.2076 C.ar    1  UNL1        0.0218
     28 C         -11.5060  -11.7982   33.1675 C.ar    1  UNL1        0.0013
     29 C         -11.7086  -13.1505   33.4509 C.ar    1  UNL1       -0.0042
     30 C         -12.7038  -13.8968   32.7839 C.ar    1  UNL1       -0.0228
     31 C         -13.4888  -13.2257   31.8183 C.ar    1  UNL1       -0.0042
     32 C         -13.2839  -11.8720   31.5367 C.ar    1  UNL1        0.0013
     33 C         -12.8955  -15.3891   33.1263 C.3     1  UNL1        0.0189
     34 C         -14.4022  -15.6947   33.2718 C.3     1  UNL1        0.0044
     35 C         -12.1768  -15.7087   34.4552 C.3     1  UNL1        0.0044
     36 C         -12.3260  -16.3382   32.0444 C.3     1  UNL1        0.0044
@<TRIPOS>BOND
     1    25    26    1
     2    26    19    1
     3    19    20   ar
     4    20    21   ar
     5    21    22   ar
     6    22    18    1
     7    18    12    1
     8    12    13    1
     9    13    14    1
    10    14    15    1
    11    15     1    1
    12     1     2   ar
    13     2     3    1
    14     2     4   ar
    15     4     5   ar
    16     5     6   ar
    17     6     7   ar
    18     7     8   ar
    19     8    27    1
    20    27    28   ar
    21    28    29   ar
    22    29    30   ar
    23    30    33    1
    24    33    34    1
    25    33    35    1
    26    33    36    1
    27    30    31   ar
    28    31    32   ar
    29     8     9   ar
    30     9    10   ar
    31    15    16    1
    32    16    17    1
    33    22    23   ar
    34    23    24    1
    35    23    19   ar
    36    17    12    1
    37    10     1   ar
    38    10     6   ar
    39    32    27   ar
    40     9    11    1
@<TRIPOS>MOLECULE
*****
 36 40 0 0 0
SMALL
GASTEIGER

@<TRIPOS>ATOM
      1 C          -9.4569  -17.9708   23.4119 C.ar    1  UNL1        0.1379
      2 C         -10.7771  -18.3568   23.0945 C.ar    1  UNL1        0.0615
      3 BR        -12.2522  -17.8083   24.1850 Br      1  UNL1       -0.0472
      4 C         -11.0239  -19.1787   21.9763 C.ar    1  UNL1        0.0843
      5 C          -9.9529  -19.6089   21.1809 C.ar    1  UNL1        0.2972
      6 N          -8.7015  -19.2137   21.5232 N.ar    1  UNL1       -0.1224
      7 C          -7.5273  -19.4758   20.9337 C.ar    1  UNL1        0.3137
      8 C          -6.5464  -18.8227   21.6745 C.ar    1  UNL1        0.1320
      9 N          -7.1177  -18.1625   22.7136 N.ar    1  UNL1       -0.2940
     10 C          -8.4313  -18.4334   22.5808 C.ar    1  UNL1        0.3128
     11 H          -6.6764  -17.6147   23.4023 H       1  UNL1        0.1718
     12 N          -8.5215  -15.5116   26.7592 N.3     1  UNL1       -0.2647
     13 C          -8.4634  -16.9855   26.8778 C.3     1  UNL1        0.0941
     14 C          -9.4304  -17.6386   25.8886 C.3     1  UNL1        0.1084
     15 N          -9.1784  -17.1295   24.5403 N.pl3   1  UNL1       -0.2984
     16 C          -9.0698  -15.6816   24.3572 C.3     1  UNL1        0.1084
     17 C          -8.1138  -15.0993   25.3999 C.3     1  UNL1        0.0941
     18 C          -7.6460  -14.8713   27.7619 C.3     1  UNL1        0.1200
     19 N          -8.9205  -12.0421   29.7190 N.ar    1  UNL1       -0.3128
     20 C         -10.0088  -12.8061   29.4944 C.ar    1  UNL1        0.1780
     21 N          -9.7306  -13.9100   28.7696 N.ar    1  UNL1       -0.2273
     22 C          -8.4041  -13.8319   28.5365 C.ar    1  UNL1        0.0885
     23 C          -7.8926  -12.6963   29.1414 C.ar    1  UNL1        0.0537
     24 C          -6.4713  -12.2147   29.0933 C.3     1  UNL1        0.0514
     25 C         -10.0737   -9.9185   30.1381 C.3     1  UNL1        0.0265
     26 C          -8.8875  -10.8049   30.4995 C.3     1  UNL1        0.1073
     27 C          -5.0866  -18.8165   21.4091 C.ar    1  UNL1        0.0218
     28 C          -4.1965  -18.3950   22.4077 C.ar    1  UNL1        0.0013
     29 C          -2.8193  -18.3824   22.1768 C.ar    1  UNL1       -0.0042
     30 C          -2.2813  -18.7913   20.9376 C.ar    1  UNL1       -0.0228
     31 C          -3.1872  -19.2144   19.9379 C.ar    1  UNL1       -0.0042
     32 C          -4.5652  -19.2261   20.1717 C.ar    1  UNL1        0.0013
     33 C          -0.7535  -18.7624   20.7231 C.3     1  UNL1        0.0189
     34 C          -0.0968  -17.8887   21.8140 C.3     1  UNL1        0.0044
     35 C          -0.4401  -18.1682   19.3326 C.3     1  UNL1        0.0044
     36 C          -0.1043  -20.1658   20.7912 C.3     1  UNL1        0.0044
@<TRIPOS>BOND
     1    25    26    1
     2    26    19    1
     3    19    20   ar
     4    20    21   ar
     5    21    22   ar
     6    22    18    1
     7    18    12    1
     8    12    13    1
     9    13    14    1
    10    14    15    1
    11    15     1    1
    12     1     2   ar
    13     2     3    1
    14     2     4   ar
    15     4     5   ar
    16     5     6   ar
    17     6     7   ar
    18     7     8   ar
    19     8    27    1
    20    27    28   ar
    21    28    29   ar
    22    29    30   ar
    23    30    33    1
    24    33    34    1
    25    33    35    1
    26    33    36    1
    27    30    31   ar
    28    31    32   ar
    29     8     9   ar
    30     9    10   ar
    31    15    16    1
    32    16    17    1
    33    22    23   ar
    34    23    24    1
    35    23    19   ar
    36    17    12    1
    37    10     1   ar
    38    10     6   ar
    39    32    27   ar
    40     9    11    1
@<TRIPOS>MOLECULE
*****
 36 40 0 0 0
SMALL
GASTEIGER

@<TRIPOS>ATOM
      1 C          -7.3609  -11.4393   30.1354 C.ar    1  UNL1        0.1379
      2 C          -6.2596  -10.6293   30.4872 C.ar    1  UNL1        0.0615
      3 BR         -6.4291   -9.2600   31.8147 Br      1  UNL1       -0.0472
      4 C          -5.0189  -10.8038   29.8416 C.ar    1  UNL1        0.0843
      5 C          -4.8838  -11.7859   28.8506 C.ar    1  UNL1        0.2972
      6 N          -5.9682  -12.5408   28.5449 N.ar    1  UNL1       -0.1224
      7 C          -6.0991  -13.5349   27.6562 C.ar    1  UNL1        0.3137
      8 C          -7.4134  -13.9853   27.7415 C.ar    1  UNL1        0.1320
      9 N          -8.0850  -13.2701   28.6792 N.ar    1  UNL1       -0.2940
     10 C          -7.1633  -12.4004   29.1385 C.ar    1  UNL1        0.3128
     11 H          -9.0243  -13.3643   28.9584 H       1  UNL1        0.1718
     12 N         -11.1069  -11.0726   32.1253 N.3     1  UNL1       -0.2647
     13 C         -10.7689  -12.3151   31.3959 C.3     1  UNL1        0.0941
     14 C          -9.7892  -12.0166   30.2596 C.3     1  UNL1        0.1084
     15 N          -8.6330  -11.2873   30.7814 N.pl3   1  UNL1       -0.2984
     16 C          -8.8771  -10.1281   31.6406 C.3     1  UNL1        0.1084
     17 C          -9.8877  -10.4953   32.7288 C.3     1  UNL1        0.0941
     18 C         -12.1095  -11.3397   33.1767 C.3     1  UNL1        0.1200
     19 N         -13.4207  -14.7602   32.9761 N.ar    1  UNL1       -0.3128
     20 C         -14.1577  -14.0703   32.0820 C.ar    1  UNL1        0.1780
     21 N         -13.8160  -12.7662   32.0199 N.ar    1  UNL1       -0.2273
     22 C         -12.8144  -12.6396   32.9147 C.ar    1  UNL1        0.0885
     23 C         -12.5470  -13.8706   33.4894 C.ar    1  UNL1        0.0537
     24 C         -11.5358  -14.1623   34.5603 C.3     1  UNL1        0.0514
     25 C         -12.8419  -16.9943   32.1459 C.3     1  UNL1        0.0265
     26 C         -13.5247  -16.1939   33.2489 C.3     1  UNL1        0.1073
     27 C          -8.0332  -15.0776   26.9516 C.ar    1  UNL1        0.0218
     28 C          -8.2569  -14.9064   25.5776 C.ar    1  UNL1        0.0013
     29 C          -8.8389  -15.9231   24.8175 C.ar    1  UNL1       -0.0042
     30 C          -9.2188  -17.1494   25.4041 C.ar    1  UNL1       -0.0228
     31 C          -8.9888  -17.3117   26.7896 C.ar    1  UNL1       -0.0042
     32 C          -8.4060  -16.2924   27.5481 C.ar    1  UNL1        0.0013
     33 C          -9.8589  -18.2472   24.5289 C.3     1  UNL1        0.0189
     34 C          -8.8922  -18.6222   23.3844 C.3     1  UNL1        0.0044
     35 C         -11.1824  -17.7225   23.9309 C.3     1  UNL1        0.0044
     36 C         -10.1794  -19.5410   25.3158 C.3     1  UNL1        0.0044
@<TRIPOS>BOND
     1    25    26    1
     2    26    19    1
     3    19    20   ar
     4    20    21   ar
     5    21    22   ar
     6    22    18    1
     7    18    12    1
     8    12    13    1
     9    13    14    1
    10    14    15    1
    11    15     1    1
    12     1     2   ar
    13     2     3    1
    14     2     4   ar
    15     4     5   ar
    16     5     6   ar
    17     6     7   ar
    18     7     8   ar
    19     8    27    1
    20    27    28   ar
    21    28    29   ar
    22    29    30   ar
    23    30    33    1
    24    33    34    1
    25    33    35    1
    26    33    36    1
    27    30    31   ar
    28    31    32   ar
    29     8     9   ar
    30     9    10   ar
    31    15    16    1
    32    16    17    1
    33    22    23   ar
    34    23    24    1
    35    23    19   ar
    36    17    12    1
    37    10     1   ar
    38    10     6   ar
    39    32    27   ar
    40     9    11    1
@<TRIPOS>MOLECULE
*****
 36 40 0 0 0
SMALL
GASTEIGER

@<TRIPOS>ATOM
      1 C          -7.1546  -10.3995   31.3982 C.ar    1  UNL1        0.1379
      2 C          -6.1574   -9.5102   31.8538 C.ar    1  UNL1        0.0615
      3 BR         -6.4998   -8.3057   33.3022 Br      1  UNL1       -0.0472
      4 C          -4.8959   -9.4808   31.2257 C.ar    1  UNL1        0.0843
      5 C          -4.6363  -10.3393   30.1485 C.ar    1  UNL1        0.2972
      6 N          -5.6236  -11.1767   29.7445 N.ar    1  UNL1       -0.1224
      7 C          -5.6284  -12.0869   28.7614 C.ar    1  UNL1        0.3137
      8 C          -6.8841  -12.6874   28.7700 C.ar    1  UNL1        0.1320
      9 N          -7.6456  -12.1474   29.7551 N.ar    1  UNL1       -0.2940
     10 C          -6.8352  -11.2297   30.3188 C.ar    1  UNL1        0.3128
     11 H          -8.5720  -12.3729   30.0002 H       1  UNL1        0.1718
     12 N         -11.0138  -10.6450   33.1793 N.3     1  UNL1       -0.2647
     13 C         -10.8649  -10.1691   31.7860 C.3     1  UNL1        0.0941
     14 C          -9.4898   -9.5296   31.5851 C.3     1  UNL1        0.1084
     15 N          -8.4446  -10.4547   32.0238 N.pl3   1  UNL1       -0.2984
     16 C          -8.5897  -11.0908   33.3338 C.3     1  UNL1        0.1084
     17 C          -9.9964  -11.6764   33.4708 C.3     1  UNL1        0.0941
     18 C         -12.3660  -11.1966   33.4018 C.3     1  UNL1        0.1200
     19 N         -12.5834  -14.7994   32.7447 N.ar    1  UNL1       -0.3128
     20 C         -12.5477  -14.2408   31.5178 C.ar    1  UNL1        0.1780
     21 N         -12.4726  -12.8940   31.5599 N.ar    1  UNL1       -0.2273
     22 C         -12.4554  -12.6006   32.8766 C.ar    1  UNL1        0.0885
     23 C         -12.4967  -13.7719   33.6137 C.ar    1  UNL1        0.0537
     24 C         -12.5349  -13.8918   35.1099 C.3     1  UNL1        0.0514
     25 C         -12.8511  -17.0252   31.7501 C.3     1  UNL1        0.0265
     26 C         -12.6286  -16.2331   33.0332 C.3     1  UNL1        0.1073
     27 C          -7.3648  -13.7590   27.8634 C.ar    1  UNL1        0.0218
     28 C          -6.5435  -14.2133   26.8211 C.ar    1  UNL1        0.0013
     29 C          -6.9782  -15.2212   25.9578 C.ar    1  UNL1       -0.0042
     30 C          -8.2515  -15.8123   26.1054 C.ar    1  UNL1       -0.0228
     31 C          -9.0713  -15.3472   27.1592 C.ar    1  UNL1       -0.0042
     32 C          -8.6336  -14.3383   28.0219 C.ar    1  UNL1        0.0013
     33 C          -8.6938  -16.9232   25.1302 C.3     1  UNL1        0.0189
     34 C          -7.4829  -17.3819   24.2887 C.3     1  UNL1        0.0044
     35 C          -9.7927  -16.3776   24.1925 C.3     1  UNL1        0.0044
     36 C          -9.2656  -18.1694   25.8485 C.3     1  UNL1        0.0044
@<TRIPOS>BOND
     1    25    26    1
     2    26    19    1
     3    19    20   ar
     4    20    21   ar
     5    21    22   ar
     6    22    18    1
     7    18    12    1
     8    12    13    1
     9    13    14    1
    10    14    15    1
    11    15     1    1
    12     1     2   ar
    13     2     3    1
    14     2     4   ar
    15     4     5   ar
    16     5     6   ar
    17     6     7   ar
    18     7     8   ar
    19     8    27    1
    20    27    28   ar
    21    28    29   ar
    22    29    30   ar
    23    30    33    1
    24    33    34    1
    25    33    35    1
    26    33    36    1
    27    30    31   ar
    28    31    32   ar
    29     8     9   ar
    30     9    10   ar
    31    15    16    1
    32    16    17    1
    33    22    23   ar
    34    23    24    1
    35    23    19   ar
    36    17    12    1
    37    10     1   ar
    38    10     6   ar
    39    32    27   ar
    40     9    11    1
@<TRIPOS>MOLECULE
*****
 36 40 0 0 0
SMALL
GASTEIGER

@<TRIPOS>ATOM
      1 C          -9.7604  -18.3156   21.6380 C.ar    1  UNL1        0.1379
      2 C         -10.9717  -18.7281   21.0419 C.ar    1  UNL1        0.0615
      3 BR        -12.6596  -18.2359   21.8000 Br      1  UNL1       -0.0472
      4 C         -10.9521  -19.5353   19.8866 C.ar    1  UNL1        0.0843
      5 C          -9.7249  -19.9245   19.3321 C.ar    1  UNL1        0.2972
      6 N          -8.5864  -19.5050   19.9381 N.ar    1  UNL1       -0.1224
      7 C          -7.3068  -19.7273   19.6090 C.ar    1  UNL1        0.3137
      8 C          -6.5245  -19.0638   20.5498 C.ar    1  UNL1        0.1320
      9 N          -7.3218  -18.4369   21.4516 N.ar    1  UNL1       -0.2940
     10 C          -8.5691  -18.7376   21.0387 C.ar    1  UNL1        0.3128
     11 H          -7.0525  -17.8910   22.2253 H       1  UNL1        0.1718
     12 N          -9.6200  -15.8706   25.1207 N.3     1  UNL1       -0.2647
     13 C          -9.2107  -17.2910   25.1902 C.3     1  UNL1        0.0941
     14 C          -9.9390  -18.1087   24.1220 C.3     1  UNL1        0.1084
     15 N          -9.7518  -17.4883   22.8103 N.pl3   1  UNL1       -0.2984
     16 C          -9.9901  -16.0498   22.6855 C.3     1  UNL1        0.1084
     17 C          -9.2578  -15.3059   23.8039 C.3     1  UNL1        0.0941
     18 C          -8.9778  -15.0880   26.1964 C.3     1  UNL1        0.1200
     19 N          -5.4423  -16.0672   26.2134 N.ar    1  UNL1       -0.3128
     20 C          -5.9099  -16.4949   27.4038 C.ar    1  UNL1        0.1780
     21 N          -7.2172  -16.2121   27.5828 N.ar    1  UNL1       -0.2273
     22 C          -7.5822  -15.5826   26.4467 C.ar    1  UNL1        0.0885
     23 C          -6.4996  -15.5130   25.5863 C.ar    1  UNL1        0.0537
     24 C          -6.4655  -14.8586   24.2353 C.3     1  UNL1        0.0514
     25 C          -4.0175  -17.4692   24.7922 C.3     1  UNL1        0.0265
     26 C          -4.0813  -16.2535   25.7095 C.3     1  UNL1        0.1073
     27 C          -5.0424  -19.0169   20.6015 C.ar    1  UNL1        0.0218
     28 C          -4.3276  -18.3725   19.5812 C.ar    1  UNL1        0.0013
     29 C          -2.9326  -18.3177   19.6125 C.ar    1  UNL1       -0.0042
     30 C          -2.2005  -18.9059   20.6663 C.ar    1  UNL1       -0.0228
     31 C          -2.9307  -19.5527   21.6897 C.ar    1  UNL1       -0.0042
     32 C          -4.3271  -19.6060   21.6559 C.ar    1  UNL1        0.0013
     33 C          -0.6598  -18.8230   20.6633 C.3     1  UNL1        0.0189
     34 C          -0.1887  -17.9503   21.8470 C.3     1  UNL1        0.0044
     35 C          -0.1807  -18.1915   19.3381 C.3     1  UNL1        0.0044
     36 C           0.0228  -20.2057   20.7983 C.3     1  UNL1        0.0044
@<TRIPOS>BOND
     1    25    26    1
     2    26    19    1
     3    19    20   ar
     4    20    21   ar
     5    21    22   ar
     6    22    18    1
     7    18    12    1
     8    12    13    1
     9    13    14    1
    10    14    15    1
    11    15     1    1
    12     1     2   ar
    13     2     3    1
    14     2     4   ar
    15     4     5   ar
    16     5     6   ar
    17     6     7   ar
    18     7     8   ar
    19     8    27    1
    20    27    28   ar
    21    28    29   ar
    22    29    30   ar
    23    30    33    1
    24    33    34    1
    25    33    35    1
    26    33    36    1
    27    30    31   ar
    28    31    32   ar
    29     8     9   ar
    30     9    10   ar
    31    15    16    1
    32    16    17    1
    33    22    23   ar
    34    23    24    1
    35    23    19   ar
    36    17    12    1
    37    10     1   ar
    38    10     6   ar
    39    32    27   ar
    40     9    11    1
@<TRIPOS>MOLECULE
*****
 36 40 0 0 0
SMALL
GASTEIGER

@<TRIPOS>ATOM
      1 C          -6.1719   -8.4182   31.6347 C.ar    1  UNL1        0.1379
      2 C          -4.7717   -8.2492   31.6949 C.ar    1  UNL1        0.0615
      3 BR         -3.9575   -6.5923   31.1874 Br      1  UNL1       -0.0472
      4 C          -3.9480   -9.3156   32.1085 C.ar    1  UNL1        0.0843
      5 C          -4.5260  -10.5431   32.4610 C.ar    1  UNL1        0.2972
      6 N          -5.8751  -10.6603   32.3880 N.ar    1  UNL1       -0.1224
      7 C          -6.6624  -11.7063   32.6727 C.ar    1  UNL1        0.3137
      8 C          -7.9741  -11.3021   32.4414 C.ar    1  UNL1        0.1320
      9 N          -7.9903  -10.0131   32.0170 N.ar    1  UNL1       -0.2940
     10 C          -6.6879   -9.6666   31.9977 C.ar    1  UNL1        0.3128
     11 H          -8.7700   -9.4610   31.7793 H       1  UNL1        0.1718
     12 N          -8.8190   -5.3128   30.4199 N.3     1  UNL1       -0.2647
     13 C          -8.5993   -6.4883   29.5482 C.3     1  UNL1        0.0941
     14 C          -7.2121   -7.0837   29.7956 C.3     1  UNL1        0.1084
     15 N          -7.0338   -7.3473   31.2237 N.pl3   1  UNL1       -0.2984
     16 C          -7.3731   -6.2843   32.1706 C.3     1  UNL1        0.1084
     17 C          -8.7557   -5.7194   31.8393 C.3     1  UNL1        0.0941
     18 C         -10.1264   -4.6873   30.1346 C.3     1  UNL1        0.1200
     19 N         -12.6642   -7.0079   31.4129 N.ar    1  UNL1       -0.3128
     20 C         -12.8561   -5.8808   32.1281 C.ar    1  UNL1        0.1780
     21 N         -11.9932   -4.8983   31.7948 N.ar    1  UNL1       -0.2273
     22 C         -11.2309   -5.4381   30.8213 C.ar    1  UNL1        0.0885
     23 C         -11.6558   -6.7300   30.5618 C.ar    1  UNL1        0.0537
     24 C         -11.0541   -7.6945   29.5809 C.3     1  UNL1        0.0514
     25 C         -12.6334   -9.3471   32.1493 C.3     1  UNL1        0.0265
     26 C         -13.4574   -8.2332   31.5139 C.3     1  UNL1        0.1073
     27 C          -9.2012  -12.1170   32.6183 C.ar    1  UNL1        0.0218
     28 C          -9.5951  -12.5172   33.9036 C.ar    1  UNL1        0.0013
     29 C         -10.7470  -13.2842   34.0903 C.ar    1  UNL1       -0.0042
     30 C         -11.5481  -13.6796   32.9974 C.ar    1  UNL1       -0.0228
     31 C         -11.1422  -13.2707   31.7062 C.ar    1  UNL1       -0.0042
     32 C          -9.9888  -12.5030   31.5222 C.ar    1  UNL1        0.0013
     33 C         -12.8133  -14.5269   33.2467 C.3     1  UNL1        0.0189
     34 C         -14.0534  -13.7649   32.7308 C.3     1  UNL1        0.0044
     35 C         -12.9664  -14.7903   34.7605 C.3     1  UNL1        0.0044
     36 C         -12.7749  -15.8997   32.5327 C.3     1  UNL1        0.0044
@<TRIPOS>BOND
     1    25    26    1
     2    26    19    1
     3    19    20   ar
     4    20    21   ar
     5    21    22   ar
     6    22    18    1
     7    18    12    1
     8    12    13    1
     9    13    14    1
    10    14    15    1
    11    15     1    1
    12     1     2   ar
    13     2     3    1
    14     2     4   ar
    15     4     5   ar
    16     5     6   ar
    17     6     7   ar
    18     7     8   ar
    19     8    27    1
    20    27    28   ar
    21    28    29   ar
    22    29    30   ar
    23    30    33    1
    24    33    34    1
    25    33    35    1
    26    33    36    1
    27    30    31   ar
    28    31    32   ar
    29     8     9   ar
    30     9    10   ar
    31    15    16    1
    32    16    17    1
    33    22    23   ar
    34    23    24    1
    35    23    19   ar
    36    17    12    1
    37    10     1   ar
    38    10     6   ar
    39    32    27   ar
    40     9    11    1
@<TRIPOS>MOLECULE
*****
 36 40 0 0 0
SMALL
GASTEIGER

@<TRIPOS>ATOM
      1 C         -10.2036  -11.8539   30.3892 C.ar    1  UNL1        0.1379
      2 C         -11.1001  -12.0665   31.4586 C.ar    1  UNL1        0.0615
      3 BR        -11.7075  -10.6070   32.5390 Br      1  UNL1       -0.0472
      4 C         -11.5423  -13.3700   31.7620 C.ar    1  UNL1        0.0843
      5 C         -11.0889  -14.4529   30.9960 C.ar    1  UNL1        0.2972
      6 N         -10.2282  -14.2019   29.9784 N.ar    1  UNL1       -0.1224
      7 C          -9.6622  -15.0457   29.1051 C.ar    1  UNL1        0.3137
      8 C          -8.8692  -14.2794   28.2558 C.ar    1  UNL1        0.1320
      9 N          -8.9495  -12.9710   28.6072 N.ar    1  UNL1       -0.2940
     10 C          -9.7867  -12.9746   29.6634 C.ar    1  UNL1        0.3128
     11 H          -8.5016  -12.2004   28.1889 H       1  UNL1        0.1718
     12 N          -8.8733   -7.9085   29.4998 N.3     1  UNL1       -0.2647
     13 C         -10.3149   -8.1840   29.6893 C.3     1  UNL1        0.0941
     14 C         -10.6331   -9.6348   29.3232 C.3     1  UNL1        0.1084
     15 N          -9.7431  -10.5367   30.0548 N.pl3   1  UNL1       -0.2984
     16 C          -8.3081  -10.2498   30.0454 C.3     1  UNL1        0.1084
     17 C          -8.0734   -8.7774   30.3881 C.3     1  UNL1        0.0941
     18 C          -8.5708   -6.4900   29.7798 C.3     1  UNL1        0.1200
     19 N          -5.8490   -6.3320   32.2345 N.ar    1  UNL1       -0.3128
     20 C          -6.9618   -6.0952   32.9586 C.ar    1  UNL1        0.1780
     21 N          -8.0841   -6.1079   32.2093 N.ar    1  UNL1       -0.2273
     22 C          -7.6493   -6.3705   30.9594 C.ar    1  UNL1        0.0885
     23 C          -6.2747   -6.5363   30.9714 C.ar    1  UNL1        0.0537
     24 C          -5.3907   -6.8015   29.7871 C.3     1  UNL1        0.0514
     25 C          -4.3058   -7.7059   33.5560 C.3     1  UNL1        0.0265
     26 C          -4.4862   -6.4185   32.7600 C.3     1  UNL1        0.1073
     27 C          -8.0448  -14.7698   27.1239 C.ar    1  UNL1        0.0218
     28 C          -8.6616  -15.1467   25.9219 C.ar    1  UNL1        0.0013
     29 C          -7.9026  -15.6104   24.8453 C.ar    1  UNL1       -0.0042
     30 C          -6.4975  -15.7144   24.9314 C.ar    1  UNL1       -0.0228
     31 C          -5.8859  -15.3318   26.1474 C.ar    1  UNL1       -0.0042
     32 C          -6.6480  -14.8679   27.2233 C.ar    1  UNL1        0.0013
     33 C          -5.6957  -16.2316   23.7189 C.3     1  UNL1        0.0189
     34 C          -6.6139  -17.0913   22.8231 C.3     1  UNL1        0.0044
     35 C          -4.5114  -17.0905   24.2133 C.3     1  UNL1        0.0044
     36 C          -5.1172  -15.0936   22.8435 C.3     1  UNL1        0.0044
@<TRIPOS>BOND
     1    25    26    1
     2    26    19    1
     3    19    20   ar
     4    20    21   ar
     5    21    22   ar
     6    22    18    1
     7    18    12    1
     8    12    13    1
     9    13    14    1
    10    14    15    1
    11    15     1    1
    12     1     2   ar
    13     2     3    1
    14     2     4   ar
    15     4     5   ar
    16     5     6   ar
    17     6     7   ar
    18     7     8   ar
    19     8    27    1
    20    27    28   ar
    21    28    29   ar
    22    29    30   ar
    23    30    33    1
    24    33    34    1
    25    33    35    1
    26    33    36    1
    27    30    31   ar
    28    31    32   ar
    29     8     9   ar
    30     9    10   ar
    31    15    16    1
    32    16    17    1
    33    22    23   ar
    34    23    24    1
    35    23    19   ar
    36    17    12    1
    37    10     1   ar
    38    10     6   ar
    39    32    27   ar
    40     9    11    1
