@<TRIPOS>MOLECULE
*****
 35 39 0 0 0
SMALL
GASTEIGER

@<TRIPOS>ATOM
      1 C          -5.6419   -8.4476   30.1870 C.ar    1  UNL1        0.0673
      2 C          -4.5321   -8.4561   29.3125 C.ar    1  UNL1        0.0161
      3 C          -4.2067   -9.6160   28.5729 C.ar    1  UNL1        0.0028
      4 C          -4.9929  -10.7770   28.6836 C.ar    1  UNL1        0.0186
      5 C          -6.0853  -10.7356   29.5453 C.ar    1  UNL1        0.0768
      6 N          -6.9851  -11.6969   29.7907 N.ar    1  UNL1       -0.3373
      7 C          -7.8344  -11.1287   30.6852 C.ar    1  UNL1        0.1406
      8 N          -7.5032   -9.8501   31.0032 N.ar    1  UNL1       -0.2258
      9 C          -6.3959   -9.6259   30.2740 C.ar    1  UNL1        0.1116
     10 H          -7.0048  -12.6630   29.3954 H       1  UNL1        0.1674
     11 N          -8.2051   -5.9891   30.2914 N.3     1  UNL1       -0.2647
     12 C          -7.0284   -5.0982   30.2271 C.3     1  UNL1        0.0941
     13 C          -5.7362   -5.9345   30.2979 C.3     1  UNL1        0.1082
     14 N          -6.0167   -7.2479   30.8916 N.pl3   1  UNL1       -0.3034
     15 C          -6.9463   -7.2824   32.0250 C.3     1  UNL1        0.1082
     16 C          -8.2888   -6.6331   31.6254 C.3     1  UNL1        0.0941
     17 C          -9.4504   -5.2668   29.9663 C.3     1  UNL1        0.1200
     18 N         -12.0901   -7.4945   31.1974 N.ar    1  UNL1       -0.3128
     19 C         -12.3255   -6.3292   31.8339 C.ar    1  UNL1        0.1780
     20 N         -11.4418   -5.3656   31.5010 N.ar    1  UNL1       -0.2273
     21 C         -10.6304   -5.9528   30.5957 C.ar    1  UNL1        0.0885
     22 C         -11.0092   -7.2709   30.4219 C.ar    1  UNL1        0.0537
     23 C         -10.4003   -8.2520   29.4637 C.3     1  UNL1        0.0514
     24 C         -12.3603   -9.6318   32.3718 C.3     1  UNL1        0.0265
     25 C         -12.9088   -8.7037   31.2954 C.3     1  UNL1        0.1073
     26 C          -8.9952  -11.8230   31.2817 C.ar    1  UNL1        0.0339
     27 C          -9.9806  -12.4040   30.4736 C.ar    1  UNL1        0.0027
     28 C         -11.0758  -13.0535   31.0481 C.ar    1  UNL1       -0.0042
     29 C         -11.2072  -13.1682   32.4499 C.ar    1  UNL1       -0.0228
     30 C         -10.2142  -12.5606   33.2527 C.ar    1  UNL1       -0.0042
     31 C          -9.1306  -11.8941   32.6749 C.ar    1  UNL1        0.0027
     32 C         -12.4301  -13.8964   33.0459 C.3     1  UNL1        0.0189
     33 C         -12.3328  -14.0920   34.5784 C.3     1  UNL1        0.0044
     34 C         -13.7001  -13.0738   32.7488 C.3     1  UNL1        0.0044
     35 C         -12.5672  -15.3004   32.4124 C.3     1  UNL1        0.0044
@<TRIPOS>BOND
     1    24    25    1
     2    25    18    1
     3    18    19   ar
     4    19    20   ar
     5    20    21   ar
     6    21    17    1
     7    17    11    1
     8    11    12    1
     9    12    13    1
    10    13    14    1
    11    14     1    1
    12     1     2   ar
    13     2     3   ar
    14     3     4   ar
    15     4     5   ar
    16     5     6   ar
    17     6     7   ar
    18     7    26    1
    19    26    27   ar
    20    27    28   ar
    21    28    29   ar
    22    29    32    1
    23    32    33    1
    24    32    34    1
    25    32    35    1
    26    29    30   ar
    27    30    31   ar
    28     7     8   ar
    29     8     9   ar
    30    14    15    1
    31    15    16    1
    32    21    22   ar
    33    22    23    1
    34    22    18   ar
    35    16    11    1
    36     9     1   ar
    37     9     5   ar
    38    31    26   ar
    39     6    10    1
