@<TRIPOS>MOLECULE
*****
 42 46 0 0 0
SMALL
GASTEIGER

@<TRIPOS>ATOM
      1 C          -7.3819  -13.7266   27.9724 C.ar    1  UNL1        0.0888
      2 C          -8.6065  -14.1382   28.5593 C.ar    1  UNL1        0.0282
      3 C          -9.1616  -13.3451   29.5720 C.ar    1  UNL1        0.0999
      4 N         -10.3248  -13.5443   30.2156 N.ar    1  UNL1       -0.2135
      5 C         -10.3884  -12.4852   31.0668 C.ar    1  UNL1        0.2018
      6 N          -9.3170  -11.6489   30.9816 N.ar    1  UNL1       -0.2977
      7 C          -9.0741  -10.4095   31.7194 C.3     1  UNL1        0.1332
      8 C          -8.5543  -12.2035   30.0214 C.ar    1  UNL1        0.0789
      9 C          -7.3432  -11.7868   29.4645 C.ar    1  UNL1        0.0327
     10 C          -6.7794  -12.5398   28.4608 C.ar    1  UNL1        0.1401
     11 O          -5.5855  -11.9881   28.0483 O.3     1  UNL1       -0.4824
     12 C          -5.2945  -10.7891   28.7662 C.3     1  UNL1        0.1375
     13 C          -5.2353   -9.6161   27.7788 C.3     1  UNL1        0.0439
     14 C          -3.9488  -10.9521   29.4851 C.3     1  UNL1        0.0439
     15 C          -6.4728  -10.6208   29.7808 C.3     1  UNL1        0.0709
     16 N          -7.3331  -14.6146   25.5912 N.am    1  UNL1       -0.2806
     17 C          -6.7572  -14.5427   26.9062 C.2     1  UNL1        0.2525
     18 O          -5.7024  -15.1861   27.1623 O.2     1  UNL1       -0.2697
     19 H          -8.3119  -14.2865   25.4476 H       1  UNL1        0.1552
     20 C          -7.4584  -16.4554   23.9029 C.ar    1  UNL1       -0.0051
     21 C          -6.7448  -15.3999   24.5469 C.ar    1  UNL1        0.0464
     22 C          -5.4144  -15.1341   24.2047 C.ar    1  UNL1        0.0143
     23 C          -4.7647  -15.8899   23.2416 C.ar    1  UNL1        0.0012
     24 C          -5.4227  -16.9437   22.6218 C.ar    1  UNL1        0.0036
     25 C          -6.7563  -17.2645   22.9473 C.ar    1  UNL1        0.0686
     26 C          -7.4000  -18.4517   22.2451 C.3     1  UNL1        0.4183
     27 F          -8.1277  -19.2404   23.1205 F       1  UNL1       -0.1659
     28 F          -8.2726  -18.0106   21.2661 F       1  UNL1       -0.1659
     29 F          -6.4195  -19.2441   21.6753 F       1  UNL1       -0.1659
     30 C          -9.1564  -17.1344   25.6787 C.3     1  UNL1        0.0047
     31 C          -8.9421  -16.7145   24.2194 C.3     1  UNL1        0.0235
     32 C          -9.8609  -15.5499   23.8188 C.3     1  UNL1        0.0047
     33 N         -11.5158  -12.2530   31.9246 N.pl3   1  UNL1       -0.2814
     34 H         -12.1508  -11.4523   31.7126 H       1  UNL1        0.1551
     35 C         -11.9741  -13.2392   32.8609 C.ar    1  UNL1        0.0889
     36 C         -13.1919  -13.8987   32.6244 C.ar    1  UNL1        0.1543
     37 F         -13.9172  -13.6183   31.5124 F       1  UNL1       -0.2028
     38 C         -13.6564  -14.8652   33.5210 C.ar    1  UNL1        0.0310
     39 C         -12.9185  -15.1712   34.6659 C.ar    1  UNL1        0.0033
     40 C         -11.7190  -14.5041   34.9239 C.ar    1  UNL1        0.0128
     41 C         -11.2436  -13.5343   34.0327 C.ar    1  UNL1        0.0733
     42 CL         -9.7767  -12.6575   34.4528 Cl      1  UNL1       -0.0809
@<TRIPOS>BOND
     1    30    31    1
     2    31    32    1
     3    31    20    1
     4    20    21   ar
     5    21    16    1
     6    16    17   am
     7    17    18    2
     8    17     1    1
     9     1     2   ar
    10     2     3   ar
    11     3     4   ar
    12     4     5   ar
    13     5    33    1
    14    33    35    1
    15    35    36   ar
    16    36    37    1
    17    36    38   ar
    18    38    39   ar
    19    39    40   ar
    20    40    41   ar
    21    41    42    1
    22     5     6   ar
    23     6     7    1
    24     6     8   ar
    25     8     9   ar
    26     9    10   ar
    27    10    11    1
    28    11    12    1
    29    12    13    1
    30    12    14    1
    31    12    15    1
    32    21    22   ar
    33    22    23   ar
    34    23    24   ar
    35    24    25   ar
    36    25    26    1
    37    26    27    1
    38    26    28    1
    39    26    29    1
    40    25    20   ar
    41    10     1   ar
    42     8     3   ar
    43    15     9    1
    44    41    35   ar
    45    16    19    1
    46    33    34    1
