@<TRIPOS>MOLECULE
*****
 51 56 0 0 0
SMALL
GASTEIGER

@<TRIPOS>ATOM
      1 C          10.3718   78.5376   26.8959 C.3     1  UNL1        0.1535
      2 O          10.0806   76.0871   25.4769 O.2     1  UNL1       -0.2701
      3 C           9.1520   76.9322   25.3529 C.2     1  UNL1        0.2483
      4 N           9.2569   78.2089   26.0015 N.am    1  UNL1       -0.2945
      5 H           8.5938   78.9673   25.7227 H       1  UNL1        0.1501
      6 C           7.9856   76.6086   24.5032 C.ar    1  UNL1        0.0808
      7 C           8.0983   76.7008   23.1071 C.ar    1  UNL1        0.0080
      8 C           7.0061   76.4129   22.2854 C.ar    1  UNL1        0.0148
      9 C           5.7772   76.0162   22.8413 C.ar    1  UNL1        0.0502
     10 C           5.6721   75.9036   24.2389 C.ar    1  UNL1        0.0443
     11 C           6.7631   76.1939   25.0641 C.ar    1  UNL1        0.1457
     12 F           6.6309   76.0243   26.4042 F       1  UNL1       -0.2040
     13 N           4.6469   75.7155   21.9921 N.pl3   1  UNL1       -0.3040
     14 C           3.7183   76.7824   21.5911 C.3     1  UNL1        0.1122
     15 C           2.3074   76.2250   21.3789 C.3     1  UNL1        0.1122
     16 N           2.3159   75.0569   20.4842 N.pl3   1  UNL1       -0.3040
     17 C           3.5747   74.3450   20.2195 C.3     1  UNL1        0.1122
     18 C           4.4767   74.3552   21.4576 C.3     1  UNL1        0.1122
     19 C           1.1025   74.6680   19.8020 C.ar    1  UNL1        0.0488
     20 C           0.1749   75.6392   19.3838 C.ar    1  UNL1        0.0154
     21 C          -0.9969   75.2633   18.7225 C.ar    1  UNL1        0.0135
     22 C          -1.2616   73.9149   18.4654 C.ar    1  UNL1        0.0683
     23 CL         -2.7476   73.4823   17.6305 Cl      1  UNL1       -0.0814
     24 C          -0.3431   72.9349   18.8740 C.ar    1  UNL1        0.0694
     25 CL         -0.6340   71.2284   18.5641 Cl      1  UNL1       -0.0813
     26 C           0.8305   73.3125   19.5372 C.ar    1  UNL1        0.0268
     27 C          11.6043   78.8346   26.0855 C.2     1  UNL1        0.2443
     28 O          11.7909   80.0045   25.6529 O.2     1  UNL1       -0.2730
     29 N          12.5629   77.7993   25.8169 N.am    1  UNL1       -0.2823
     30 H          12.4065   76.8508   26.2258 H       1  UNL1        0.1549
     31 C          13.7761   78.0317   25.0856 C.ar    1  UNL1        0.0597
     32 C          14.7630   78.8631   25.6356 C.ar    1  UNL1        0.0356
     33 C          15.9064   79.1631   24.8981 C.ar    1  UNL1        0.1002
     34 N          16.0604   78.6600   23.6476 N.ar    1  UNL1       -0.2420
     35 C          15.1256   77.8541   23.0800 C.ar    1  UNL1        0.1065
     36 C          13.9575   77.5073   23.7820 C.ar    1  UNL1        0.1080
     37 C          12.9878   76.5786   23.1493 C.2     1  UNL1        0.3408
     38 O          12.8596   76.5305   21.8963 O.2     1  UNL1       -0.2450
     39 O          12.1792   75.7701   23.9442 O.3     1  UNL1       -0.4770
     40 H          11.5039   75.1400   23.5278 H       1  UNL1        0.2954
     41 C          10.0254   79.7427   27.7869 C.3     1  UNL1        0.0569
     42 C           9.4327   79.2984   29.0929 C.ar    1  UNL1       -0.0017
     43 C          10.0327   79.3776   30.3464 C.ar    1  UNL1        0.0681
     44 N           9.1757   78.9626   31.3070 N.ar    1  UNL1       -0.3523
     45 C           8.0376   78.6322   30.6722 C.ar    1  UNL1        0.0563
     46 C           6.8544   78.1678   31.2451 C.ar    1  UNL1        0.0170
     47 C           5.7700   77.9011   30.3893 C.ar    1  UNL1        0.0015
     48 C           5.8899   78.1055   28.9966 C.ar    1  UNL1        0.0001
     49 C           7.0957   78.5773   28.4465 C.ar    1  UNL1        0.0012
     50 C           8.1544   78.8279   29.3198 C.ar    1  UNL1        0.0131
     51 H           9.3596   78.9240   32.3343 H       1  UNL1        0.1660
@<TRIPOS>BOND
     1     2     3    2
     2     3     4   am
     3     4     1    1
     4     1    41    1
     5    41    42    1
     6    42    43   ar
     7    43    44   ar
     8    44    45   ar
     9    45    46   ar
    10    46    47   ar
    11    47    48   ar
    12    48    49   ar
    13    49    50   ar
    14     1    27    1
    15    27    28    2
    16    27    29   am
    17    29    31    1
    18    31    32   ar
    19    32    33   ar
    20    33    34   ar
    21    34    35   ar
    22    35    36   ar
    23    36    37    1
    24    37    38    2
    25    37    39    1
    26     3     6    1
    27     6     7   ar
    28     7     8   ar
    29     8     9   ar
    30     9    13    1
    31    13    14    1
    32    14    15    1
    33    15    16    1
    34    16    19    1
    35    19    20   ar
    36    20    21   ar
    37    21    22   ar
    38    22    23    1
    39    22    24   ar
    40    24    25    1
    41    24    26   ar
    42    16    17    1
    43    17    18    1
    44     9    10   ar
    45    10    11   ar
    46    11    12    1
    47    50    42   ar
    48    36    31   ar
    49    11     6   ar
    50    50    45   ar
    51    18    13    1
    52    26    19   ar
    53     4     5    1
    54    44    51    1
    55    29    30    1
    56    39    40    1
@<TRIPOS>MOLECULE
*****
 51 56 0 0 0
SMALL
GASTEIGER

@<TRIPOS>ATOM
      1 C          13.4042   85.1739   23.5646 C.3     1  UNL1        0.1535
      2 O          14.3835   82.6241   24.3662 O.2     1  UNL1       -0.2701
      3 C          13.1326   82.7873   24.3870 C.2     1  UNL1        0.2483
      4 N          12.5674   84.0323   23.9487 N.am    1  UNL1       -0.2945
      5 H          11.5383   84.0793   23.7714 H       1  UNL1        0.1501
      6 C          12.2631   81.6738   24.8242 C.ar    1  UNL1        0.0808
      7 C          10.9139   81.9233   25.1206 C.ar    1  UNL1        0.0080
      8 C          10.0772   80.8897   25.5480 C.ar    1  UNL1        0.0148
      9 C          10.5688   79.5791   25.6797 C.ar    1  UNL1        0.0502
     10 C          11.9150   79.3267   25.3619 C.ar    1  UNL1        0.0443
     11 C          12.7556   80.3601   24.9365 C.ar    1  UNL1        0.1457
     12 F          14.0345   80.0616   24.5936 F       1  UNL1       -0.2040
     13 N           9.7036   78.5080   26.1194 N.pl3   1  UNL1       -0.3040
     14 C           8.7458   77.8998   25.1845 C.3     1  UNL1        0.1122
     15 C           7.5063   77.3927   25.9281 C.3     1  UNL1        0.1122
     16 N           7.8715   76.5372   27.0682 N.pl3   1  UNL1       -0.3040
     17 C           9.2440   76.5630   27.5944 C.3     1  UNL1        0.1122
     18 C           9.8443   77.9678   27.4807 C.3     1  UNL1        0.1122
     19 C           6.9017   75.6122   27.6095 C.ar    1  UNL1        0.0488
     20 C           6.8653   74.2764   27.1703 C.ar    1  UNL1        0.0154
     21 C           5.9293   73.3819   27.6952 C.ar    1  UNL1        0.0135
     22 C           5.0173   73.8031   28.6673 C.ar    1  UNL1        0.0683
     23 CL          3.8548   72.6470   29.3032 Cl      1  UNL1       -0.0814
     24 C           5.0443   75.1327   29.1177 C.ar    1  UNL1        0.0694
     25 CL          3.9196   75.7018   30.3440 Cl      1  UNL1       -0.0813
     26 C           5.9821   76.0285   28.5906 C.ar    1  UNL1        0.0268
     27 C          13.5344   86.1230   24.7248 C.2     1  UNL1        0.2443
     28 O          12.9103   87.2186   24.6986 O.2     1  UNL1       -0.2730
     29 N          14.3521   85.7797   25.8548 N.am    1  UNL1       -0.2823
     30 H          14.8212   84.8465   25.8710 H       1  UNL1        0.1549
     31 C          14.4823   86.6252   27.0075 C.ar    1  UNL1        0.0597
     32 C          14.4639   88.0184   26.8451 C.ar    1  UNL1        0.0356
     33 C          14.6743   88.8472   27.9452 C.ar    1  UNL1        0.1002
     34 N          14.9056   88.3080   29.1684 N.ar    1  UNL1       -0.2420
     35 C          14.9341   86.9641   29.3646 C.ar    1  UNL1        0.1065
     36 C          14.7160   86.0791   28.2937 C.ar    1  UNL1        0.1080
     37 C          14.6984   84.6190   28.5602 C.2     1  UNL1        0.3408
     38 O          14.1204   83.8234   27.7719 O.2     1  UNL1       -0.2450
     39 O          15.2962   84.1154   29.7128 O.3     1  UNL1       -0.4770
     40 H          15.2820   83.1228   29.9150 H       1  UNL1        0.2954
     41 C          14.7971   84.7063   23.1090 C.3     1  UNL1        0.0569
     42 C          15.4312   85.7093   22.1890 C.ar    1  UNL1       -0.0017
     43 C          15.1427   85.8972   20.8403 C.ar    1  UNL1        0.0681
     44 N          15.8448   86.9437   20.3488 N.ar    1  UNL1       -0.3523
     45 C          16.5654   87.4236   21.3772 C.ar    1  UNL1        0.0563
     46 C          17.4311   88.5164   21.3655 C.ar    1  UNL1        0.0170
     47 C          18.0721   88.8604   22.5699 C.ar    1  UNL1        0.0015
     48 C          17.8335   88.1151   23.7461 C.ar    1  UNL1        0.0001
     49 C          16.9528   87.0183   23.7287 C.ar    1  UNL1        0.0012
     50 C          16.3362   86.6988   22.5188 C.ar    1  UNL1        0.0131
     51 H          15.8170   87.3110   19.3716 H       1  UNL1        0.1660
@<TRIPOS>BOND
     1     2     3    2
     2     3     4   am
     3     4     1    1
     4     1    41    1
     5    41    42    1
     6    42    43   ar
     7    43    44   ar
     8    44    45   ar
     9    45    46   ar
    10    46    47   ar
    11    47    48   ar
    12    48    49   ar
    13    49    50   ar
    14     1    27    1
    15    27    28    2
    16    27    29   am
    17    29    31    1
    18    31    32   ar
    19    32    33   ar
    20    33    34   ar
    21    34    35   ar
    22    35    36   ar
    23    36    37    1
    24    37    38    2
    25    37    39    1
    26     3     6    1
    27     6     7   ar
    28     7     8   ar
    29     8     9   ar
    30     9    13    1
    31    13    14    1
    32    14    15    1
    33    15    16    1
    34    16    19    1
    35    19    20   ar
    36    20    21   ar
    37    21    22   ar
    38    22    23    1
    39    22    24   ar
    40    24    25    1
    41    24    26   ar
    42    16    17    1
    43    17    18    1
    44     9    10   ar
    45    10    11   ar
    46    11    12    1
    47    50    42   ar
    48    36    31   ar
    49    11     6   ar
    50    50    45   ar
    51    18    13    1
    52    26    19   ar
    53     4     5    1
    54    44    51    1
    55    29    30    1
    56    39    40    1
@<TRIPOS>MOLECULE
*****
 51 56 0 0 0
SMALL
GASTEIGER

@<TRIPOS>ATOM
      1 C          13.5957   85.6290   23.6077 C.3     1  UNL1        0.1535
      2 O          14.5142   82.9500   23.8952 O.2     1  UNL1       -0.2701
      3 C          13.3202   83.1830   24.2299 C.2     1  UNL1        0.2483
      4 N          12.7765   84.5017   24.0649 N.am    1  UNL1       -0.2945
      5 H          11.7421   84.6294   24.1439 H       1  UNL1        0.1501
      6 C          12.4839   82.0792   24.7491 C.ar    1  UNL1        0.0808
      7 C          11.1099   82.2856   24.9486 C.ar    1  UNL1        0.0080
      8 C          10.3030   81.2618   25.4505 C.ar    1  UNL1        0.0148
      9 C          10.8507   80.0034   25.7557 C.ar    1  UNL1        0.0502
     10 C          12.2231   79.7916   25.5350 C.ar    1  UNL1        0.0443
     11 C          13.0337   80.8156   25.0354 C.ar    1  UNL1        0.1457
     12 F          14.3426   80.5516   24.7918 F       1  UNL1       -0.2040
     13 N          10.0165   78.9422   26.2726 N.pl3   1  UNL1       -0.3040
     14 C           9.6250   77.8205   25.4066 C.3     1  UNL1        0.1122
     15 C           8.2583   77.2654   25.8193 C.3     1  UNL1        0.1122
     16 N           8.2069   76.9694   27.2597 N.pl3   1  UNL1       -0.3040
     17 C           9.2138   77.5451   28.1630 C.3     1  UNL1        0.1122
     18 C           9.6320   78.9418   27.6928 C.3     1  UNL1        0.1122
     19 C           7.2182   76.0448   27.7664 C.ar    1  UNL1        0.0488
     20 C           7.2511   74.6886   27.3947 C.ar    1  UNL1        0.0154
     21 C           6.2967   73.7946   27.8863 C.ar    1  UNL1        0.0135
     22 C           5.2968   74.2368   28.7574 C.ar    1  UNL1        0.0683
     23 CL          4.1140   73.0806   29.3543 Cl      1  UNL1       -0.0814
     24 C           5.2538   75.5870   29.1397 C.ar    1  UNL1        0.0694
     25 CL          4.0173   76.1833   30.2390 Cl      1  UNL1       -0.0813
     26 C           6.2101   76.4823   28.6461 C.ar    1  UNL1        0.0268
     27 C          14.3828   86.1877   24.7619 C.2     1  UNL1        0.2443
     28 O          14.3733   85.5797   25.8668 O.2     1  UNL1       -0.2730
     29 N          15.1454   87.3946   24.6035 N.am    1  UNL1       -0.2823
     30 H          15.1726   87.8527   23.6650 H       1  UNL1        0.1549
     31 C          15.9477   87.9527   25.6549 C.ar    1  UNL1        0.0597
     32 C          15.3347   88.3464   26.8536 C.ar    1  UNL1        0.0356
     33 C          16.0895   88.9667   27.8469 C.ar    1  UNL1        0.1002
     34 N          17.4120   89.1976   27.6514 N.ar    1  UNL1       -0.2420
     35 C          18.0403   88.8338   26.5032 C.ar    1  UNL1        0.1065
     36 C          17.3317   88.1931   25.4712 C.ar    1  UNL1        0.1080
     37 C          18.0665   87.7602   24.2563 C.2     1  UNL1        0.3408
     38 O          17.5834   86.8905   23.4823 O.2     1  UNL1       -0.2450
     39 O          19.3234   88.2911   23.9778 O.3     1  UNL1       -0.4770
     40 H          19.8428   87.9968   23.1593 H       1  UNL1        0.2954
     41 C          14.5498   85.1948   22.4819 C.3     1  UNL1        0.0569
     42 C          14.1624   85.8189   21.1724 C.ar    1  UNL1       -0.0017
     43 C          13.5379   87.0498   20.9921 C.ar    1  UNL1        0.0681
     44 N          13.4176   87.3295   19.6743 N.ar    1  UNL1       -0.3523
     45 C          13.9694   86.2915   19.0221 C.ar    1  UNL1        0.0563
     46 C          14.1008   86.1330   17.6432 C.ar    1  UNL1        0.0170
     47 C          14.7352   84.9686   17.1728 C.ar    1  UNL1        0.0015
     48 C          15.2215   84.0016   18.0806 C.ar    1  UNL1        0.0001
     49 C          15.0769   84.1893   19.4673 C.ar    1  UNL1        0.0012
     50 C          14.4393   85.3512   19.9030 C.ar    1  UNL1        0.0131
     51 H          12.9956   88.1871   19.2535 H       1  UNL1        0.1660
@<TRIPOS>BOND
     1     2     3    2
     2     3     4   am
     3     4     1    1
     4     1    41    1
     5    41    42    1
     6    42    43   ar
     7    43    44   ar
     8    44    45   ar
     9    45    46   ar
    10    46    47   ar
    11    47    48   ar
    12    48    49   ar
    13    49    50   ar
    14     1    27    1
    15    27    28    2
    16    27    29   am
    17    29    31    1
    18    31    32   ar
    19    32    33   ar
    20    33    34   ar
    21    34    35   ar
    22    35    36   ar
    23    36    37    1
    24    37    38    2
    25    37    39    1
    26     3     6    1
    27     6     7   ar
    28     7     8   ar
    29     8     9   ar
    30     9    13    1
    31    13    14    1
    32    14    15    1
    33    15    16    1
    34    16    19    1
    35    19    20   ar
    36    20    21   ar
    37    21    22   ar
    38    22    23    1
    39    22    24   ar
    40    24    25    1
    41    24    26   ar
    42    16    17    1
    43    17    18    1
    44     9    10   ar
    45    10    11   ar
    46    11    12    1
    47    50    42   ar
    48    36    31   ar
    49    11     6   ar
    50    50    45   ar
    51    18    13    1
    52    26    19   ar
    53     4     5    1
    54    44    51    1
    55    29    30    1
    56    39    40    1
@<TRIPOS>MOLECULE
*****
 51 56 0 0 0
SMALL
GASTEIGER

@<TRIPOS>ATOM
      1 C          11.1164   76.1178   26.6588 C.3     1  UNL1        0.1535
      2 O          10.9020   76.1741   23.8208 O.2     1  UNL1       -0.2701
      3 C           9.8354   75.9942   24.4703 C.2     1  UNL1        0.2483
      4 N           9.8631   76.0036   25.9058 N.am    1  UNL1       -0.2945
      5 H           8.9568   76.0660   26.4230 H       1  UNL1        0.1501
      6 C           8.5620   75.8182   23.7391 C.ar    1  UNL1        0.0808
      7 C           8.5697   75.2263   22.4664 C.ar    1  UNL1        0.0080
      8 C           7.3809   75.0620   21.7518 C.ar    1  UNL1        0.0148
      9 C           6.1541   75.4777   22.2984 C.ar    1  UNL1        0.0502
     10 C           6.1453   76.0508   23.5823 C.ar    1  UNL1        0.0443
     11 C           7.3343   76.2191   24.2988 C.ar    1  UNL1        0.1457
     12 F           7.2727   76.7316   25.5541 F       1  UNL1       -0.2040
     13 N           4.9227   75.3060   21.5611 N.pl3   1  UNL1       -0.3040
     14 C           3.9318   76.3910   21.5131 C.3     1  UNL1        0.1122
     15 C           2.5138   75.8277   21.3778 C.3     1  UNL1        0.1122
     16 N           2.4173   74.8653   20.2689 N.pl3   1  UNL1       -0.3040
     17 C           3.6386   74.2761   19.7009 C.3     1  UNL1        0.1122
     18 C           4.7016   74.0753   20.7856 C.3     1  UNL1        0.1122
     19 C           1.1279   74.5701   19.6865 C.ar    1  UNL1        0.0488
     20 C           0.2100   75.6025   19.4215 C.ar    1  UNL1        0.0154
     21 C          -1.0355   75.3172   18.8565 C.ar    1  UNL1        0.0135
     22 C          -1.3848   74.0001   18.5444 C.ar    1  UNL1        0.0683
     23 CL         -2.9618   73.6821   17.8344 Cl      1  UNL1       -0.0814
     24 C          -0.4772   72.9599   18.8003 C.ar    1  UNL1        0.0694
     25 CL         -0.8740   71.2902   18.4164 Cl      1  UNL1       -0.0813
     26 C           0.7703   73.2467   19.3671 C.ar    1  UNL1        0.0268
     27 C          11.6289   77.5305   26.5834 C.2     1  UNL1        0.2443
     28 O          11.6584   78.2327   27.6306 O.2     1  UNL1       -0.2730
     29 N          12.0897   78.0694   25.3342 N.am    1  UNL1       -0.2823
     30 H          12.0971   77.4513   24.4921 H       1  UNL1        0.1549
     31 C          12.6270   79.3946   25.2084 C.ar    1  UNL1        0.0597
     32 C          11.7515   80.4834   25.0829 C.ar    1  UNL1        0.0356
     33 C          12.2622   81.7630   24.8754 C.ar    1  UNL1        0.1002
     34 N          13.6024   81.9539   24.7856 N.ar    1  UNL1       -0.2420
     35 C          14.4814   80.9244   24.8989 C.ar    1  UNL1        0.1065
     36 C          14.0240   79.6134   25.1216 C.ar    1  UNL1        0.1080
     37 C          15.0184   78.5254   25.2968 C.2     1  UNL1        0.3408
     38 O          14.9449   77.4650   24.6193 O.2     1  UNL1       -0.2450
     39 O          16.0300   78.6541   26.2451 O.3     1  UNL1       -0.4770
     40 H          16.7089   77.9153   26.3852 H       1  UNL1        0.2954
     41 C          10.9147   75.7095   28.1281 C.3     1  UNL1        0.0569
     42 C           9.4795   75.8643   28.5413 C.ar    1  UNL1       -0.0017
     43 C           8.4428   74.9695   28.2922 C.ar    1  UNL1        0.0681
     44 N           7.3020   75.3924   28.8831 N.ar    1  UNL1       -0.3523
     45 C           7.6120   76.5400   29.5110 C.ar    1  UNL1        0.0563
     46 C           6.7653   77.3396   30.2774 C.ar    1  UNL1        0.0170
     47 C           7.3081   78.4965   30.8662 C.ar    1  UNL1        0.0015
     48 C           8.6700   78.8225   30.6807 C.ar    1  UNL1        0.0001
     49 C           9.5017   77.9956   29.9038 C.ar    1  UNL1        0.0012
     50 C           8.9336   76.8585   29.3290 C.ar    1  UNL1        0.0131
     51 H           6.3745   74.9128   28.8662 H       1  UNL1        0.1660
@<TRIPOS>BOND
     1     2     3    2
     2     3     4   am
     3     4     1    1
     4     1    41    1
     5    41    42    1
     6    42    43   ar
     7    43    44   ar
     8    44    45   ar
     9    45    46   ar
    10    46    47   ar
    11    47    48   ar
    12    48    49   ar
    13    49    50   ar
    14     1    27    1
    15    27    28    2
    16    27    29   am
    17    29    31    1
    18    31    32   ar
    19    32    33   ar
    20    33    34   ar
    21    34    35   ar
    22    35    36   ar
    23    36    37    1
    24    37    38    2
    25    37    39    1
    26     3     6    1
    27     6     7   ar
    28     7     8   ar
    29     8     9   ar
    30     9    13    1
    31    13    14    1
    32    14    15    1
    33    15    16    1
    34    16    19    1
    35    19    20   ar
    36    20    21   ar
    37    21    22   ar
    38    22    23    1
    39    22    24   ar
    40    24    25    1
    41    24    26   ar
    42    16    17    1
    43    17    18    1
    44     9    10   ar
    45    10    11   ar
    46    11    12    1
    47    50    42   ar
    48    36    31   ar
    49    11     6   ar
    50    50    45   ar
    51    18    13    1
    52    26    19   ar
    53     4     5    1
    54    44    51    1
    55    29    30    1
    56    39    40    1
@<TRIPOS>MOLECULE
*****
 51 56 0 0 0
SMALL
GASTEIGER

@<TRIPOS>ATOM
      1 C          10.6239   76.3733   27.4687 C.3     1  UNL1        0.1535
      2 O          10.6767   75.4003   24.7941 O.2     1  UNL1       -0.2701
      3 C           9.5486   75.7103   25.2665 C.2     1  UNL1        0.2483
      4 N           9.4542   76.2538   26.5921 N.am    1  UNL1       -0.2945
      5 H           8.5553   76.6981   26.8874 H       1  UNL1        0.1501
      6 C           8.3415   75.5477   24.4275 C.ar    1  UNL1        0.0808
      7 C           8.3293   76.0657   23.1230 C.ar    1  UNL1        0.0080
      8 C           7.1958   75.9356   22.3172 C.ar    1  UNL1        0.0148
      9 C           6.0503   75.2751   22.7948 C.ar    1  UNL1        0.0502
     10 C           6.0716   74.7380   24.0941 C.ar    1  UNL1        0.0443
     11 C           7.2041   74.8692   24.9039 C.ar    1  UNL1        0.1457
     12 F           7.1979   74.2927   26.1326 F       1  UNL1       -0.2040
     13 N           4.8775   75.1375   21.9612 N.pl3   1  UNL1       -0.3040
     14 C           3.9442   76.2627   21.8059 C.3     1  UNL1        0.1122
     15 C           2.5181   75.7580   21.5652 C.3     1  UNL1        0.1122
     16 N           2.4700   74.7718   20.4743 N.pl3   1  UNL1       -0.3040
     17 C           3.7060   74.1154   20.0241 C.3     1  UNL1        0.1122
     18 C           4.6655   73.8975   21.1981 C.3     1  UNL1        0.1122
     19 C           1.2209   74.5174   19.7929 C.ar    1  UNL1        0.0488
     20 C           0.3955   75.5833   19.3918 C.ar    1  UNL1        0.0154
     21 C          -0.8107   75.3374   18.7312 C.ar    1  UNL1        0.0135
     22 C          -1.2120   74.0265   18.4578 C.ar    1  UNL1        0.0683
     23 CL         -2.7371   73.7584   17.6244 Cl      1  UNL1       -0.0814
     24 C          -0.3965   72.9528   18.8492 C.ar    1  UNL1        0.0694
     25 CL         -0.8604   71.2891   18.5184 Cl      1  UNL1       -0.0813
     26 C           0.8117   73.2002   19.5117 C.ar    1  UNL1        0.0268
     27 C          11.4295   77.5835   27.0809 C.2     1  UNL1        0.2443
     28 O          11.6325   78.4889   27.9350 O.2     1  UNL1       -0.2730
     29 N          11.9705   77.7006   25.7555 N.am    1  UNL1       -0.2823
     30 H          11.8260   76.9151   25.0821 H       1  UNL1        0.1549
     31 C          12.7802   78.8107   25.3400 C.ar    1  UNL1        0.0597
     32 C          14.1777   78.6992   25.3871 C.ar    1  UNL1        0.0356
     33 C          14.9719   79.7983   25.0671 C.ar    1  UNL1        0.1002
     34 N          14.3949   80.9761   24.7199 N.ar    1  UNL1       -0.2420
     35 C          13.0455   81.1238   24.6660 C.ar    1  UNL1        0.1065
     36 C          12.1944   80.0454   24.9663 C.ar    1  UNL1        0.1080
     37 C          10.7272   80.2312   24.8403 C.2     1  UNL1        0.3408
     38 O           9.9639   79.2474   24.6445 O.2     1  UNL1       -0.2450
     39 O          10.1804   81.5104   24.9030 O.3     1  UNL1       -0.4770
     40 H           9.1824   81.6549   24.8065 H       1  UNL1        0.2954
     41 C          10.1980   76.4757   28.9433 C.3     1  UNL1        0.0569
     42 C           9.0392   75.5671   29.2370 C.ar    1  UNL1       -0.0017
     43 C           9.0148   74.1821   29.0997 C.ar    1  UNL1        0.0681
     44 N           7.8343   73.6854   29.5347 N.ar    1  UNL1       -0.3523
     45 C           7.1182   74.7430   29.9543 C.ar    1  UNL1        0.0563
     46 C           5.8387   74.7313   30.5080 C.ar    1  UNL1        0.0170
     47 C           5.2811   75.9618   30.9011 C.ar    1  UNL1        0.0015
     48 C           6.0078   77.1621   30.7369 C.ar    1  UNL1        0.0001
     49 C           7.2983   77.1434   30.1771 C.ar    1  UNL1        0.0012
     50 C           7.8222   75.9089   29.7926 C.ar    1  UNL1        0.0131
     51 H           7.5479   72.6814   29.5540 H       1  UNL1        0.1660
@<TRIPOS>BOND
     1     2     3    2
     2     3     4   am
     3     4     1    1
     4     1    41    1
     5    41    42    1
     6    42    43   ar
     7    43    44   ar
     8    44    45   ar
     9    45    46   ar
    10    46    47   ar
    11    47    48   ar
    12    48    49   ar
    13    49    50   ar
    14     1    27    1
    15    27    28    2
    16    27    29   am
    17    29    31    1
    18    31    32   ar
    19    32    33   ar
    20    33    34   ar
    21    34    35   ar
    22    35    36   ar
    23    36    37    1
    24    37    38    2
    25    37    39    1
    26     3     6    1
    27     6     7   ar
    28     7     8   ar
    29     8     9   ar
    30     9    13    1
    31    13    14    1
    32    14    15    1
    33    15    16    1
    34    16    19    1
    35    19    20   ar
    36    20    21   ar
    37    21    22   ar
    38    22    23    1
    39    22    24   ar
    40    24    25    1
    41    24    26   ar
    42    16    17    1
    43    17    18    1
    44     9    10   ar
    45    10    11   ar
    46    11    12    1
    47    50    42   ar
    48    36    31   ar
    49    11     6   ar
    50    50    45   ar
    51    18    13    1
    52    26    19   ar
    53     4     5    1
    54    44    51    1
    55    29    30    1
    56    39    40    1
@<TRIPOS>MOLECULE
*****
 51 56 0 0 0
SMALL
GASTEIGER

@<TRIPOS>ATOM
      1 C          10.9488   79.0318   25.7392 C.3     1  UNL1        0.1535
      2 O           9.3284   76.7292   26.1582 O.2     1  UNL1       -0.2701
      3 C           9.0430   77.4552   25.1665 C.2     1  UNL1        0.2483
      4 N           9.8491   78.6051   24.8676 N.am    1  UNL1       -0.2945
      5 H           9.7341   79.0682   23.9376 H       1  UNL1        0.1501
      6 C           7.9034   77.0839   24.3000 C.ar    1  UNL1        0.0808
      7 C           6.6818   76.7124   24.8829 C.ar    1  UNL1        0.0080
      8 C           5.5960   76.3452   24.0846 C.ar    1  UNL1        0.0148
      9 C           5.7042   76.3503   22.6829 C.ar    1  UNL1        0.0502
     10 C           6.9219   76.7434   22.1000 C.ar    1  UNL1        0.0443
     11 C           8.0114   77.1088   22.8968 C.ar    1  UNL1        0.1457
     12 F           9.1512   77.5282   22.2910 F       1  UNL1       -0.2040
     13 N           4.5807   75.9730   21.8555 N.pl3   1  UNL1       -0.3040
     14 C           3.7049   77.0052   21.2817 C.3     1  UNL1        0.1122
     15 C           2.2773   76.4760   21.1138 C.3     1  UNL1        0.1122
     16 N           2.2571   75.1920   20.3955 N.pl3   1  UNL1       -0.3040
     17 C           3.4911   74.4031   20.2687 C.3     1  UNL1        0.1122
     18 C           4.3665   74.5574   21.5162 C.3     1  UNL1        0.1122
     19 C           1.0434   74.7546   19.7437 C.ar    1  UNL1        0.0488
     20 C           0.0689   75.6881   19.3466 C.ar    1  UNL1        0.0154
     21 C          -1.1031   75.2654   18.7147 C.ar    1  UNL1        0.0135
     22 C          -1.3216   73.9072   18.4663 C.ar    1  UNL1        0.0683
     23 CL         -2.8095   73.4152   17.6686 Cl      1  UNL1       -0.0814
     24 C          -0.3560   72.9645   18.8540 C.ar    1  UNL1        0.0694
     25 CL         -0.5880   71.2473   18.5540 Cl      1  UNL1       -0.0813
     26 C           0.8178   73.3890   19.4877 C.ar    1  UNL1        0.0268
     27 C          10.3938   79.6338   27.0015 C.2     1  UNL1        0.2443
     28 O          10.2790   80.8867   27.0887 O.2     1  UNL1       -0.2730
     29 N           9.9891   78.7897   28.0909 N.am    1  UNL1       -0.2823
     30 H          10.0522   77.7535   27.9745 H       1  UNL1        0.1549
     31 C           9.4153   79.3030   29.3025 C.ar    1  UNL1        0.0597
     32 C          10.1843   80.1344   30.1302 C.ar    1  UNL1        0.0356
     33 C           9.6672   80.5689   31.3488 C.ar    1  UNL1        0.1002
     34 N           8.4268   80.1813   31.7381 N.ar    1  UNL1       -0.2420
     35 C           7.6534   79.3746   30.9655 C.ar    1  UNL1        0.1065
     36 C           8.1182   78.9155   29.7202 C.ar    1  UNL1        0.1080
     37 C           7.2208   78.0829   28.8807 C.2     1  UNL1        0.3408
     38 O           5.9899   78.3403   28.7956 O.2     1  UNL1       -0.2450
     39 O           7.7303   76.9791   28.2015 O.3     1  UNL1       -0.4770
     40 H           7.1284   76.3939   27.6344 H       1  UNL1        0.2954
     41 C          11.8700   77.8485   26.0818 C.3     1  UNL1        0.0569
     42 C          12.8060   77.5444   24.9479 C.ar    1  UNL1       -0.0017
     43 C          12.5748   76.6652   23.8937 C.ar    1  UNL1        0.0681
     44 N          13.6000   76.7052   23.0123 N.ar    1  UNL1       -0.3523
     45 C          14.4705   77.6086   23.4955 C.ar    1  UNL1        0.0563
     46 C          15.6763   78.0109   22.9226 C.ar    1  UNL1        0.0170
     47 C          16.4269   78.9941   23.5930 C.ar    1  UNL1        0.0015
     48 C          15.9594   79.5492   24.8051 C.ar    1  UNL1        0.0001
     49 C          14.7376   79.1254   25.3587 C.ar    1  UNL1        0.0012
     50 C          14.0184   78.1458   24.6736 C.ar    1  UNL1        0.0131
     51 H          13.6859   76.1557   22.1284 H       1  UNL1        0.1660
@<TRIPOS>BOND
     1     2     3    2
     2     3     4   am
     3     4     1    1
     4     1    41    1
     5    41    42    1
     6    42    43   ar
     7    43    44   ar
     8    44    45   ar
     9    45    46   ar
    10    46    47   ar
    11    47    48   ar
    12    48    49   ar
    13    49    50   ar
    14     1    27    1
    15    27    28    2
    16    27    29   am
    17    29    31    1
    18    31    32   ar
    19    32    33   ar
    20    33    34   ar
    21    34    35   ar
    22    35    36   ar
    23    36    37    1
    24    37    38    2
    25    37    39    1
    26     3     6    1
    27     6     7   ar
    28     7     8   ar
    29     8     9   ar
    30     9    13    1
    31    13    14    1
    32    14    15    1
    33    15    16    1
    34    16    19    1
    35    19    20   ar
    36    20    21   ar
    37    21    22   ar
    38    22    23    1
    39    22    24   ar
    40    24    25    1
    41    24    26   ar
    42    16    17    1
    43    17    18    1
    44     9    10   ar
    45    10    11   ar
    46    11    12    1
    47    50    42   ar
    48    36    31   ar
    49    11     6   ar
    50    50    45   ar
    51    18    13    1
    52    26    19   ar
    53     4     5    1
    54    44    51    1
    55    29    30    1
    56    39    40    1
@<TRIPOS>MOLECULE
*****
 51 56 0 0 0
SMALL
GASTEIGER

@<TRIPOS>ATOM
      1 C           7.8094   74.2078   25.2813 C.3     1  UNL1        0.1535
      2 O          10.5817   74.6681   25.7342 O.2     1  UNL1       -0.2701
      3 C           9.8766   75.6728   25.4420 C.2     1  UNL1        0.2483
      4 N           8.4620   75.5207   25.2487 N.am    1  UNL1       -0.2945
      5 H           7.8665   76.3792   25.2183 H       1  UNL1        0.1501
      6 C          10.5150   77.0033   25.3448 C.ar    1  UNL1        0.0808
      7 C           9.9948   78.0772   26.0841 C.ar    1  UNL1        0.0080
      8 C          10.5732   79.3457   25.9979 C.ar    1  UNL1        0.0148
      9 C          11.6924   79.5675   25.1766 C.ar    1  UNL1        0.0502
     10 C          12.2255   78.4860   24.4532 C.ar    1  UNL1        0.0443
     11 C          11.6468   77.2157   24.5355 C.ar    1  UNL1        0.1457
     12 F          12.2240   76.1907   23.8584 F       1  UNL1       -0.2040
     13 N          12.2936   80.8791   25.0883 N.pl3   1  UNL1       -0.3040
     14 C          11.4468   82.0806   25.0626 C.3     1  UNL1        0.1122
     15 C          12.1160   83.2011   24.2607 C.3     1  UNL1        0.1122
     16 N          13.4966   83.4385   24.7107 N.pl3   1  UNL1       -0.3040
     17 C          14.1876   82.4263   25.5227 C.3     1  UNL1        0.1122
     18 C          13.7585   81.0140   25.1129 C.3     1  UNL1        0.1122
     19 C          14.1359   84.7030   24.4252 C.ar    1  UNL1        0.0488
     20 C          14.2835   85.6730   25.4331 C.ar    1  UNL1        0.0154
     21 C          14.9034   86.8943   25.1575 C.ar    1  UNL1        0.0135
     22 C          15.3881   87.1671   23.8750 C.ar    1  UNL1        0.0683
     23 CL         16.1623   88.7159   23.5681 Cl      1  UNL1       -0.0814
     24 C          15.2508   86.2068   22.8600 C.ar    1  UNL1        0.0694
     25 CL         15.8528   86.5068   21.2351 Cl      1  UNL1       -0.0813
     26 C          14.6289   84.9836   23.1369 C.ar    1  UNL1        0.0268
     27 C           6.6325   74.2472   26.2180 C.2     1  UNL1        0.2443
     28 O           5.5413   74.7364   25.8173 O.2     1  UNL1       -0.2730
     29 N           6.7479   73.7232   27.5504 N.am    1  UNL1       -0.2823
     30 H           7.6492   73.2823   27.8410 H       1  UNL1        0.1549
     31 C           5.6497   73.6959   28.4744 C.ar    1  UNL1        0.0597
     32 C           4.7418   72.6274   28.4333 C.ar    1  UNL1        0.0356
     33 C           3.6259   72.6336   29.2677 C.ar    1  UNL1        0.1002
     34 N           3.4133   73.6748   30.1110 N.ar    1  UNL1       -0.2420
     35 C           4.2680   74.7287   30.1771 C.ar    1  UNL1        0.1065
     36 C           5.4172   74.7706   29.3678 C.ar    1  UNL1        0.1080
     37 C           6.3558   75.9116   29.5110 C.2     1  UNL1        0.3408
     38 O           5.9495   77.0402   29.8982 O.2     1  UNL1       -0.2450
     39 O           7.6995   75.7521   29.1821 O.3     1  UNL1       -0.4770
     40 H           8.3501   76.5244   29.2627 H       1  UNL1        0.2954
     41 C           7.3483   73.7876   23.8751 C.3     1  UNL1        0.0569
     42 C           8.3763   74.1414   22.8395 C.ar    1  UNL1       -0.0017
     43 C           8.3393   75.2283   21.9707 C.ar    1  UNL1        0.0681
     44 N           9.4721   75.2821   21.2336 N.ar    1  UNL1       -0.3523
     45 C          10.2273   74.2454   21.6365 C.ar    1  UNL1        0.0563
     46 C          11.4976   73.8971   21.1796 C.ar    1  UNL1        0.0170
     47 C          12.1204   72.7765   21.7593 C.ar    1  UNL1        0.0015
     48 C          11.4686   72.0399   22.7733 C.ar    1  UNL1        0.0001
     49 C          10.1875   72.4160   23.2163 C.ar    1  UNL1        0.0012
     50 C           9.5938   73.5283   22.6191 C.ar    1  UNL1        0.0131
     51 H           9.7139   75.9958   20.5106 H       1  UNL1        0.1660
@<TRIPOS>BOND
     1     2     3    2
     2     3     4   am
     3     4     1    1
     4     1    41    1
     5    41    42    1
     6    42    43   ar
     7    43    44   ar
     8    44    45   ar
     9    45    46   ar
    10    46    47   ar
    11    47    48   ar
    12    48    49   ar
    13    49    50   ar
    14     1    27    1
    15    27    28    2
    16    27    29   am
    17    29    31    1
    18    31    32   ar
    19    32    33   ar
    20    33    34   ar
    21    34    35   ar
    22    35    36   ar
    23    36    37    1
    24    37    38    2
    25    37    39    1
    26     3     6    1
    27     6     7   ar
    28     7     8   ar
    29     8     9   ar
    30     9    13    1
    31    13    14    1
    32    14    15    1
    33    15    16    1
    34    16    19    1
    35    19    20   ar
    36    20    21   ar
    37    21    22   ar
    38    22    23    1
    39    22    24   ar
    40    24    25    1
    41    24    26   ar
    42    16    17    1
    43    17    18    1
    44     9    10   ar
    45    10    11   ar
    46    11    12    1
    47    50    42   ar
    48    36    31   ar
    49    11     6   ar
    50    50    45   ar
    51    18    13    1
    52    26    19   ar
    53     4     5    1
    54    44    51    1
    55    29    30    1
    56    39    40    1
@<TRIPOS>MOLECULE
*****
 51 56 0 0 0
SMALL
GASTEIGER

@<TRIPOS>ATOM
      1 C           7.8035   74.1966   25.3000 C.3     1  UNL1        0.1535
      2 O          10.5709   74.6580   25.7815 O.2     1  UNL1       -0.2701
      3 C           9.8714   75.6601   25.4679 C.2     1  UNL1        0.2483
      4 N           8.4590   75.5080   25.2589 N.am    1  UNL1       -0.2945
      5 H           7.8654   76.3670   25.2104 H       1  UNL1        0.1501
      6 C          10.5133   76.9882   25.3619 C.ar    1  UNL1        0.0808
      7 C          10.0163   78.0605   26.1191 C.ar    1  UNL1        0.0080
      8 C          10.5983   79.3268   26.0252 C.ar    1  UNL1        0.0148
      9 C          11.6982   79.5479   25.1780 C.ar    1  UNL1        0.0502
     10 C          12.2085   78.4677   24.4364 C.ar    1  UNL1        0.0443
     11 C          11.6260   77.1996   24.5263 C.ar    1  UNL1        0.1457
     12 F          12.1818   76.1755   23.8302 F       1  UNL1       -0.2040
     13 N          12.3031   80.8571   25.0817 N.pl3   1  UNL1       -0.3040
     14 C          11.4588   82.0588   25.0131 C.3     1  UNL1        0.1122
     15 C          12.1496   83.1642   24.2087 C.3     1  UNL1        0.1122
     16 N          13.5187   83.4084   24.6894 N.pl3   1  UNL1       -0.3040
     17 C          14.1875   82.4103   25.5365 C.3     1  UNL1        0.1122
     18 C          13.7671   80.9912   25.1411 C.3     1  UNL1        0.1122
     19 C          14.1667   84.6671   24.3977 C.ar    1  UNL1        0.0488
     20 C          14.7189   84.9092   23.1269 C.ar    1  UNL1        0.0154
     21 C          15.3433   86.1266   22.8445 C.ar    1  UNL1        0.0135
     22 C          15.4250   87.1223   23.8222 C.ar    1  UNL1        0.0683
     23 CL         16.2188   88.6410   23.4278 Cl      1  UNL1       -0.0814
     24 C          14.8752   86.8959   25.0941 C.ar    1  UNL1        0.0694
     25 CL         14.9500   88.1242   26.3504 Cl      1  UNL1       -0.0813
     26 C          14.2503   85.6754   25.3764 C.ar    1  UNL1        0.0268
     27 C           6.6271   74.2444   26.2368 C.2     1  UNL1        0.2443
     28 O           5.5211   74.6810   25.8164 O.2     1  UNL1       -0.2730
     29 N           6.7599   73.7875   27.5921 N.am    1  UNL1       -0.2823
     30 H           7.6745   73.3882   27.9008 H       1  UNL1        0.1549
     31 C           5.6640   73.7704   28.5192 C.ar    1  UNL1        0.0597
     32 C           4.7311   72.7245   28.4631 C.ar    1  UNL1        0.0356
     33 C           3.6181   72.7428   29.3012 C.ar    1  UNL1        0.1002
     34 N           3.4326   73.7743   30.1626 N.ar    1  UNL1       -0.2420
     35 C           4.3121   74.8065   30.2436 C.ar    1  UNL1        0.1065
     36 C           5.4596   74.8350   29.4313 C.ar    1  UNL1        0.1080
     37 C           6.4252   75.9511   29.5905 C.2     1  UNL1        0.3408
     38 O           7.5672   75.9006   29.0595 O.2     1  UNL1       -0.2450
     39 O           6.0867   77.0582   30.3644 O.3     1  UNL1       -0.4770
     40 H           6.7393   77.8224   30.4928 H       1  UNL1        0.2954
     41 C           7.3411   73.7687   23.8966 C.3     1  UNL1        0.0569
     42 C           8.3643   74.1244   22.8570 C.ar    1  UNL1       -0.0017
     43 C           8.3204   75.2095   21.9862 C.ar    1  UNL1        0.0681
     44 N           9.4506   75.2660   21.2453 N.ar    1  UNL1       -0.3523
     45 C          10.2109   74.2330   21.6477 C.ar    1  UNL1        0.0563
     46 C          11.4810   73.8885   21.1873 C.ar    1  UNL1        0.0170
     47 C          12.1100   72.7714   21.7671 C.ar    1  UNL1        0.0015
     48 C          11.4643   72.0343   22.7846 C.ar    1  UNL1        0.0001
     49 C          10.1832   72.4065   23.2311 C.ar    1  UNL1        0.0012
     50 C           9.5834   73.5154   22.6337 C.ar    1  UNL1        0.0131
     51 H           9.6873   75.9793   20.5201 H       1  UNL1        0.1660
@<TRIPOS>BOND
     1     2     3    2
     2     3     4   am
     3     4     1    1
     4     1    41    1
     5    41    42    1
     6    42    43   ar
     7    43    44   ar
     8    44    45   ar
     9    45    46   ar
    10    46    47   ar
    11    47    48   ar
    12    48    49   ar
    13    49    50   ar
    14     1    27    1
    15    27    28    2
    16    27    29   am
    17    29    31    1
    18    31    32   ar
    19    32    33   ar
    20    33    34   ar
    21    34    35   ar
    22    35    36   ar
    23    36    37    1
    24    37    38    2
    25    37    39    1
    26     3     6    1
    27     6     7   ar
    28     7     8   ar
    29     8     9   ar
    30     9    13    1
    31    13    14    1
    32    14    15    1
    33    15    16    1
    34    16    19    1
    35    19    20   ar
    36    20    21   ar
    37    21    22   ar
    38    22    23    1
    39    22    24   ar
    40    24    25    1
    41    24    26   ar
    42    16    17    1
    43    17    18    1
    44     9    10   ar
    45    10    11   ar
    46    11    12    1
    47    50    42   ar
    48    36    31   ar
    49    11     6   ar
    50    50    45   ar
    51    18    13    1
    52    26    19   ar
    53     4     5    1
    54    44    51    1
    55    29    30    1
    56    39    40    1
@<TRIPOS>MOLECULE
*****
 51 56 0 0 0
SMALL
GASTEIGER

@<TRIPOS>ATOM
      1 C          10.6081   76.2772   27.7519 C.3     1  UNL1        0.1535
      2 O          10.6908   75.3575   25.0592 O.2     1  UNL1       -0.2701
      3 C           9.5605   75.6803   25.5176 C.2     1  UNL1        0.2483
      4 N           9.4526   76.1988   26.8522 N.am    1  UNL1       -0.2945
      5 H           8.5573   76.6549   27.1405 H       1  UNL1        0.1501
      6 C           8.3660   75.5588   24.6541 C.ar    1  UNL1        0.0808
      7 C           8.2091   74.4232   23.8441 C.ar    1  UNL1        0.0080
      8 C           7.0957   74.2930   23.0107 C.ar    1  UNL1        0.0148
      9 C           6.1075   75.2925   22.9754 C.ar    1  UNL1        0.0502
     10 C           6.2554   76.4193   23.8032 C.ar    1  UNL1        0.0443
     11 C           7.3704   76.5535   24.6364 C.ar    1  UNL1        0.1457
     12 F           7.4474   77.6339   25.4544 F       1  UNL1       -0.2040
     13 N           4.9536   75.1579   22.1154 N.pl3   1  UNL1       -0.3040
     14 C           4.0315   76.2884   21.9325 C.3     1  UNL1        0.1122
     15 C           2.6081   75.7915   21.6613 C.3     1  UNL1        0.1122
     16 N           2.5790   74.7999   20.5747 N.pl3   1  UNL1       -0.3040
     17 C           3.8208   74.1332   20.1567 C.3     1  UNL1        0.1122
     18 C           4.7513   73.9153   21.3539 C.3     1  UNL1        0.1122
     19 C           1.3445   74.5499   19.8657 C.ar    1  UNL1        0.0488
     20 C           0.5423   75.6193   19.4280 C.ar    1  UNL1        0.0154
     21 C          -0.6497   75.3776   18.7408 C.ar    1  UNL1        0.0135
     22 C          -1.0599   74.0676   18.4767 C.ar    1  UNL1        0.0683
     23 CL         -2.5666   73.8048   17.6089 Cl      1  UNL1       -0.0814
     24 C          -0.2675   72.9904   18.9045 C.ar    1  UNL1        0.0694
     25 CL         -0.7431   71.3274   18.5866 Cl      1  UNL1       -0.0813
     26 C           0.9265   73.2336   19.5936 C.ar    1  UNL1        0.0268
     27 C          11.6682   77.1551   27.1440 C.2     1  UNL1        0.2443
     28 O          12.8683   77.0130   27.5048 O.2     1  UNL1       -0.2730
     29 N          11.3181   78.1369   26.1557 N.am    1  UNL1       -0.2823
     30 H          10.3239   78.2021   25.8418 H       1  UNL1        0.1549
     31 C          12.2899   78.9741   25.5111 C.ar    1  UNL1        0.0597
     32 C          13.5429   78.4409   25.1745 C.ar    1  UNL1        0.0356
     33 C          14.5225   79.2662   24.6262 C.ar    1  UNL1        0.1002
     34 N          14.2683   80.5838   24.4272 N.ar    1  UNL1       -0.2420
     35 C          13.0685   81.1372   24.7433 C.ar    1  UNL1        0.1065
     36 C          12.0381   80.3503   25.2878 C.ar    1  UNL1        0.1080
     37 C          10.7233   80.9804   25.5662 C.2     1  UNL1        0.3408
     38 O          10.0859   80.7112   26.6198 O.2     1  UNL1       -0.2450
     39 O          10.1619   81.8559   24.6402 O.3     1  UNL1       -0.4770
     40 H           9.2597   82.2844   24.8099 H       1  UNL1        0.2954
     41 C          10.1970   76.8259   29.1289 C.3     1  UNL1        0.0569
     42 C           9.1228   77.8668   28.9987 C.ar    1  UNL1       -0.0017
     43 C           9.3092   79.2304   28.7903 C.ar    1  UNL1        0.0681
     44 N           8.1175   79.8520   28.6390 N.ar    1  UNL1       -0.3523
     45 C           7.1820   78.8918   28.7398 C.ar    1  UNL1        0.0563
     46 C           5.8004   79.0430   28.6303 C.ar    1  UNL1        0.0170
     47 C           5.0015   77.8908   28.7485 C.ar    1  UNL1        0.0015
     48 C           5.5948   76.6276   28.9675 C.ar    1  UNL1        0.0001
     49 C           6.9923   76.5048   29.0716 C.ar    1  UNL1        0.0012
     50 C           7.7573   77.6656   28.9551 C.ar    1  UNL1        0.0131
     51 H           7.9613   80.8695   28.4632 H       1  UNL1        0.1660
@<TRIPOS>BOND
     1     2     3    2
     2     3     4   am
     3     4     1    1
     4     1    41    1
     5    41    42    1
     6    42    43   ar
     7    43    44   ar
     8    44    45   ar
     9    45    46   ar
    10    46    47   ar
    11    47    48   ar
    12    48    49   ar
    13    49    50   ar
    14     1    27    1
    15    27    28    2
    16    27    29   am
    17    29    31    1
    18    31    32   ar
    19    32    33   ar
    20    33    34   ar
    21    34    35   ar
    22    35    36   ar
    23    36    37    1
    24    37    38    2
    25    37    39    1
    26     3     6    1
    27     6     7   ar
    28     7     8   ar
    29     8     9   ar
    30     9    13    1
    31    13    14    1
    32    14    15    1
    33    15    16    1
    34    16    19    1
    35    19    20   ar
    36    20    21   ar
    37    21    22   ar
    38    22    23    1
    39    22    24   ar
    40    24    25    1
    41    24    26   ar
    42    16    17    1
    43    17    18    1
    44     9    10   ar
    45    10    11   ar
    46    11    12    1
    47    50    42   ar
    48    36    31   ar
    49    11     6   ar
    50    50    45   ar
    51    18    13    1
    52    26    19   ar
    53     4     5    1
    54    44    51    1
    55    29    30    1
    56    39    40    1
