@<TRIPOS>MOLECULE
*****
 52 58 0 0 0
SMALL
GASTEIGER

@<TRIPOS>ATOM
      1 C         -27.4678   48.6671   -4.0986 C.3     1  UNL1        0.1239
      2 C         -26.8352   47.3077   -3.7959 C.3     1  UNL1        0.0374
      3 C         -27.3888   46.8950   -2.4323 C.3     1  UNL1        0.0739
      4 N         -28.4136   47.8778   -2.0535 N.3     1  UNL1       -0.2638
      5 C         -28.7599   48.5925   -3.2857 C.3     1  UNL1        0.0913
      6 C         -27.6948   48.8433   -5.5869 C.2     1  UNL1        0.2359
      7 O         -26.8746   48.3535   -6.4117 O.2     1  UNL1       -0.2739
      8 N         -28.8942   49.4808   -6.0570 N.am    1  UNL1       -0.2832
      9 H         -29.6956   49.5665   -5.3916 H       1  UNL1        0.1549
     10 C         -29.0907   49.9186   -7.4117 C.ar    1  UNL1        0.0505
     11 C         -30.4108   50.0344   -7.9175 C.ar    1  UNL1        0.0162
     12 C         -30.6443   50.4984   -9.2246 C.ar    1  UNL1        0.0198
     13 C         -29.5379   50.8336   -9.9985 C.ar    1  UNL1        0.0754
     14 N         -29.5195   51.3428  -11.2399 N.ar    1  UNL1       -0.2757
     15 N         -28.2569   51.5663  -11.5853 N.ar    1  UNL1       -0.1726
     16 C         -27.4579   51.1873  -10.5569 C.ar    1  UNL1        0.1036
     17 C         -28.2610   50.7228   -9.5263 C.ar    1  UNL1        0.0376
     18 C         -27.9949   50.2972   -8.2244 C.ar    1  UNL1        0.0177
     19 H         -30.3451   51.5523  -11.8439 H       1  UNL1        0.1889
     20 C         -25.9845   51.2886  -10.5882 C.ar    1  UNL1        0.0388
     21 C         -25.2884   51.7494   -9.4617 C.ar    1  UNL1        0.0079
     22 C         -23.8965   51.8511   -9.4906 C.ar    1  UNL1        0.0578
     23 C         -23.2058   51.5046  -10.6537 C.ar    1  UNL1        0.2247
     24 N         -23.8985   51.0851  -11.7489 N.ar    1  UNL1       -0.2101
     25 C         -25.2532   50.9735  -11.7445 C.ar    1  UNL1        0.1036
     26 O         -21.8098   51.6043  -10.6786 O.3     1  UNL1       -0.4640
     27 C         -21.1060   52.8142  -10.9623 C.3     1  UNL1        0.1678
     28 C         -21.9233   53.6912  -11.9154 C.3     1  UNL1        0.0473
     29 C         -19.7551   52.4657  -11.5840 C.3     1  UNL1        0.0473
     30 C         -26.5764   51.2415   -4.7524 C.3     1  UNL1        0.0696
     31 S         -26.3685   49.9959   -3.4322 S.3     1  UNL1       -0.1308
     32 C         -29.5819   47.2502   -1.4076 C.3     1  UNL1        0.1587
     33 C         -29.7710   45.8434   -1.9077 C.2     1  UNL1        0.2423
     34 O         -29.3242   44.8892   -1.2151 O.2     1  UNL1       -0.2733
     35 N         -30.4278   45.5712   -3.1626 N.am    1  UNL1       -0.2740
     36 C         -31.5280   46.3973   -3.6698 C.3     1  UNL1        0.1196
     37 C         -31.3646   46.6627   -5.1415 C.2     1  UNL1       -0.0089
     38 C         -30.5529   45.9345   -5.9355 C.2     1  UNL1       -0.0231
     39 C         -29.6294   44.8762   -5.3566 C.3     1  UNL1        0.0476
     40 C         -30.0589   44.4063   -3.9655 C.3     1  UNL1        0.0984
     41 C         -30.4364   46.2754   -7.3776 C.ar    1  UNL1       -0.0042
     42 C         -29.1779   46.3135   -8.0045 C.ar    1  UNL1       -0.0002
     43 C         -29.0699   46.6064   -9.3663 C.ar    1  UNL1        0.0031
     44 C         -30.2173   46.8739  -10.1302 C.ar    1  UNL1        0.0375
     45 C         -31.4742   46.8459   -9.5042 C.ar    1  UNL1        0.0031
     46 C         -31.5827   46.5496   -8.1425 C.ar    1  UNL1       -0.0002
     47 C         -30.1035   47.1824  -11.5719 C.ar    1  UNL1        0.1832
     48 N         -29.7885   46.2641  -12.5156 N.ar    1  UNL1       -0.2034
     49 C         -29.7964   46.9959  -13.6464 C.ar    1  UNL1        0.1972
     50 N         -30.1092   48.2761  -13.3920 N.ar    1  UNL1       -0.2281
     51 C         -30.1401   49.3718  -14.3501 C.3     1  UNL1        0.1556
     52 N         -30.2910   48.4131  -12.0924 N.ar    1  UNL1       -0.1484
@<TRIPOS>BOND
     1    30    31    1
     2     1    31    1
     3     1     6    1
     4     6     7    2
     5     6     8   am
     6     8    10    1
     7    10    11   ar
     8    11    12   ar
     9    12    13   ar
    10    13    14   ar
    11    14    15   ar
    12    15    16   ar
    13    16    20    1
    14    20    21   ar
    15    21    22   ar
    16    22    23   ar
    17    23    26    1
    18    26    27    1
    19    27    28    1
    20    27    29    1
    21    23    24   ar
    22    24    25   ar
    23    16    17   ar
    24    17    18   ar
    25     1     2    1
    26     2     3    1
    27     3     4    1
    28     4    32    1
    29    32    33    1
    30    33    34    2
    31    33    35   am
    32    35    36    1
    33    36    37    1
    34    37    38    2
    35    38    41    1
    36    41    42   ar
    37    42    43   ar
    38    43    44   ar
    39    44    47    1
    40    47    48   ar
    41    48    49   ar
    42    49    50   ar
    43    50    51    1
    44    50    52   ar
    45    44    45   ar
    46    45    46   ar
    47    38    39    1
    48    39    40    1
    49     4     5    1
    50     5     1    1
    51    18    10   ar
    52    40    35    1
    53    17    13   ar
    54    46    41   ar
    55    25    20   ar
    56    52    47   ar
    57     8     9    1
    58    14    19    1
@<TRIPOS>MOLECULE
*****
 52 58 0 0 0
SMALL
GASTEIGER

@<TRIPOS>ATOM
      1 C         -26.4959   50.7173   -8.2975 C.3     1  UNL1        0.1239
      2 C         -26.1772   50.9798   -6.8247 C.3     1  UNL1        0.0374
      3 C         -26.7716   49.7962   -6.0618 C.3     1  UNL1        0.0739
      4 N         -27.2509   48.8242   -7.0542 N.3     1  UNL1       -0.2638
      5 C         -26.6106   49.1935   -8.3202 C.3     1  UNL1        0.0913
      6 C         -25.4021   51.2584   -9.1966 C.2     1  UNL1        0.2359
      7 O         -25.6501   51.5127  -10.4077 O.2     1  UNL1       -0.2739
      8 N         -24.1132   51.5745   -8.6443 N.am    1  UNL1       -0.2832
      9 H         -24.0379   51.6793   -7.6072 H       1  UNL1        0.1549
     10 C         -22.9470   51.8494   -9.4379 C.ar    1  UNL1        0.0505
     11 C         -22.6884   51.0580  -10.5862 C.ar    1  UNL1        0.0162
     12 C         -21.5796   51.3230  -11.4101 C.ar    1  UNL1        0.0198
     13 C         -20.7496   52.3817  -11.0556 C.ar    1  UNL1        0.0754
     14 N         -19.6765   52.8482  -11.7126 N.ar    1  UNL1       -0.2757
     15 N         -19.2077   53.9041  -11.0579 N.ar    1  UNL1       -0.1726
     16 C         -19.9838   54.1099   -9.9648 C.ar    1  UNL1        0.1036
     17 C         -20.9836   53.1492   -9.9503 C.ar    1  UNL1        0.0376
     18 C         -22.0917   52.9348   -9.1297 C.ar    1  UNL1        0.0177
     19 H         -19.2714   52.4722  -12.5984 H       1  UNL1        0.1889
     20 C         -19.7554   55.2011   -8.9956 C.ar    1  UNL1        0.0388
     21 C         -19.0705   54.9455   -7.7991 C.ar    1  UNL1        0.0079
     22 C         -18.8582   55.9738   -6.8793 C.ar    1  UNL1        0.0578
     23 C         -19.3455   57.2533   -7.1536 C.ar    1  UNL1        0.2247
     24 N         -20.0330   57.4791   -8.3076 N.ar    1  UNL1       -0.2101
     25 C         -20.2491   56.4959   -9.2210 C.ar    1  UNL1        0.1036
     26 O         -19.1280   58.2832   -6.2310 O.3     1  UNL1       -0.4640
     27 C         -19.5795   59.6250   -6.4192 C.3     1  UNL1        0.1678
     28 C         -18.6070   60.3891   -7.3225 C.3     1  UNL1        0.0473
     29 C         -19.6882   60.3054   -5.0561 C.3     1  UNL1        0.0473
     30 C         -28.7615   50.2421   -9.8757 C.3     1  UNL1        0.0696
     31 S         -28.1279   51.4878   -8.6991 S.3     1  UNL1       -0.1308
     32 C         -26.9722   47.4314   -6.6561 C.3     1  UNL1        0.1587
     33 C         -28.2521   46.6482   -6.5391 C.2     1  UNL1        0.2423
     34 O         -28.9594   46.4861   -7.5701 O.2     1  UNL1       -0.2733
     35 N         -28.6903   46.1042   -5.2772 N.am    1  UNL1       -0.2740
     36 C         -27.7511   45.6154   -4.2629 C.3     1  UNL1        0.1196
     37 C         -28.1623   46.0690   -2.8888 C.2     1  UNL1       -0.0089
     38 C         -29.4015   46.5179   -2.6015 C.2     1  UNL1       -0.0231
     39 C         -30.4334   46.7323   -3.6956 C.3     1  UNL1        0.0476
     40 C         -30.1138   45.9592   -4.9765 C.3     1  UNL1        0.0984
     41 C         -29.7196   46.9640   -1.2197 C.ar    1  UNL1       -0.0042
     42 C         -30.2157   46.0529   -0.2700 C.ar    1  UNL1       -0.0002
     43 C         -30.4884   46.4650    1.0368 C.ar    1  UNL1        0.0031
     44 C         -30.2770   47.7988    1.4214 C.ar    1  UNL1        0.0375
     45 C         -29.7908   48.7126    0.4722 C.ar    1  UNL1        0.0031
     46 C         -29.5148   48.2996   -0.8344 C.ar    1  UNL1       -0.0002
     47 C         -30.5640   48.2350    2.8048 C.ar    1  UNL1        0.1832
     48 N         -31.0419   47.4137    3.7693 N.ar    1  UNL1       -0.2034
     49 C         -31.1482   48.2403    4.8276 C.ar    1  UNL1        0.1972
     50 N         -30.7459   49.4818    4.5141 N.ar    1  UNL1       -0.2281
     51 C         -30.7900   50.6548    5.3753 C.3     1  UNL1        0.1556
     52 N         -30.3895   49.4990    3.2439 N.ar    1  UNL1       -0.1484
@<TRIPOS>BOND
     1    30    31    1
     2     1    31    1
     3     1     6    1
     4     6     7    2
     5     6     8   am
     6     8    10    1
     7    10    11   ar
     8    11    12   ar
     9    12    13   ar
    10    13    14   ar
    11    14    15   ar
    12    15    16   ar
    13    16    20    1
    14    20    21   ar
    15    21    22   ar
    16    22    23   ar
    17    23    26    1
    18    26    27    1
    19    27    28    1
    20    27    29    1
    21    23    24   ar
    22    24    25   ar
    23    16    17   ar
    24    17    18   ar
    25     1     2    1
    26     2     3    1
    27     3     4    1
    28     4    32    1
    29    32    33    1
    30    33    34    2
    31    33    35   am
    32    35    36    1
    33    36    37    1
    34    37    38    2
    35    38    41    1
    36    41    42   ar
    37    42    43   ar
    38    43    44   ar
    39    44    47    1
    40    47    48   ar
    41    48    49   ar
    42    49    50   ar
    43    50    51    1
    44    50    52   ar
    45    44    45   ar
    46    45    46   ar
    47    38    39    1
    48    39    40    1
    49     4     5    1
    50     5     1    1
    51    18    10   ar
    52    40    35    1
    53    17    13   ar
    54    46    41   ar
    55    25    20   ar
    56    52    47   ar
    57     8     9    1
    58    14    19    1
@<TRIPOS>MOLECULE
*****
 52 58 0 0 0
SMALL
GASTEIGER

@<TRIPOS>ATOM
      1 C         -27.1634   48.8360   -4.5119 C.3     1  UNL1        0.1239
      2 C         -26.6947   47.3832   -4.4163 C.3     1  UNL1        0.0374
      3 C         -27.4586   46.7852   -3.2351 C.3     1  UNL1        0.0739
      4 N         -28.4376   47.7856   -2.7877 N.3     1  UNL1       -0.2638
      5 C         -28.5541   48.7521   -3.8837 C.3     1  UNL1        0.0913
      6 C         -27.1736   49.3118   -5.9510 C.2     1  UNL1        0.2359
      7 O         -28.2049   49.1507   -6.6606 O.2     1  UNL1       -0.2739
      8 N         -26.0460   50.0338   -6.4738 N.am    1  UNL1       -0.2832
      9 H         -25.3694   50.4448   -5.7914 H       1  UNL1        0.1549
     10 C         -25.8466   50.3059   -7.8708 C.ar    1  UNL1        0.0505
     11 C         -26.9450   50.1962   -8.7614 C.ar    1  UNL1        0.0162
     12 C         -26.7979   50.4940  -10.1282 C.ar    1  UNL1        0.0198
     13 C         -25.5410   50.8939  -10.5707 C.ar    1  UNL1        0.0754
     14 N         -25.1811   51.2758  -11.8057 N.ar    1  UNL1       -0.2757
     15 N         -23.9011   51.6286  -11.7816 N.ar    1  UNL1       -0.1726
     16 C         -23.4343   51.4616  -10.5191 C.ar    1  UNL1        0.1036
     17 C         -24.4733   50.9994   -9.7254 C.ar    1  UNL1        0.0376
     18 C         -24.5916   50.7434   -8.3589 C.ar    1  UNL1        0.0177
     19 H         -25.7904   51.3140  -12.6527 H       1  UNL1        0.1889
     20 C         -22.0425   51.7525  -10.1185 C.ar    1  UNL1        0.0388
     21 C         -20.9949   51.5619  -11.0308 C.ar    1  UNL1        0.0079
     22 C         -19.6784   51.8310  -10.6529 C.ar    1  UNL1        0.0578
     23 C         -19.4126   52.2768   -9.3565 C.ar    1  UNL1        0.2247
     24 N         -20.4381   52.4304   -8.4734 N.ar    1  UNL1       -0.2101
     25 C         -21.7287   52.1792   -8.8183 C.ar    1  UNL1        0.1036
     26 O         -18.0917   52.5492   -8.9816 O.3     1  UNL1       -0.4640
     27 C         -17.1343   51.5394   -8.6601 C.3     1  UNL1        0.1678
     28 C         -15.9918   52.1370   -7.8334 C.3     1  UNL1        0.0473
     29 C         -16.5965   50.9378   -9.9568 C.3     1  UNL1        0.0473
     30 C         -26.5185   51.5336   -4.1158 C.3     1  UNL1        0.0696
     31 S         -26.0542   49.8881   -3.4721 S.3     1  UNL1       -0.1308
     32 C         -29.7308   47.1797   -2.4182 C.3     1  UNL1        0.1587
     33 C         -29.7944   45.7476   -2.8765 C.2     1  UNL1        0.2423
     34 O         -29.2757   44.8560   -2.1515 O.2     1  UNL1       -0.2733
     35 N         -30.4125   45.3832   -4.1278 N.am    1  UNL1       -0.2740
     36 C         -31.5733   46.0970   -4.6688 C.3     1  UNL1        0.1196
     37 C         -31.4175   46.3313   -6.1466 C.2     1  UNL1       -0.0089
     38 C         -30.5385   45.6516   -6.9114 C.2     1  UNL1       -0.0231
     39 C         -29.5347   44.6935   -6.2930 C.3     1  UNL1        0.0476
     40 C         -29.9375   44.2305   -4.8917 C.3     1  UNL1        0.0984
     41 C         -30.4361   45.9581   -8.3622 C.ar    1  UNL1       -0.0042
     42 C         -31.0557   45.1288   -9.3144 C.ar    1  UNL1       -0.0002
     43 C         -30.9836   45.4316  -10.6764 C.ar    1  UNL1        0.0031
     44 C         -30.2850   46.5670  -11.1171 C.ar    1  UNL1        0.0375
     45 C         -29.6572   47.3913  -10.1690 C.ar    1  UNL1        0.0031
     46 C         -29.7322   47.0902   -8.8061 C.ar    1  UNL1       -0.0002
     47 C         -30.2097   46.8888  -12.5584 C.ar    1  UNL1        0.1832
     48 N         -29.7685   46.0228  -13.5011 N.ar    1  UNL1       -0.2034
     49 C         -29.8728   46.7472  -14.6319 C.ar    1  UNL1        0.1972
     50 N         -30.3592   47.9723  -14.3787 N.ar    1  UNL1       -0.2281
     51 C         -30.5369   49.0538  -15.3369 C.3     1  UNL1        0.1556
     52 N         -30.5625   48.0824  -13.0796 N.ar    1  UNL1       -0.1484
@<TRIPOS>BOND
     1    30    31    1
     2     1    31    1
     3     1     6    1
     4     6     7    2
     5     6     8   am
     6     8    10    1
     7    10    11   ar
     8    11    12   ar
     9    12    13   ar
    10    13    14   ar
    11    14    15   ar
    12    15    16   ar
    13    16    20    1
    14    20    21   ar
    15    21    22   ar
    16    22    23   ar
    17    23    26    1
    18    26    27    1
    19    27    28    1
    20    27    29    1
    21    23    24   ar
    22    24    25   ar
    23    16    17   ar
    24    17    18   ar
    25     1     2    1
    26     2     3    1
    27     3     4    1
    28     4    32    1
    29    32    33    1
    30    33    34    2
    31    33    35   am
    32    35    36    1
    33    36    37    1
    34    37    38    2
    35    38    41    1
    36    41    42   ar
    37    42    43   ar
    38    43    44   ar
    39    44    47    1
    40    47    48   ar
    41    48    49   ar
    42    49    50   ar
    43    50    51    1
    44    50    52   ar
    45    44    45   ar
    46    45    46   ar
    47    38    39    1
    48    39    40    1
    49     4     5    1
    50     5     1    1
    51    18    10   ar
    52    40    35    1
    53    17    13   ar
    54    46    41   ar
    55    25    20   ar
    56    52    47   ar
    57     8     9    1
    58    14    19    1
@<TRIPOS>MOLECULE
*****
 52 58 0 0 0
SMALL
GASTEIGER

@<TRIPOS>ATOM
      1 C         -26.6362   50.9107   -9.0479 C.3     1  UNL1        0.1239
      2 C         -27.0651   52.2089   -8.3620 C.3     1  UNL1        0.0374
      3 C         -27.7804   51.7767   -7.0822 C.3     1  UNL1        0.0739
      4 N         -27.6188   50.3218   -6.9533 N.3     1  UNL1       -0.2638
      5 C         -26.5252   49.9571   -7.8587 C.3     1  UNL1        0.0913
      6 C         -25.3345   51.0970   -9.8019 C.2     1  UNL1        0.2359
      7 O         -25.1698   50.5394  -10.9221 O.2     1  UNL1       -0.2739
      8 N         -24.3306   51.9875   -9.2868 N.am    1  UNL1       -0.2832
      9 H         -24.6187   52.6816   -8.5605 H       1  UNL1        0.1549
     10 C         -22.9817   52.0450   -9.7792 C.ar    1  UNL1        0.0505
     11 C         -22.5691   51.1255  -10.7773 C.ar    1  UNL1        0.0162
     12 C         -21.2694   51.1773  -11.3128 C.ar    1  UNL1        0.0198
     13 C         -20.4087   52.1561  -10.8263 C.ar    1  UNL1        0.0754
     14 N         -19.1552   52.4268  -11.2213 N.ar    1  UNL1       -0.2757
     15 N         -18.7137   53.4742  -10.5347 N.ar    1  UNL1       -0.1726
     16 C         -19.6923   53.8723   -9.6841 C.ar    1  UNL1        0.1036
     17 C         -20.7909   53.0450   -9.8621 C.ar    1  UNL1        0.0376
     18 C         -22.0819   53.0428   -9.3328 C.ar    1  UNL1        0.0177
     19 H         -18.6064   51.9245  -11.9539 H       1  UNL1        0.1889
     20 C         -19.5523   55.0127   -8.7556 C.ar    1  UNL1        0.0388
     21 C         -19.9344   56.2993   -9.1612 C.ar    1  UNL1        0.0079
     22 C         -19.7980   57.3794   -8.2874 C.ar    1  UNL1        0.0578
     23 C         -19.2652   57.1704   -7.0137 C.ar    1  UNL1        0.2247
     24 N         -18.8729   55.9193   -6.6446 N.ar    1  UNL1       -0.2101
     25 C         -18.9993   54.8509   -7.4753 C.ar    1  UNL1        0.1036
     26 O         -19.1329   58.2547   -6.1384 O.3     1  UNL1       -0.4640
     27 C         -19.6133   59.5687   -6.4254 C.3     1  UNL1        0.1678
     28 C         -18.5946   60.3304   -7.2784 C.3     1  UNL1        0.0473
     29 C         -19.8617   60.3023   -5.1090 C.3     1  UNL1        0.0473
     30 C         -28.7040   51.9921  -10.5986 C.3     1  UNL1        0.0696
     31 S         -27.9890   50.3631  -10.1830 S.3     1  UNL1       -0.1308
     32 C         -27.3719   49.9056   -5.5598 C.3     1  UNL1        0.1587
     33 C         -27.7699   48.4682   -5.3584 C.2     1  UNL1        0.2423
     34 O         -27.1966   47.8018   -4.4546 O.2     1  UNL1       -0.2733
     35 N         -28.7695   47.8395   -6.1867 N.am    1  UNL1       -0.2740
     36 C         -29.9226   48.5715   -6.7201 C.3     1  UNL1        0.1196
     37 C         -30.1698   48.2075   -8.1587 C.2     1  UNL1       -0.0089
     38 C         -29.6568   47.1022   -8.7373 C.2     1  UNL1       -0.0231
     39 C         -28.6649   46.2177   -8.0014 C.3     1  UNL1        0.0476
     40 C         -28.7064   46.4094   -6.4841 C.3     1  UNL1        0.0984
     41 C         -29.9364   46.8261  -10.1708 C.ar    1  UNL1       -0.0042
     42 C         -31.1676   47.1927  -10.7434 C.ar    1  UNL1       -0.0002
     43 C         -31.4205   46.9589  -12.0974 C.ar    1  UNL1        0.0031
     44 C         -30.4503   46.3477  -12.9076 C.ar    1  UNL1        0.0375
     45 C         -29.2237   45.9720  -12.3360 C.ar    1  UNL1        0.0031
     46 C         -28.9693   46.2089  -10.9821 C.ar    1  UNL1       -0.0002
     47 C         -30.7169   46.1015  -14.3411 C.ar    1  UNL1        0.1832
     48 N         -31.5841   46.8314  -15.0817 N.ar    1  UNL1       -0.2034
     49 C         -31.4974   46.2450  -16.2913 C.ar    1  UNL1        0.1972
     50 N         -30.6198   45.2296  -16.2750 N.ar    1  UNL1       -0.2281
     51 C         -30.3208   44.3195  -17.3712 C.3     1  UNL1        0.1556
     52 N         -30.1315   45.1170  -15.0544 N.ar    1  UNL1       -0.1484
@<TRIPOS>BOND
     1    30    31    1
     2     1    31    1
     3     1     6    1
     4     6     7    2
     5     6     8   am
     6     8    10    1
     7    10    11   ar
     8    11    12   ar
     9    12    13   ar
    10    13    14   ar
    11    14    15   ar
    12    15    16   ar
    13    16    20    1
    14    20    21   ar
    15    21    22   ar
    16    22    23   ar
    17    23    26    1
    18    26    27    1
    19    27    28    1
    20    27    29    1
    21    23    24   ar
    22    24    25   ar
    23    16    17   ar
    24    17    18   ar
    25     1     2    1
    26     2     3    1
    27     3     4    1
    28     4    32    1
    29    32    33    1
    30    33    34    2
    31    33    35   am
    32    35    36    1
    33    36    37    1
    34    37    38    2
    35    38    41    1
    36    41    42   ar
    37    42    43   ar
    38    43    44   ar
    39    44    47    1
    40    47    48   ar
    41    48    49   ar
    42    49    50   ar
    43    50    51    1
    44    50    52   ar
    45    44    45   ar
    46    45    46   ar
    47    38    39    1
    48    39    40    1
    49     4     5    1
    50     5     1    1
    51    18    10   ar
    52    40    35    1
    53    17    13   ar
    54    46    41   ar
    55    25    20   ar
    56    52    47   ar
    57     8     9    1
    58    14    19    1
@<TRIPOS>MOLECULE
*****
 52 58 0 0 0
SMALL
GASTEIGER

@<TRIPOS>ATOM
      1 C         -27.7607   49.9172   -6.5895 C.3     1  UNL1        0.1239
      2 C         -26.9391   48.7166   -6.1169 C.3     1  UNL1        0.0374
      3 C         -27.9621   47.6775   -5.6588 C.3     1  UNL1        0.0739
      4 N         -29.2962   48.1833   -6.0101 N.3     1  UNL1       -0.2638
      5 C         -29.0760   49.2504   -6.9909 C.3     1  UNL1        0.0913
      6 C         -27.0693   50.6352   -7.7314 C.2     1  UNL1        0.2359
      7 O         -27.7190   51.4393   -8.4556 O.2     1  UNL1       -0.2739
      8 N         -25.6540   50.4749   -7.9248 N.am    1  UNL1       -0.2832
      9 H         -25.0924   50.0910   -7.1315 H       1  UNL1        0.1549
     10 C         -24.9535   50.9003   -9.1054 C.ar    1  UNL1        0.0505
     11 C         -25.4538   50.5282  -10.3794 C.ar    1  UNL1        0.0162
     12 C         -24.8186   50.9596  -11.5579 C.ar    1  UNL1        0.0198
     13 C         -23.6860   51.7568  -11.4268 C.ar    1  UNL1        0.0754
     14 N         -22.9551   52.3230  -12.3993 N.ar    1  UNL1       -0.2757
     15 N         -21.9942   53.0470  -11.8373 N.ar    1  UNL1       -0.1726
     16 C         -22.1058   52.9352  -10.4902 C.ar    1  UNL1        0.1036
     17 C         -23.1903   52.1189  -10.2066 C.ar    1  UNL1        0.0376
     18 C         -23.8139   51.7359   -9.0186 C.ar    1  UNL1        0.0177
     19 H         -23.1075   52.2374  -13.4287 H       1  UNL1        0.1889
     20 C         -21.1975   53.6061   -9.5377 C.ar    1  UNL1        0.0388
     21 C         -20.7356   54.9032   -9.8029 C.ar    1  UNL1        0.0079
     22 C         -19.8730   55.5372   -8.9071 C.ar    1  UNL1        0.0578
     23 C         -19.4633   54.8644   -7.7541 C.ar    1  UNL1        0.2247
     24 N         -19.8987   53.5943   -7.5246 N.ar    1  UNL1       -0.2101
     25 C         -20.7421   52.9571   -8.3792 C.ar    1  UNL1        0.1036
     26 O         -18.6010   55.5040   -6.8559 O.3     1  UNL1       -0.4640
     27 C         -18.2467   56.8848   -6.9433 C.3     1  UNL1        0.1678
     28 C         -17.2462   57.2455   -5.8412 C.3     1  UNL1        0.0473
     29 C         -19.5127   57.7290   -6.8117 C.3     1  UNL1        0.0473
     30 C         -29.7136   51.6409   -5.5577 C.3     1  UNL1        0.0696
     31 S         -28.0307   51.0538   -5.1564 S.3     1  UNL1       -0.1308
     32 C         -30.1862   47.1192   -6.5116 C.3     1  UNL1        0.1587
     33 C         -29.3906   46.0488   -7.2089 C.2     1  UNL1        0.2423
     34 O         -28.4255   45.5159   -6.5971 O.2     1  UNL1       -0.2733
     35 N         -29.6955   45.6414   -8.5586 N.am    1  UNL1       -0.2740
     36 C         -31.0644   45.6202   -9.0834 C.3     1  UNL1        0.1196
     37 C         -31.1127   46.1827  -10.4778 C.2     1  UNL1       -0.0089
     38 C         -30.0189   46.3178  -11.2556 C.2     1  UNL1       -0.0231
     39 C         -28.6279   46.0399  -10.7117 C.3     1  UNL1        0.0476
     40 C         -28.6424   45.1672   -9.4552 C.3     1  UNL1        0.0984
     41 C         -30.1525   46.9001  -12.6167 C.ar    1  UNL1       -0.0042
     42 C         -29.9881   46.0956  -13.7586 C.ar    1  UNL1       -0.0002
     43 C         -30.1411   46.6359  -15.0379 C.ar    1  UNL1        0.0031
     44 C         -30.4558   47.9942  -15.2040 C.ar    1  UNL1        0.0375
     45 C         -30.6110   48.8017  -14.0654 C.ar    1  UNL1        0.0031
     46 C         -30.4612   48.2604  -12.7854 C.ar    1  UNL1       -0.0002
     47 C         -30.6195   48.5661  -16.5577 C.ar    1  UNL1        0.1832
     48 N         -30.4467   47.8593  -17.6995 N.ar    1  UNL1       -0.2034
     49 C         -30.6895   48.7814  -18.6510 C.ar    1  UNL1        0.1972
     50 N         -31.0002   49.9682  -18.1065 N.ar    1  UNL1       -0.2281
     51 C         -31.2482   51.2141  -18.8175 C.3     1  UNL1        0.1556
     52 N         -30.9467   49.8539  -16.7931 N.ar    1  UNL1       -0.1484
@<TRIPOS>BOND
     1    30    31    1
     2     1    31    1
     3     1     6    1
     4     6     7    2
     5     6     8   am
     6     8    10    1
     7    10    11   ar
     8    11    12   ar
     9    12    13   ar
    10    13    14   ar
    11    14    15   ar
    12    15    16   ar
    13    16    20    1
    14    20    21   ar
    15    21    22   ar
    16    22    23   ar
    17    23    26    1
    18    26    27    1
    19    27    28    1
    20    27    29    1
    21    23    24   ar
    22    24    25   ar
    23    16    17   ar
    24    17    18   ar
    25     1     2    1
    26     2     3    1
    27     3     4    1
    28     4    32    1
    29    32    33    1
    30    33    34    2
    31    33    35   am
    32    35    36    1
    33    36    37    1
    34    37    38    2
    35    38    41    1
    36    41    42   ar
    37    42    43   ar
    38    43    44   ar
    39    44    47    1
    40    47    48   ar
    41    48    49   ar
    42    49    50   ar
    43    50    51    1
    44    50    52   ar
    45    44    45   ar
    46    45    46   ar
    47    38    39    1
    48    39    40    1
    49     4     5    1
    50     5     1    1
    51    18    10   ar
    52    40    35    1
    53    17    13   ar
    54    46    41   ar
    55    25    20   ar
    56    52    47   ar
    57     8     9    1
    58    14    19    1
