@<TRIPOS>MOLECULE
*****
 45 50 0 0 0
SMALL
GASTEIGER

@<TRIPOS>ATOM
      1 C         -25.3068   49.8591   -8.9846 C.ar    1  UNL1        0.0702
      2 C         -25.4476   48.6186   -8.3529 C.ar    1  UNL1        0.0191
      3 C         -26.5221   47.7853   -8.6671 C.ar    1  UNL1        0.0356
      4 C         -27.4769   48.2050   -9.6115 C.ar    1  UNL1        0.1318
      5 N         -27.3298   49.4298  -10.1915 N.ar    1  UNL1       -0.2279
      6 C         -26.2898   50.2560   -9.9040 C.ar    1  UNL1        0.1149
      7 N         -28.6002   47.3669   -9.9734 N.pl3   1  UNL1       -0.2932
      8 C         -28.3843   46.0142  -10.5183 C.3     1  UNL1        0.0923
      9 C         -29.6611   45.4415  -11.1517 C.3     1  UNL1        0.0252
     10 C         -30.3675   46.5252  -11.9847 C.3     1  UNL1        0.0472
     11 C         -30.7717   47.7437  -11.1111 C.3     1  UNL1        0.0252
     12 C         -29.9809   47.8446   -9.7957 C.3     1  UNL1        0.0923
     13 C         -31.5837   45.9331  -12.7221 C.3     1  UNL1        0.2054
     14 O         -31.1921   45.3283  -13.9560 O.3     1  UNL1       -0.4755
     15 C         -30.7293   46.0128  -15.0921 C.ar    1  UNL1        0.1388
     16 C         -30.4871   45.3733  -16.3189 C.ar    1  UNL1        0.0374
     17 C         -30.0294   46.1059  -17.4135 C.ar    1  UNL1        0.0100
     18 C         -29.8031   47.4828  -17.3098 C.ar    1  UNL1        0.0410
     19 BR        -29.2384   48.3845  -18.9096 Br      1  UNL1       -0.0488
     20 C         -30.0384   48.1437  -16.0780 C.ar    1  UNL1        0.0847
     21 C         -30.5106   47.3901  -14.9864 C.ar    1  UNL1        0.0438
     22 C         -29.8092   49.5979  -15.8844 C.2     1  UNL1        0.3386
     23 O         -28.6527   50.0543  -15.6833 O.2     1  UNL1       -0.2451
     24 O         -30.8891   50.4776  -15.8921 O.3     1  UNL1       -0.4771
     25 H         -30.7524   51.4714  -15.7505 H       1  UNL1        0.2954
     26 C         -23.2934   51.2830   -9.5876 C.2     1  UNL1        0.2839
     27 O         -23.2606   50.8492  -10.7705 O.2     1  UNL1       -0.2665
     28 N         -24.2065   50.7160   -8.6340 N.am    1  UNL1       -0.2766
     29 H         -24.0105   50.8661   -7.6183 H       1  UNL1        0.1553
     30 C         -23.4744   54.3970  -10.3246 C.3     1  UNL1        0.0345
     31 C         -22.4393   53.7091   -9.4863 C.ar    1  UNL1        0.0202
     32 C         -22.3636   52.3485   -9.1674 C.ar    1  UNL1        0.1946
     33 O         -21.3092   52.1212   -8.4044 O.2     1  UNL1       -0.4492
     34 C         -20.6969   53.2640   -8.2123 C.ar    1  UNL1        0.1452
     35 C         -19.5435   53.4889   -7.4691 C.ar    1  UNL1        0.0375
     36 C         -19.0537   54.8041   -7.3922 C.ar    1  UNL1        0.0031
     37 C         -19.7201   55.8697   -8.0556 C.ar    1  UNL1        0.0002
     38 C         -20.8915   55.5975   -8.8025 C.ar    1  UNL1        0.0028
     39 C         -21.3493   54.2801   -8.8575 C.ar    1  UNL1        0.0337
     40 C         -19.1934   57.2553   -7.9670 C.ar    1  UNL1        0.0000
     41 C         -19.4154   58.1736   -9.0109 C.ar    1  UNL1        0.0000
     42 C         -18.9174   59.4774   -8.9250 C.ar    1  UNL1        0.0000
     43 C         -18.1950   59.8793   -7.7996 C.ar    1  UNL1        0.0000
     44 C         -17.9683   58.9779   -6.7571 C.ar    1  UNL1        0.0000
     45 C         -18.4630   57.6726   -6.8379 C.ar    1  UNL1        0.0000
@<TRIPOS>BOND
     1    30    31    1
     2    31    32   ar
     3    32    26    1
     4    26    27    2
     5    26    28   am
     6    28     1    1
     7     1     2   ar
     8     2     3   ar
     9     3     4   ar
    10     4     7    1
    11     7     8    1
    12     8     9    1
    13     9    10    1
    14    10    13    1
    15    13    14    1
    16    14    15    1
    17    15    16   ar
    18    16    17   ar
    19    17    18   ar
    20    18    19    1
    21    18    20   ar
    22    20    22    1
    23    22    23    2
    24    22    24    1
    25    20    21   ar
    26    10    11    1
    27    11    12    1
    28     4     5   ar
    29     5     6   ar
    30    32    33   ar
    31    33    34   ar
    32    34    35   ar
    33    35    36   ar
    34    36    37   ar
    35    37    40    1
    36    40    41   ar
    37    41    42   ar
    38    42    43   ar
    39    43    44   ar
    40    44    45   ar
    41    37    38   ar
    42    38    39   ar
    43    39    31   ar
    44     6     1   ar
    45    39    34   ar
    46    12     7    1
    47    45    40   ar
    48    21    15   ar
    49    28    29    1
    50    24    25    1
@<TRIPOS>MOLECULE
*****
 45 50 0 0 0
SMALL
GASTEIGER

@<TRIPOS>ATOM
      1 C         -24.6166   50.3661   -9.0395 C.ar    1  UNL1        0.0702
      2 C         -25.1462   49.4954   -8.0809 C.ar    1  UNL1        0.0191
      3 C         -26.1767   48.6170   -8.4190 C.ar    1  UNL1        0.0356
      4 C         -26.6956   48.6214   -9.7267 C.ar    1  UNL1        0.1318
      5 N         -26.1793   49.4989  -10.6331 N.ar    1  UNL1       -0.2279
      6 C         -25.1735   50.3602  -10.3275 C.ar    1  UNL1        0.1149
      7 N         -27.7568   47.7195  -10.1212 N.pl3   1  UNL1       -0.2932
      8 C         -29.1417   48.2044  -10.2635 C.3     1  UNL1        0.0923
      9 C         -30.1485   47.0471  -10.3425 C.3     1  UNL1        0.0252
     10 C         -29.7921   45.9675   -9.3058 C.3     1  UNL1        0.0472
     11 C         -28.3737   45.3855   -9.5521 C.3     1  UNL1        0.0252
     12 C         -27.4730   46.3021  -10.3975 C.3     1  UNL1        0.0923
     13 C         -30.8610   44.8580   -9.2915 C.3     1  UNL1        0.2054
     14 O         -31.3692   44.6510   -7.9722 O.3     1  UNL1       -0.4755
     15 C         -30.9130   45.2939   -6.8095 C.ar    1  UNL1        0.1388
     16 C         -31.5485   46.4220   -6.2653 C.ar    1  UNL1        0.0374
     17 C         -31.0504   47.0172   -5.1069 C.ar    1  UNL1        0.0100
     18 C         -29.9143   46.5053   -4.4702 C.ar    1  UNL1        0.0410
     19 BR        -29.3725   47.3769   -2.8461 Br      1  UNL1       -0.0488
     20 C         -29.2579   45.3698   -5.0081 C.ar    1  UNL1        0.0847
     21 C         -29.7811   44.7755   -6.1724 C.ar    1  UNL1        0.0438
     22 C         -28.0405   44.7764   -4.3995 C.2     1  UNL1        0.3386
     23 O         -26.9418   44.7683   -5.0150 O.2     1  UNL1       -0.2451
     24 O         -28.1114   44.1875   -3.1392 O.3     1  UNL1       -0.4771
     25 H         -27.2934   43.7680   -2.7135 H       1  UNL1        0.2954
     26 C         -22.6716   51.8955   -9.6078 C.2     1  UNL1        0.2839
     27 O         -22.5942   51.4638  -10.7894 O.2     1  UNL1       -0.2665
     28 N         -23.5703   51.2807   -8.6701 N.am    1  UNL1       -0.2766
     29 H         -23.4010   51.4414   -7.6513 H       1  UNL1        0.1553
     30 C         -23.1393   55.0198  -10.1494 C.3     1  UNL1        0.0345
     31 C         -22.0088   54.3745   -9.4058 C.ar    1  UNL1        0.0202
     32 C         -21.8079   53.0094   -9.1721 C.ar    1  UNL1        0.1946
     33 O         -20.6988   52.8282   -8.4774 O.2     1  UNL1       -0.4492
     34 C         -20.1698   54.0053   -8.2488 C.ar    1  UNL1        0.1452
     35 C         -18.9991   54.2834   -7.5519 C.ar    1  UNL1        0.0375
     36 C         -18.6119   55.6283   -7.4219 C.ar    1  UNL1        0.0031
     37 C         -19.3960   56.6701   -7.9871 C.ar    1  UNL1        0.0002
     38 C         -20.5810   56.3437   -8.6895 C.ar    1  UNL1        0.0028
     39 C         -20.9350   54.9981   -8.7995 C.ar    1  UNL1        0.0337
     40 C         -18.9771   58.0875   -7.8430 C.ar    1  UNL1        0.0000
     41 C         -19.2823   59.0295   -8.8440 C.ar    1  UNL1        0.0000
     42 C         -18.8856   60.3631   -8.7060 C.ar    1  UNL1        0.0000
     43 C         -18.1826   60.7717   -7.5706 C.ar    1  UNL1        0.0000
     44 C         -17.8740   59.8470   -6.5705 C.ar    1  UNL1        0.0000
     45 C         -18.2673   58.5118   -6.7035 C.ar    1  UNL1        0.0000
@<TRIPOS>BOND
     1    30    31    1
     2    31    32   ar
     3    32    26    1
     4    26    27    2
     5    26    28   am
     6    28     1    1
     7     1     2   ar
     8     2     3   ar
     9     3     4   ar
    10     4     7    1
    11     7     8    1
    12     8     9    1
    13     9    10    1
    14    10    13    1
    15    13    14    1
    16    14    15    1
    17    15    16   ar
    18    16    17   ar
    19    17    18   ar
    20    18    19    1
    21    18    20   ar
    22    20    22    1
    23    22    23    2
    24    22    24    1
    25    20    21   ar
    26    10    11    1
    27    11    12    1
    28     4     5   ar
    29     5     6   ar
    30    32    33   ar
    31    33    34   ar
    32    34    35   ar
    33    35    36   ar
    34    36    37   ar
    35    37    40    1
    36    40    41   ar
    37    41    42   ar
    38    42    43   ar
    39    43    44   ar
    40    44    45   ar
    41    37    38   ar
    42    38    39   ar
    43    39    31   ar
    44     6     1   ar
    45    39    34   ar
    46    12     7    1
    47    45    40   ar
    48    21    15   ar
    49    28    29    1
    50    24    25    1
@<TRIPOS>MOLECULE
*****
 45 50 0 0 0
SMALL
GASTEIGER

@<TRIPOS>ATOM
      1 C         -25.0646   50.0829   -9.1073 C.ar    1  UNL1        0.0702
      2 C         -25.5352   49.1313   -8.1959 C.ar    1  UNL1        0.0191
      3 C         -26.5956   48.2911   -8.5384 C.ar    1  UNL1        0.0356
      4 C         -27.2040   48.4156   -9.8009 C.ar    1  UNL1        0.1318
      5 N         -26.7430   49.3693  -10.6588 N.ar    1  UNL1       -0.2279
      6 C         -25.7097   50.1956  -10.3483 C.ar    1  UNL1        0.1149
      7 N         -28.2992   47.5571  -10.1993 N.pl3   1  UNL1       -0.2932
      8 C         -29.6881   48.0511  -10.1778 C.3     1  UNL1        0.0923
      9 C         -30.7051   46.9059  -10.2944 C.3     1  UNL1        0.0252
     10 C         -30.2727   45.7253   -9.4077 C.3     1  UNL1        0.0472
     11 C         -28.8825   45.1753   -9.8272 C.3     1  UNL1        0.0252
     12 C         -28.0475   46.1767  -10.6432 C.3     1  UNL1        0.0923
     13 C         -31.3438   44.6180   -9.4218 C.3     1  UNL1        0.2054
     14 O         -31.5840   44.1184   -8.1048 O.3     1  UNL1       -0.4755
     15 C         -31.3614   44.8223   -6.9096 C.ar    1  UNL1        0.1388
     16 C         -31.4243   44.2132   -5.6457 C.ar    1  UNL1        0.0374
     17 C         -31.1922   44.9632   -4.4932 C.ar    1  UNL1        0.0100
     18 C         -30.8957   46.3282   -4.5746 C.ar    1  UNL1        0.0410
     19 BR        -30.5307   47.2293   -2.9175 Br      1  UNL1       -0.0488
     20 C         -30.8323   46.9601   -5.8420 C.ar    1  UNL1        0.0847
     21 C         -31.0589   46.1850   -6.9954 C.ar    1  UNL1        0.0438
     22 C         -30.5375   48.4056   -6.0105 C.2     1  UNL1        0.3386
     23 O         -31.4065   49.2816   -5.7586 O.2     1  UNL1       -0.2451
     24 O         -29.2916   48.8089   -6.4851 O.3     1  UNL1       -0.4771
     25 H         -29.0771   49.7903   -6.6167 H       1  UNL1        0.2954
     26 C         -23.0595   51.5373   -9.6639 C.2     1  UNL1        0.2839
     27 O         -22.9928   51.1041  -10.8456 O.2     1  UNL1       -0.2665
     28 N         -23.9858   50.9564   -8.7315 N.am    1  UNL1       -0.2766
     29 H         -23.8157   51.1093   -7.7116 H       1  UNL1        0.1553
     30 C         -23.2906   54.6534  -10.3774 C.3     1  UNL1        0.0345
     31 C         -22.2537   53.9782   -9.5311 C.ar    1  UNL1        0.0202
     32 C         -22.1560   52.6167   -9.2225 C.ar    1  UNL1        0.1946
     33 O         -21.1075   52.4031   -8.4475 O.2     1  UNL1       -0.4492
     34 C         -20.5199   53.5557   -8.2378 C.ar    1  UNL1        0.1452
     35 C         -19.3809   53.7962   -7.4775 C.ar    1  UNL1        0.0375
     36 C         -18.9175   55.1198   -7.3832 C.ar    1  UNL1        0.0031
     37 C         -19.5955   56.1781   -8.0466 C.ar    1  UNL1        0.0002
     38 C         -20.7515   55.8900   -8.8111 C.ar    1  UNL1        0.0028
     39 C         -21.1832   54.5646   -8.8832 C.ar    1  UNL1        0.0337
     40 C         -19.0968   57.5728   -7.9394 C.ar    1  UNL1        0.0000
     41 C         -18.3771   57.9904   -6.8036 C.ar    1  UNL1        0.0000
     42 C         -17.9097   59.3045   -6.7051 C.ar    1  UNL1        0.0000
     43 C         -18.1532   60.2144   -7.7361 C.ar    1  UNL1        0.0000
     44 C         -18.8655   59.8124   -8.8681 C.ar    1  UNL1        0.0000
     45 C         -19.3363   58.4998   -8.9716 C.ar    1  UNL1        0.0000
@<TRIPOS>BOND
     1    30    31    1
     2    31    32   ar
     3    32    26    1
     4    26    27    2
     5    26    28   am
     6    28     1    1
     7     1     2   ar
     8     2     3   ar
     9     3     4   ar
    10     4     7    1
    11     7     8    1
    12     8     9    1
    13     9    10    1
    14    10    13    1
    15    13    14    1
    16    14    15    1
    17    15    16   ar
    18    16    17   ar
    19    17    18   ar
    20    18    19    1
    21    18    20   ar
    22    20    22    1
    23    22    23    2
    24    22    24    1
    25    20    21   ar
    26    10    11    1
    27    11    12    1
    28     4     5   ar
    29     5     6   ar
    30    32    33   ar
    31    33    34   ar
    32    34    35   ar
    33    35    36   ar
    34    36    37   ar
    35    37    40    1
    36    40    41   ar
    37    41    42   ar
    38    42    43   ar
    39    43    44   ar
    40    44    45   ar
    41    37    38   ar
    42    38    39   ar
    43    39    31   ar
    44     6     1   ar
    45    39    34   ar
    46    12     7    1
    47    45    40   ar
    48    21    15   ar
    49    28    29    1
    50    24    25    1
