@<TRIPOS>MOLECULE
*****
 38 40 0 0 0
SMALL
GASTEIGER

@<TRIPOS>ATOM
      1 C         -20.0403  -13.2398  -12.9187 C.3     1  UNL1        0.2320
      2 C         -20.8996  -13.0306  -14.1309 C.ar    1  UNL1        0.0209
      3 C         -21.0385  -14.0510  -15.0835 C.ar    1  UNL1       -0.0007
      4 C         -21.7984  -13.8379  -16.2355 C.ar    1  UNL1       -0.0005
      5 C         -22.4213  -12.6061  -16.4479 C.ar    1  UNL1       -0.0029
      6 C         -22.2995  -11.5756  -15.5008 C.ar    1  UNL1       -0.0063
      7 C         -21.5110  -11.7871  -14.3567 C.ar    1  UNL1       -0.0036
      8 C         -22.9302  -10.2284  -15.7506 C.3     1  UNL1        0.0996
      9 N         -23.4114   -9.6259  -14.4787 N.3     1  UNL1       -0.2579
     10 C         -24.8687   -9.8330  -14.3150 C.3     1  UNL1        0.1001
     11 C         -25.1641  -11.2799  -14.0402 C.ar    1  UNL1        0.0009
     12 C         -24.7405  -11.9364  -12.8742 C.ar    1  UNL1        0.0046
     13 C         -25.0926  -13.2778  -12.8341 C.ar    1  UNL1        0.0352
     14 S         -25.9267  -13.6398  -14.2472 S.2     1  UNL1       -0.0862
     15 C         -25.8533  -12.1040  -14.9240 C.ar    1  UNL1        0.0325
     16 C         -23.0902   -8.1801  -14.3864 C.3     1  UNL1        0.1772
     17 C         -21.7412   -7.9202  -13.7033 C.3     1  UNL1        0.4121
     18 F         -20.7568   -7.7945  -14.6670 F       1  UNL1       -0.1685
     19 F         -21.7925   -6.7505  -12.9660 F       1  UNL1       -0.1685
     20 F         -21.4037   -8.9745  -12.8762 F       1  UNL1       -0.1685
     21 O         -20.8163  -12.9964  -11.7489 O.3     1  UNL1       -0.4707
     22 C         -21.0044   -9.3382   -9.6322 C.ar    1  UNL1       -0.0137
     23 C         -19.7608   -9.8755  -10.0223 C.ar    1  UNL1       -0.0005
     24 C         -19.6803  -11.0770  -10.7203 C.ar    1  UNL1        0.0366
     25 C         -20.8455  -11.7788  -11.0525 C.ar    1  UNL1        0.1387
     26 C         -22.0875  -11.2578  -10.6833 C.ar    1  UNL1        0.0324
     27 C         -22.1990  -10.0333   -9.9846 C.ar    1  UNL1       -0.0222
     28 C         -23.5620   -9.4717   -9.5921 C.3     1  UNL1        0.0262
     29 C         -24.3380   -8.7455  -10.6930 C.3     1  UNL1        0.0050
     30 C         -21.0154   -8.0102   -8.8751 C.3     1  UNL1        0.0970
     31 C         -18.2814   -8.1197   -5.7672 C.3     1  UNL1        0.0900
     32 C         -19.2463   -8.0828   -6.8657 C.1     1  UNL1       -0.0897
     33 C         -20.0425   -8.0512   -7.7705 C.1     1  UNL1       -0.0870
     34 C         -20.7038   -6.8210   -9.8032 C.3     1  UNL1        0.1267
     35 C         -21.6451   -5.6766   -9.5645 C.2     1  UNL1        0.3152
     36 O         -21.6458   -5.0845   -8.4532 O.2     1  UNL1       -0.2502
     37 O         -22.4934   -5.2354  -10.5757 O.3     1  UNL1       -0.4801
     38 H         -22.4967   -5.6788  -11.4864 H       1  UNL1        0.2951
@<TRIPOS>BOND
     1    31    32    1
     2    32    33    3
     3    33    30    1
     4    30    34    1
     5    34    35    1
     6    35    36    2
     7    35    37    1
     8    30    22    1
     9    22    23   ar
    10    23    24   ar
    11    24    25   ar
    12    25    21    1
    13    21     1    1
    14     1     2    1
    15     2     3   ar
    16     3     4   ar
    17     4     5   ar
    18     5     6   ar
    19     6     8    1
    20     8     9    1
    21     9    10    1
    22    10    11    1
    23    11    12   ar
    24    12    13   ar
    25    13    14   ar
    26    14    15   ar
    27     9    16    1
    28    16    17    1
    29    17    18    1
    30    17    19    1
    31    17    20    1
    32     6     7   ar
    33    25    26   ar
    34    26    27   ar
    35    27    28    1
    36    28    29    1
    37    27    22   ar
    38     7     2   ar
    39    15    11   ar
    40    37    38    1
@<TRIPOS>MOLECULE
*****
 38 40 0 0 0
SMALL
GASTEIGER

@<TRIPOS>ATOM
      1 C         -26.8527   -8.0402  -10.2058 C.3     1  UNL1        0.2320
      2 C         -25.7309   -8.8461   -9.6197 C.ar    1  UNL1        0.0209
      3 C         -25.9733  -10.1321   -9.1144 C.ar    1  UNL1       -0.0007
      4 C         -24.9391  -10.8616   -8.5245 C.ar    1  UNL1       -0.0005
      5 C         -23.6580  -10.3134   -8.4304 C.ar    1  UNL1       -0.0029
      6 C         -23.3953   -9.0301   -8.9383 C.ar    1  UNL1       -0.0063
      7 C         -24.4467   -8.2902   -9.5063 C.ar    1  UNL1       -0.0036
      8 C         -22.0252   -8.4160   -8.7944 C.3     1  UNL1        0.0996
      9 N         -21.5826   -7.8043  -10.0759 N.3     1  UNL1       -0.2579
     10 C         -20.3410   -8.4462  -10.5657 C.3     1  UNL1        0.1001
     11 C         -20.6496   -9.7806  -11.1822 C.ar    1  UNL1        0.0009
     12 C         -21.6144   -9.9514  -12.1872 C.ar    1  UNL1        0.0046
     13 C         -21.7631  -11.2691  -12.5949 C.ar    1  UNL1        0.0352
     14 S         -20.6964  -12.2136  -11.7040 S.2     1  UNL1       -0.0862
     15 C         -20.0337  -10.9662  -10.7946 C.ar    1  UNL1        0.0325
     16 C         -21.3845   -6.3384   -9.9585 C.3     1  UNL1        0.1772
     17 C         -21.9039   -5.5753  -11.1841 C.3     1  UNL1        0.4121
     18 F         -20.8748   -4.8275  -11.7277 F       1  UNL1       -0.1685
     19 F         -22.3638   -6.4605  -12.1430 F       1  UNL1       -0.1685
     20 F         -22.9215   -4.7123  -10.8246 F       1  UNL1       -0.1685
     21 O         -27.1020   -8.4855  -11.5360 O.3     1  UNL1       -0.4707
     22 C         -24.3019   -8.4279  -14.7069 C.ar    1  UNL1       -0.0137
     23 C         -24.6735   -7.2321  -14.0593 C.ar    1  UNL1       -0.0005
     24 C         -25.5921   -7.2327  -13.0136 C.ar    1  UNL1        0.0366
     25 C         -26.1671   -8.4338  -12.5808 C.ar    1  UNL1        0.1387
     26 C         -25.8042   -9.6300  -13.2034 C.ar    1  UNL1        0.0324
     27 C         -24.8644   -9.6600  -14.2598 C.ar    1  UNL1       -0.0222
     28 C         -24.4719  -10.9741  -14.9278 C.3     1  UNL1        0.0262
     29 C         -25.2448  -12.2176  -14.4828 C.3     1  UNL1        0.0050
     30 C         -23.2811   -8.3509  -15.8423 C.3     1  UNL1        0.0970
     31 C         -24.6582   -5.8193  -18.8155 C.3     1  UNL1        0.0900
     32 C         -24.1701   -6.7122  -17.7650 C.1     1  UNL1       -0.0897
     33 C         -23.7692   -7.4491  -16.8992 C.1     1  UNL1       -0.0870
     34 C         -21.9048   -7.8739  -15.3415 C.3     1  UNL1        0.1267
     35 C         -20.7905   -8.4495  -16.1661 C.2     1  UNL1        0.3152
     36 O         -20.7198   -9.6938  -16.3460 O.2     1  UNL1       -0.2502
     37 O         -19.8531   -7.6163  -16.7690 O.3     1  UNL1       -0.4801
     38 H         -19.9002   -6.6104  -16.6596 H       1  UNL1        0.2951
@<TRIPOS>BOND
     1    31    32    1
     2    32    33    3
     3    33    30    1
     4    30    34    1
     5    34    35    1
     6    35    36    2
     7    35    37    1
     8    30    22    1
     9    22    23   ar
    10    23    24   ar
    11    24    25   ar
    12    25    21    1
    13    21     1    1
    14     1     2    1
    15     2     3   ar
    16     3     4   ar
    17     4     5   ar
    18     5     6   ar
    19     6     8    1
    20     8     9    1
    21     9    10    1
    22    10    11    1
    23    11    12   ar
    24    12    13   ar
    25    13    14   ar
    26    14    15   ar
    27     9    16    1
    28    16    17    1
    29    17    18    1
    30    17    19    1
    31    17    20    1
    32     6     7   ar
    33    25    26   ar
    34    26    27   ar
    35    27    28    1
    36    28    29    1
    37    27    22   ar
    38     7     2   ar
    39    15    11   ar
    40    37    38    1
@<TRIPOS>MOLECULE
*****
 38 40 0 0 0
SMALL
GASTEIGER

@<TRIPOS>ATOM
      1 C         -20.6411   -8.1678  -16.0119 C.3     1  UNL1        0.2320
      2 C         -21.5240   -9.2204  -16.6151 C.ar    1  UNL1        0.0209
      3 C         -22.6069   -8.8540  -17.4281 C.ar    1  UNL1       -0.0007
      4 C         -23.4572   -9.8317  -17.9486 C.ar    1  UNL1       -0.0005
      5 C         -23.2368  -11.1802  -17.6593 C.ar    1  UNL1       -0.0029
      6 C         -22.1525  -11.5660  -16.8534 C.ar    1  UNL1       -0.0063
      7 C         -21.3165  -10.5752  -16.3104 C.ar    1  UNL1       -0.0036
      8 C         -21.9406  -13.0167  -16.4992 C.3     1  UNL1        0.0996
      9 N         -22.6280  -13.3557  -15.2245 N.3     1  UNL1       -0.2579
     10 C         -21.6714  -13.3582  -14.0939 C.3     1  UNL1        0.1001
     11 C         -22.0504  -12.3118  -13.0852 C.ar    1  UNL1        0.0009
     12 C         -23.3631  -11.8385  -12.9342 C.ar    1  UNL1        0.0046
     13 C         -23.4889  -10.8515  -11.9673 C.ar    1  UNL1        0.0352
     14 S         -21.9691  -10.5725  -11.3070 S.2     1  UNL1       -0.0862
     15 C         -21.1361  -11.6979  -12.2353 C.ar    1  UNL1        0.0325
     16 C         -23.3325  -14.6597  -15.2969 C.3     1  UNL1        0.1772
     17 C         -24.8569  -14.5009  -15.3672 C.3     1  UNL1        0.4121
     18 F         -25.1646  -13.2232  -15.7988 F       1  UNL1       -0.1685
     19 F         -25.3952  -15.4122  -16.2586 F       1  UNL1       -0.1685
     20 F         -25.4231  -14.6835  -14.1200 F       1  UNL1       -0.1685
     21 O         -20.8369   -8.1467  -14.6008 O.3     1  UNL1       -0.4707
     22 C         -24.4591   -7.1742  -12.6431 C.ar    1  UNL1       -0.0137
     23 C         -24.4610   -8.0171  -13.7731 C.ar    1  UNL1       -0.0005
     24 C         -23.2787   -8.3486  -14.4286 C.ar    1  UNL1        0.0366
     25 C         -22.0541   -7.8471  -13.9708 C.ar    1  UNL1        0.1387
     26 C         -22.0307   -7.0183  -12.8470 C.ar    1  UNL1        0.0324
     27 C         -23.2153   -6.6755  -12.1547 C.ar    1  UNL1       -0.0222
     28 C         -23.1758   -5.7738  -10.9247 C.3     1  UNL1        0.0262
     29 C         -21.8284   -5.1228  -10.6050 C.3     1  UNL1        0.0050
     30 C         -25.7953   -6.8603  -11.9701 C.3     1  UNL1        0.0970
     31 C         -28.3545   -5.0603  -14.6823 C.3     1  UNL1        0.0900
     32 C         -27.4521   -5.6961  -13.7229 C.1     1  UNL1       -0.0897
     33 C         -26.7071   -6.2204  -12.9332 C.1     1  UNL1       -0.0870
     34 C         -26.4528   -8.1258  -11.3881 C.3     1  UNL1        0.1267
     35 C         -26.0129   -8.3729   -9.9745 C.2     1  UNL1        0.3152
     36 O         -24.8039   -8.6232   -9.7271 O.2     1  UNL1       -0.2502
     37 O         -26.9233   -8.2892   -8.9253 O.3     1  UNL1       -0.4801
     38 H         -27.8970   -8.0666   -9.0940 H       1  UNL1        0.2951
@<TRIPOS>BOND
     1    31    32    1
     2    32    33    3
     3    33    30    1
     4    30    34    1
     5    34    35    1
     6    35    36    2
     7    35    37    1
     8    30    22    1
     9    22    23   ar
    10    23    24   ar
    11    24    25   ar
    12    25    21    1
    13    21     1    1
    14     1     2    1
    15     2     3   ar
    16     3     4   ar
    17     4     5   ar
    18     5     6   ar
    19     6     8    1
    20     8     9    1
    21     9    10    1
    22    10    11    1
    23    11    12   ar
    24    12    13   ar
    25    13    14   ar
    26    14    15   ar
    27     9    16    1
    28    16    17    1
    29    17    18    1
    30    17    19    1
    31    17    20    1
    32     6     7   ar
    33    25    26   ar
    34    26    27   ar
    35    27    28    1
    36    28    29    1
    37    27    22   ar
    38     7     2   ar
    39    15    11   ar
    40    37    38    1
@<TRIPOS>MOLECULE
*****
 38 40 0 0 0
SMALL
GASTEIGER

@<TRIPOS>ATOM
      1 C         -26.5634   -7.8330  -10.9545 C.3     1  UNL1        0.2320
      2 C         -25.6250   -8.6485  -10.1143 C.ar    1  UNL1        0.0209
      3 C         -26.0684   -9.8321   -9.5055 C.ar    1  UNL1       -0.0007
      4 C         -25.2088  -10.5641   -8.6838 C.ar    1  UNL1       -0.0005
      5 C         -23.9038  -10.1200   -8.4600 C.ar    1  UNL1       -0.0029
      6 C         -23.4404   -8.9412   -9.0679 C.ar    1  UNL1       -0.0063
      7 C         -24.3188   -8.1946   -9.8719 C.ar    1  UNL1       -0.0036
      8 C         -22.0478   -8.4330   -8.7892 C.3     1  UNL1        0.0996
      9 N         -21.4062   -7.9380  -10.0363 N.3     1  UNL1       -0.2579
     10 C         -20.1422   -8.6626  -10.3028 C.3     1  UNL1        0.1001
     11 C         -20.4266   -9.9998  -10.9250 C.ar    1  UNL1        0.0009
     12 C         -21.4639  -10.2063  -11.8477 C.ar    1  UNL1        0.0046
     13 C         -21.5720  -11.5217  -12.2752 C.ar    1  UNL1        0.0352
     14 S         -20.3797  -12.4198  -11.5037 S.2     1  UNL1       -0.0862
     15 C         -19.7126  -11.1547  -10.6224 C.ar    1  UNL1        0.0325
     16 C         -21.1547   -6.4761   -9.9954 C.3     1  UNL1        0.1772
     17 C         -21.6263   -5.7628  -11.2693 C.3     1  UNL1        0.4121
     18 F         -20.9561   -4.5592  -11.3949 F       1  UNL1       -0.1685
     19 F         -21.3577   -6.5388  -12.3829 F       1  UNL1       -0.1685
     20 F         -22.9811   -5.4979  -11.2054 F       1  UNL1       -0.1685
     21 O         -25.8965   -7.4389  -12.1503 O.3     1  UNL1       -0.4707
     22 C         -23.8869  -10.0436  -14.8103 C.ar    1  UNL1       -0.0137
     23 C         -25.1320  -10.4070  -14.2578 C.ar    1  UNL1       -0.0005
     24 C         -25.8076   -9.5619  -13.3822 C.ar    1  UNL1        0.0366
     25 C         -25.2577   -8.3224  -13.0333 C.ar    1  UNL1        0.1387
     26 C         -24.0297   -7.9404  -13.5779 C.ar    1  UNL1        0.0324
     27 C         -23.3278   -8.7739  -14.4793 C.ar    1  UNL1       -0.0222
     28 C         -21.9899   -8.3425  -15.0720 C.3     1  UNL1        0.0262
     29 C         -22.0512   -7.5669  -16.3896 C.3     1  UNL1        0.0050
     30 C         -23.2072  -11.0193  -15.7709 C.3     1  UNL1        0.0970
     31 C         -24.3060  -14.9040  -14.8506 C.3     1  UNL1        0.0900
     32 C         -23.9167  -13.5326  -15.1773 C.1     1  UNL1       -0.0897
     33 C         -23.5969  -12.4016  -15.4455 C.1     1  UNL1       -0.0870
     34 C         -23.5538  -10.7097  -17.2395 C.3     1  UNL1        0.1267
     35 C         -22.8885  -11.6755  -18.1762 C.2     1  UNL1        0.3152
     36 O         -21.8189  -12.2459  -17.8356 O.2     1  UNL1       -0.2502
     37 O         -23.4641  -11.9784  -19.4065 O.3     1  UNL1       -0.4801
     38 H         -24.3360  -11.5514  -19.6955 H       1  UNL1        0.2951
@<TRIPOS>BOND
     1    31    32    1
     2    32    33    3
     3    33    30    1
     4    30    34    1
     5    34    35    1
     6    35    36    2
     7    35    37    1
     8    30    22    1
     9    22    23   ar
    10    23    24   ar
    11    24    25   ar
    12    25    21    1
    13    21     1    1
    14     1     2    1
    15     2     3   ar
    16     3     4   ar
    17     4     5   ar
    18     5     6   ar
    19     6     8    1
    20     8     9    1
    21     9    10    1
    22    10    11    1
    23    11    12   ar
    24    12    13   ar
    25    13    14   ar
    26    14    15   ar
    27     9    16    1
    28    16    17    1
    29    17    18    1
    30    17    19    1
    31    17    20    1
    32     6     7   ar
    33    25    26   ar
    34    26    27   ar
    35    27    28    1
    36    28    29    1
    37    27    22   ar
    38     7     2   ar
    39    15    11   ar
    40    37    38    1
@<TRIPOS>MOLECULE
*****
 38 40 0 0 0
SMALL
GASTEIGER

@<TRIPOS>ATOM
      1 C         -21.4131   -8.1671  -15.9398 C.3     1  UNL1        0.2320
      2 C         -22.0048   -9.5452  -15.9868 C.ar    1  UNL1        0.0209
      3 C         -21.2798  -10.6072  -16.5475 C.ar    1  UNL1       -0.0007
      4 C         -21.8506  -11.8785  -16.6356 C.ar    1  UNL1       -0.0005
      5 C         -23.1485  -12.0993  -16.1695 C.ar    1  UNL1       -0.0029
      6 C         -23.8863  -11.0492  -15.5977 C.ar    1  UNL1       -0.0063
      7 C         -23.3163   -9.7659  -15.5368 C.ar    1  UNL1       -0.0036
      8 C         -25.3055  -11.2729  -15.1384 C.3     1  UNL1        0.0996
      9 N         -25.3686  -11.3967  -13.6575 N.3     1  UNL1       -0.2579
     10 C         -24.6353  -10.2884  -13.0037 C.3     1  UNL1        0.1001
     11 C         -25.4309   -9.0168  -13.0811 C.ar    1  UNL1        0.0009
     12 C         -24.8724   -7.7908  -13.4750 C.ar    1  UNL1        0.0046
     13 C         -25.7740   -6.7367  -13.4480 C.ar    1  UNL1        0.0352
     14 S         -27.2583   -7.3337  -12.9341 S.2     1  UNL1       -0.0862
     15 C         -26.7774   -8.9319  -12.7422 C.ar    1  UNL1        0.0325
     16 C         -24.8470  -12.7018  -13.1812 C.3     1  UNL1        0.1772
     17 C         -25.7997  -13.8638  -13.4912 C.3     1  UNL1        0.4121
     18 F         -25.2103  -14.7040  -14.4188 F       1  UNL1       -0.1685
     19 F         -26.0656  -14.5878  -12.3424 F       1  UNL1       -0.1685
     20 F         -26.9835  -13.3929  -14.0262 F       1  UNL1       -0.1685
     21 O         -20.5709   -8.0595  -14.7957 O.3     1  UNL1       -0.4707
     22 C         -21.9649   -8.0868  -10.8014 C.ar    1  UNL1       -0.0137
     23 C         -21.5386   -9.2807  -11.4181 C.ar    1  UNL1       -0.0005
     24 C         -21.0758   -9.2899  -12.7307 C.ar    1  UNL1        0.0366
     25 C         -21.0230   -8.1008  -13.4682 C.ar    1  UNL1        0.1387
     26 C         -21.4319   -6.9063  -12.8713 C.ar    1  UNL1        0.0324
     27 C         -21.8947   -6.8660  -11.5356 C.ar    1  UNL1       -0.0222
     28 C         -22.3330   -5.5537  -10.8931 C.3     1  UNL1        0.0262
     29 C         -21.2263   -4.7045  -10.2641 C.3     1  UNL1        0.0050
     30 C         -22.4531   -8.1523   -9.3542 C.3     1  UNL1        0.0970
     31 C         -26.1001  -10.1048   -9.1711 C.3     1  UNL1        0.0900
     32 C         -24.8127   -9.4139   -9.2373 C.1     1  UNL1       -0.0897
     33 C         -23.7510   -8.8452   -9.2905 C.1     1  UNL1       -0.0870
     34 C         -21.4361   -8.8608   -8.4398 C.3     1  UNL1        0.1267
     35 C         -20.1571   -8.0826   -8.3341 C.2     1  UNL1        0.3152
     36 O         -20.0980   -7.0684   -7.5901 O.2     1  UNL1       -0.2502
     37 O         -19.0195   -8.4942   -9.0219 O.3     1  UNL1       -0.4801
     38 H         -19.0330   -9.3195   -9.6090 H       1  UNL1        0.2951
@<TRIPOS>BOND
     1    31    32    1
     2    32    33    3
     3    33    30    1
     4    30    34    1
     5    34    35    1
     6    35    36    2
     7    35    37    1
     8    30    22    1
     9    22    23   ar
    10    23    24   ar
    11    24    25   ar
    12    25    21    1
    13    21     1    1
    14     1     2    1
    15     2     3   ar
    16     3     4   ar
    17     4     5   ar
    18     5     6   ar
    19     6     8    1
    20     8     9    1
    21     9    10    1
    22    10    11    1
    23    11    12   ar
    24    12    13   ar
    25    13    14   ar
    26    14    15   ar
    27     9    16    1
    28    16    17    1
    29    17    18    1
    30    17    19    1
    31    17    20    1
    32     6     7   ar
    33    25    26   ar
    34    26    27   ar
    35    27    28    1
    36    28    29    1
    37    27    22   ar
    38     7     2   ar
    39    15    11   ar
    40    37    38    1
@<TRIPOS>MOLECULE
*****
 38 40 0 0 0
SMALL
GASTEIGER

@<TRIPOS>ATOM
      1 C         -21.4984   -7.9878  -16.4869 C.3     1  UNL1        0.2320
      2 C         -22.0708   -9.2815  -16.9872 C.ar    1  UNL1        0.0209
      3 C         -23.2103   -9.2810  -17.8053 C.ar    1  UNL1       -0.0007
      4 C         -23.7712  -10.4873  -18.2297 C.ar    1  UNL1       -0.0005
      5 C         -23.2031  -11.7017  -17.8387 C.ar    1  UNL1       -0.0029
      6 C         -22.0572  -11.7212  -17.0261 C.ar    1  UNL1       -0.0063
      7 C         -21.5136  -10.5042  -16.5800 C.ar    1  UNL1       -0.0036
      8 C         -21.4705  -13.0309  -16.5620 C.3     1  UNL1        0.0996
      9 N         -22.1289  -13.4913  -15.3103 N.3     1  UNL1       -0.2579
     10 C         -21.1431  -13.6211  -14.2126 C.3     1  UNL1        0.1001
     11 C         -21.4462  -12.6384  -13.1178 C.ar    1  UNL1        0.0009
     12 C         -22.5842  -11.8168  -13.1244 C.ar    1  UNL1        0.0046
     13 C         -22.6565  -10.9610  -12.0348 C.ar    1  UNL1        0.0352
     14 S         -21.3063  -11.2293  -11.0712 S.2     1  UNL1       -0.0862
     15 C         -20.6168  -12.4319  -12.0203 C.ar    1  UNL1        0.0325
     16 C         -22.8535  -14.7728  -15.4965 C.3     1  UNL1        0.1772
     17 C         -24.3735  -14.6133  -15.3614 C.3     1  UNL1        0.4121
     18 F         -24.7563  -14.9476  -14.0748 F       1  UNL1       -0.1685
     19 F         -24.7439  -13.3033  -15.6084 F       1  UNL1       -0.1685
     20 F         -25.0308  -15.4538  -16.2395 F       1  UNL1       -0.1685
     21 O         -20.7814   -8.2304  -15.2799 O.3     1  UNL1       -0.4707
     22 C         -22.3817   -7.4728  -11.4376 C.ar    1  UNL1       -0.0137
     23 C         -21.0044   -7.7250  -11.6016 C.ar    1  UNL1       -0.0005
     24 C         -20.4607   -7.9748  -12.8582 C.ar    1  UNL1        0.0366
     25 C         -21.2806   -7.9777  -13.9933 C.ar    1  UNL1        0.1387
     26 C         -22.6459   -7.7203  -13.8524 C.ar    1  UNL1        0.0324
     27 C         -23.2226   -7.4513  -12.5894 C.ar    1  UNL1       -0.0222
     28 C         -24.7146   -7.1659  -12.4495 C.3     1  UNL1        0.0262
     29 C         -25.6614   -8.3026  -12.8407 C.3     1  UNL1        0.0050
     30 C         -22.9061   -7.1987  -10.0280 C.3     1  UNL1        0.0970
     31 C         -24.8083  -10.5630   -8.5417 C.3     1  UNL1        0.0900
     32 C         -24.1346   -9.3755   -9.0661 C.1     1  UNL1       -0.0897
     33 C         -23.5806   -8.3961   -9.4990 C.1     1  UNL1       -0.0870
     34 C         -21.7774   -6.7686   -9.0723 C.3     1  UNL1        0.1267
     35 C         -21.6171   -5.2764   -9.0478 C.2     1  UNL1        0.3152
     36 O         -20.9949   -4.6958   -9.9759 O.2     1  UNL1       -0.2502
     37 O         -22.1848   -4.5205   -8.0267 O.3     1  UNL1       -0.4801
     38 H         -22.7100   -4.9599   -7.2803 H       1  UNL1        0.2951
@<TRIPOS>BOND
     1    31    32    1
     2    32    33    3
     3    33    30    1
     4    30    34    1
     5    34    35    1
     6    35    36    2
     7    35    37    1
     8    30    22    1
     9    22    23   ar
    10    23    24   ar
    11    24    25   ar
    12    25    21    1
    13    21     1    1
    14     1     2    1
    15     2     3   ar
    16     3     4   ar
    17     4     5   ar
    18     5     6   ar
    19     6     8    1
    20     8     9    1
    21     9    10    1
    22    10    11    1
    23    11    12   ar
    24    12    13   ar
    25    13    14   ar
    26    14    15   ar
    27     9    16    1
    28    16    17    1
    29    17    18    1
    30    17    19    1
    31    17    20    1
    32     6     7   ar
    33    25    26   ar
    34    26    27   ar
    35    27    28    1
    36    28    29    1
    37    27    22   ar
    38     7     2   ar
    39    15    11   ar
    40    37    38    1
@<TRIPOS>MOLECULE
*****
 38 40 0 0 0
SMALL
GASTEIGER

@<TRIPOS>ATOM
      1 C         -22.9013   -7.4770  -16.8185 C.3     1  UNL1        0.2320
      2 C         -22.9789   -8.9695  -16.6851 C.ar    1  UNL1        0.0209
      3 C         -23.1812   -9.7710  -17.8186 C.ar    1  UNL1       -0.0007
      4 C         -23.3026  -11.1558  -17.6872 C.ar    1  UNL1       -0.0005
      5 C         -23.2274  -11.7508  -16.4260 C.ar    1  UNL1       -0.0029
      6 C         -23.0172  -10.9645  -15.2808 C.ar    1  UNL1       -0.0063
      7 C         -22.9230   -9.5688  -15.4167 C.ar    1  UNL1       -0.0036
      8 C         -22.9845  -11.5987  -13.9127 C.3     1  UNL1        0.0996
      9 N         -24.3509  -11.6678  -13.3291 N.3     1  UNL1       -0.2579
     10 C         -24.4183  -10.9178  -12.0538 C.3     1  UNL1        0.1001
     11 C         -24.5660   -9.4467  -12.3188 C.ar    1  UNL1        0.0009
     12 C         -25.6248   -8.9094  -13.0671 C.ar    1  UNL1        0.0046
     13 C         -25.5545   -7.5320  -13.2175 C.ar    1  UNL1        0.0352
     14 S         -24.1773   -6.9907  -12.4212 S.2     1  UNL1       -0.0862
     15 C         -23.6564   -8.4919  -11.8760 C.ar    1  UNL1        0.0325
     16 C         -24.8014  -13.0662  -13.1206 C.3     1  UNL1        0.1772
     17 C         -25.8324  -13.5134  -14.1652 C.3     1  UNL1        0.4121
     18 F         -25.2989  -14.5389  -14.9251 F       1  UNL1       -0.1685
     19 F         -26.9799  -13.9724  -13.5432 F       1  UNL1       -0.1685
     20 F         -26.1510  -12.4691  -15.0123 F       1  UNL1       -0.1685
     21 O         -23.6079   -7.0756  -17.9887 O.3     1  UNL1       -0.4707
     22 C         -26.7590   -4.2530  -17.9358 C.ar    1  UNL1       -0.0137
     23 C         -26.2890   -4.7773  -19.1572 C.ar    1  UNL1       -0.0005
     24 C         -25.2543   -5.7075  -19.1931 C.ar    1  UNL1        0.0366
     25 C         -24.6577   -6.1450  -18.0043 C.ar    1  UNL1        0.1387
     26 C         -25.1161   -5.6445  -16.7837 C.ar    1  UNL1        0.0324
     27 C         -26.1737   -4.7080  -16.7173 C.ar    1  UNL1       -0.0222
     28 C         -26.6693   -4.1733  -15.3772 C.3     1  UNL1        0.0262
     29 C         -27.5226   -5.1287  -14.5403 C.3     1  UNL1        0.0050
     30 C         -27.9041   -3.2410  -17.9737 C.3     1  UNL1        0.0970
     31 C         -27.9192   -1.2496  -21.6041 C.3     1  UNL1        0.0900
     32 C         -27.9150   -1.9545  -20.3226 C.1     1  UNL1       -0.0897
     33 C         -27.9104   -2.5345  -19.2657 C.1     1  UNL1       -0.0870
     34 C         -29.2693   -3.9142  -17.7385 C.3     1  UNL1        0.1267
     35 C         -30.2054   -3.0110  -16.9896 C.2     1  UNL1        0.3152
     36 O         -30.9335   -2.1991  -17.6190 O.2     1  UNL1       -0.2502
     37 O         -30.3064   -3.0889  -15.6038 O.3     1  UNL1       -0.4801
     38 H         -29.7494   -3.7492  -15.0749 H       1  UNL1        0.2951
@<TRIPOS>BOND
     1    31    32    1
     2    32    33    3
     3    33    30    1
     4    30    34    1
     5    34    35    1
     6    35    36    2
     7    35    37    1
     8    30    22    1
     9    22    23   ar
    10    23    24   ar
    11    24    25   ar
    12    25    21    1
    13    21     1    1
    14     1     2    1
    15     2     3   ar
    16     3     4   ar
    17     4     5   ar
    18     5     6   ar
    19     6     8    1
    20     8     9    1
    21     9    10    1
    22    10    11    1
    23    11    12   ar
    24    12    13   ar
    25    13    14   ar
    26    14    15   ar
    27     9    16    1
    28    16    17    1
    29    17    18    1
    30    17    19    1
    31    17    20    1
    32     6     7   ar
    33    25    26   ar
    34    26    27   ar
    35    27    28    1
    36    28    29    1
    37    27    22   ar
    38     7     2   ar
    39    15    11   ar
    40    37    38    1
@<TRIPOS>MOLECULE
*****
 38 40 0 0 0
SMALL
GASTEIGER

@<TRIPOS>ATOM
      1 C         -20.3675  -13.7249  -13.7296 C.3     1  UNL1        0.2320
      2 C         -21.7403  -13.7316  -14.3351 C.ar    1  UNL1        0.0209
      3 C         -22.4012  -14.9456  -14.5750 C.ar    1  UNL1       -0.0007
      4 C         -23.6579  -14.9531  -15.1838 C.ar    1  UNL1       -0.0005
      5 C         -24.2624  -13.7520  -15.5612 C.ar    1  UNL1       -0.0029
      6 C         -23.6187  -12.5265  -15.3215 C.ar    1  UNL1       -0.0063
      7 C         -22.3422  -12.5273  -14.7331 C.ar    1  UNL1       -0.0036
      8 C         -24.2468  -11.2313  -15.7720 C.3     1  UNL1        0.0996
      9 N         -23.7675  -10.0942  -14.9416 N.3     1  UNL1       -0.2579
     10 C         -24.9004   -9.4180  -14.2687 C.3     1  UNL1        0.1001
     11 C         -24.7148   -9.4437  -12.7784 C.ar    1  UNL1        0.0009
     12 C         -24.6788  -10.6337  -12.0349 C.ar    1  UNL1        0.0046
     13 C         -24.5296  -10.4309  -10.6706 C.ar    1  UNL1        0.0352
     14 S         -24.4446   -8.7752  -10.3964 S.2     1  UNL1       -0.0862
     15 C         -24.5935   -8.2972  -12.0000 C.ar    1  UNL1        0.0325
     16 C         -22.9872   -9.1114  -15.7336 C.3     1  UNL1        0.1772
     17 C         -21.8453   -8.4802  -14.9262 C.3     1  UNL1        0.4121
     18 F         -21.3642   -9.4032  -14.0152 F       1  UNL1       -0.1685
     19 F         -20.8118   -8.1053  -15.7663 F       1  UNL1       -0.1685
     20 F         -22.2962   -7.3773  -14.2263 F       1  UNL1       -0.1685
     21 O         -20.4817  -13.5943  -12.3154 O.3     1  UNL1       -0.4707
     22 C         -19.9974   -9.9786  -10.1730 C.ar    1  UNL1       -0.0137
     23 C         -21.1016  -10.1591  -11.0306 C.ar    1  UNL1       -0.0005
     24 C         -21.2774  -11.3425  -11.7420 C.ar    1  UNL1        0.0366
     25 C         -20.3520  -12.3857  -11.6149 C.ar    1  UNL1        0.1387
     26 C         -19.2568  -12.2294  -10.7627 C.ar    1  UNL1        0.0324
     27 C         -19.0604  -11.0428  -10.0187 C.ar    1  UNL1       -0.0222
     28 C         -17.8629  -10.8867   -9.0865 C.3     1  UNL1        0.0262
     29 C         -17.0665  -12.1587   -8.7880 C.3     1  UNL1        0.0050
     30 C         -19.8743   -8.6551   -9.4178 C.3     1  UNL1        0.0970
     31 C         -21.8612   -5.6630  -11.4782 C.3     1  UNL1        0.0900
     32 C         -21.1589   -6.7185  -10.7490 C.1     1  UNL1       -0.0897
     33 C         -20.5805   -7.5896  -10.1488 C.1     1  UNL1       -0.0870
     34 C         -20.4278   -8.7618   -7.9843 C.3     1  UNL1        0.1267
     35 C         -19.4462   -8.2394   -6.9762 C.2     1  UNL1        0.3152
     36 O         -19.3297   -8.8084   -5.8589 O.2     1  UNL1       -0.2502
     37 O         -18.6318   -7.1523   -7.2789 O.3     1  UNL1       -0.4801
     38 H         -18.6886   -6.6906   -8.1787 H       1  UNL1        0.2951
@<TRIPOS>BOND
     1    31    32    1
     2    32    33    3
     3    33    30    1
     4    30    34    1
     5    34    35    1
     6    35    36    2
     7    35    37    1
     8    30    22    1
     9    22    23   ar
    10    23    24   ar
    11    24    25   ar
    12    25    21    1
    13    21     1    1
    14     1     2    1
    15     2     3   ar
    16     3     4   ar
    17     4     5   ar
    18     5     6   ar
    19     6     8    1
    20     8     9    1
    21     9    10    1
    22    10    11    1
    23    11    12   ar
    24    12    13   ar
    25    13    14   ar
    26    14    15   ar
    27     9    16    1
    28    16    17    1
    29    17    18    1
    30    17    19    1
    31    17    20    1
    32     6     7   ar
    33    25    26   ar
    34    26    27   ar
    35    27    28    1
    36    28    29    1
    37    27    22   ar
    38     7     2   ar
    39    15    11   ar
    40    37    38    1
@<TRIPOS>MOLECULE
*****
 38 40 0 0 0
SMALL
GASTEIGER

@<TRIPOS>ATOM
      1 C         -23.5724   -6.9774  -16.4232 C.3     1  UNL1        0.2320
      2 C         -22.5692   -8.0933  -16.4205 C.ar    1  UNL1        0.0209
      3 C         -21.1962   -7.8094  -16.3750 C.ar    1  UNL1       -0.0007
      4 C         -20.2623   -8.8464  -16.4224 C.ar    1  UNL1       -0.0005
      5 C         -20.6899  -10.1724  -16.5196 C.ar    1  UNL1       -0.0029
      6 C         -22.0611  -10.4758  -16.5584 C.ar    1  UNL1       -0.0063
      7 C         -22.9953   -9.4259  -16.5377 C.ar    1  UNL1       -0.0036
      8 C         -22.5250  -11.9027  -16.7126 C.3     1  UNL1        0.0996
      9 N         -22.9783  -12.4553  -15.4083 N.3     1  UNL1       -0.2579
     10 C         -21.9449  -13.3395  -14.8222 C.3     1  UNL1        0.1001
     11 C         -21.4232  -12.7567  -13.5399 C.ar    1  UNL1        0.0009
     12 C         -21.8042  -11.4913  -13.0670 C.ar    1  UNL1        0.0046
     13 C         -21.1817  -11.1323  -11.8802 C.ar    1  UNL1        0.0352
     14 S         -20.1615  -12.3881  -11.4266 S.2     1  UNL1       -0.0862
     15 C         -20.4975  -13.4000  -12.7248 C.ar    1  UNL1        0.0325
     16 C         -24.2648  -13.1855  -15.5254 C.3     1  UNL1        0.1772
     17 C         -25.3868  -12.5344  -14.7061 C.3     1  UNL1        0.4121
     18 F         -25.9699  -11.5244  -15.4501 F       1  UNL1       -0.1685
     19 F         -26.3566  -13.4693  -14.3899 F       1  UNL1       -0.1685
     20 F         -24.8825  -11.9797  -13.5454 F       1  UNL1       -0.1685
     21 O         -24.5340   -7.2119  -15.3983 O.3     1  UNL1       -0.4707
     22 C         -23.5729   -7.8084  -11.3217 C.ar    1  UNL1       -0.0137
     23 C         -24.0848   -8.8679  -12.0981 C.ar    1  UNL1       -0.0005
     24 C         -24.4051   -8.6899  -13.4409 C.ar    1  UNL1        0.0366
     25 C         -24.2202   -7.4430  -14.0506 C.ar    1  UNL1        0.1387
     26 C         -23.7050   -6.3836  -13.3004 C.ar    1  UNL1        0.0324
     27 C         -23.3597   -6.5399  -11.9380 C.ar    1  UNL1       -0.0222
     28 C         -22.7922   -5.3763  -11.1309 C.3     1  UNL1        0.0262
     29 C         -21.3372   -4.9989  -11.4176 C.3     1  UNL1        0.0050
     30 C         -23.2363   -8.0803   -9.8555 C.3     1  UNL1        0.0970
     31 C         -25.6626  -11.0952   -8.3828 C.3     1  UNL1        0.0900
     32 C         -24.8063  -10.0291   -8.9014 C.1     1  UNL1       -0.0897
     33 C         -24.0997   -9.1512   -9.3300 C.1     1  UNL1       -0.0870
     34 C         -21.7559   -8.4636   -9.6710 C.3     1  UNL1        0.1267
     35 C         -21.2051   -7.9234   -8.3835 C.2     1  UNL1        0.3152
     36 O         -21.3432   -8.5783   -7.3169 O.2     1  UNL1       -0.2502
     37 O         -20.5060   -6.7203   -8.3624 O.3     1  UNL1       -0.4801
     38 H         -20.3603   -6.1850   -9.2099 H       1  UNL1        0.2951
@<TRIPOS>BOND
     1    31    32    1
     2    32    33    3
     3    33    30    1
     4    30    34    1
     5    34    35    1
     6    35    36    2
     7    35    37    1
     8    30    22    1
     9    22    23   ar
    10    23    24   ar
    11    24    25   ar
    12    25    21    1
    13    21     1    1
    14     1     2    1
    15     2     3   ar
    16     3     4   ar
    17     4     5   ar
    18     5     6   ar
    19     6     8    1
    20     8     9    1
    21     9    10    1
    22    10    11    1
    23    11    12   ar
    24    12    13   ar
    25    13    14   ar
    26    14    15   ar
    27     9    16    1
    28    16    17    1
    29    17    18    1
    30    17    19    1
    31    17    20    1
    32     6     7   ar
    33    25    26   ar
    34    26    27   ar
    35    27    28    1
    36    28    29    1
    37    27    22   ar
    38     7     2   ar
    39    15    11   ar
    40    37    38    1
