@<TRIPOS>MOLECULE
*****
 49 54 0 0 0
SMALL
GASTEIGER

@<TRIPOS>ATOM
      1 O          14.8442   81.7269   24.7494 O.2     1  UNL1       -0.2699
      2 C          13.6260   81.9744   24.5350 C.2     1  UNL1        0.2513
      3 N          13.2562   83.2002   23.8834 N.am    1  UNL1       -0.2944
      4 H          12.2884   83.2774   23.4983 H       1  UNL1        0.1501
      5 C          12.5949   80.9901   24.9550 C.ar    1  UNL1        0.1144
      6 C          11.2934   81.4194   25.2916 C.ar    1  UNL1        0.1414
      7 O          10.9731   82.7776   25.2793 O.3     1  UNL1       -0.5052
      8 C          10.3151   80.4838   25.6563 C.ar    1  UNL1        0.0514
      9 C          10.6094   79.1117   25.6971 C.ar    1  UNL1        0.0532
     10 C          11.9044   78.6882   25.3597 C.ar    1  UNL1        0.0445
     11 C          12.8868   79.6108   24.9935 C.ar    1  UNL1        0.1486
     12 F          14.1064   79.1391   24.6332 F       1  UNL1       -0.2039
     13 H          10.0466   83.1091   25.5212 H       1  UNL1        0.2922
     14 N           9.5936   78.1524   26.0675 N.pl3   1  UNL1       -0.3039
     15 C           8.2844   78.6239   26.5456 C.3     1  UNL1        0.1122
     16 C           7.2067   77.5463   26.3909 C.3     1  UNL1        0.1122
     17 N           7.6495   76.2756   26.9832 N.pl3   1  UNL1       -0.3040
     18 C           9.0699   75.8958   26.9285 C.3     1  UNL1        0.1122
     19 C           9.8318   76.7137   25.8812 C.3     1  UNL1        0.1122
     20 C           6.6832   75.3578   27.5428 C.ar    1  UNL1        0.0488
     21 C           6.6179   74.0267   27.0932 C.ar    1  UNL1        0.0154
     22 C           5.6823   73.1404   27.6326 C.ar    1  UNL1        0.0135
     23 C           4.7960   73.5667   28.6260 C.ar    1  UNL1        0.0683
     24 CL          3.6331   72.4210   29.2795 Cl      1  UNL1       -0.0814
     25 C           4.8474   74.8937   29.0820 C.ar    1  UNL1        0.0694
     26 CL          3.7460   75.4729   30.3247 Cl      1  UNL1       -0.0813
     27 C           5.7856   75.7808   28.5412 C.ar    1  UNL1        0.0268
     28 C          14.2224   84.2838   23.6458 C.3     1  UNL1        0.1535
     29 C          14.7206   84.2775   22.2187 C.2     1  UNL1        0.2443
     30 O          15.8733   83.8384   21.9534 O.2     1  UNL1       -0.2730
     31 N          13.8374   84.6764   21.1581 N.am    1  UNL1       -0.2825
     32 H          12.8161   84.7370   21.3726 H       1  UNL1        0.1549
     33 C          14.2533   84.8782   19.7967 C.ar    1  UNL1        0.0535
     34 C          13.7492   85.9372   19.0224 C.ar    1  UNL1        0.0353
     35 C          14.1646   86.0792   17.6959 C.ar    1  UNL1        0.1002
     36 N          15.0393   85.1901   17.1554 N.ar    1  UNL1       -0.2422
     37 C          15.5286   84.1461   17.8751 C.ar    1  UNL1        0.1002
     38 C          15.1381   83.9669   19.2043 C.ar    1  UNL1        0.0353
     39 C          13.6344   85.6620   24.0206 C.3     1  UNL1        0.0569
     40 C          14.2625   86.7999   23.2622 C.ar    1  UNL1       -0.0017
     41 C          15.5927   87.2055   23.3265 C.ar    1  UNL1        0.0681
     42 N          15.8190   88.2242   22.4668 N.ar    1  UNL1       -0.3523
     43 C          14.6439   88.4687   21.8621 C.ar    1  UNL1        0.0563
     44 C          14.3823   89.4253   20.8821 C.ar    1  UNL1        0.0170
     45 C          13.0728   89.5073   20.3754 C.ar    1  UNL1        0.0015
     46 C          12.0637   88.6458   20.8586 C.ar    1  UNL1        0.0001
     47 C          12.3554   87.6923   21.8503 C.ar    1  UNL1        0.0012
     48 C          13.6666   87.6245   22.3252 C.ar    1  UNL1        0.0131
     49 H          16.7265   88.7147   22.3042 H       1  UNL1        0.1660
@<TRIPOS>BOND
     1     1     2    2
     2     2     3   am
     3     3    28    1
     4    28    39    1
     5    39    40    1
     6    40    41   ar
     7    41    42   ar
     8    42    43   ar
     9    43    44   ar
    10    44    45   ar
    11    45    46   ar
    12    46    47   ar
    13    47    48   ar
    14    28    29    1
    15    29    30    2
    16    29    31   am
    17    31    33    1
    18    33    34   ar
    19    34    35   ar
    20    35    36   ar
    21    36    37   ar
    22    37    38   ar
    23     2     5    1
    24     5     6   ar
    25     6     7    1
    26     6     8   ar
    27     8     9   ar
    28     9    14    1
    29    14    15    1
    30    15    16    1
    31    16    17    1
    32    17    20    1
    33    20    21   ar
    34    21    22   ar
    35    22    23   ar
    36    23    24    1
    37    23    25   ar
    38    25    26    1
    39    25    27   ar
    40    17    18    1
    41    18    19    1
    42     9    10   ar
    43    10    11   ar
    44    11    12    1
    45    48    40   ar
    46    38    33   ar
    47    11     5   ar
    48    48    43   ar
    49    19    14    1
    50    27    20   ar
    51     3     4    1
    52    42    49    1
    53    31    32    1
    54     7    13    1
@<TRIPOS>MOLECULE
*****
 49 54 0 0 0
SMALL
GASTEIGER

@<TRIPOS>ATOM
      1 O          10.4759   76.9600   24.4376 O.2     1  UNL1       -0.2699
      2 C           9.3696   77.5288   24.6473 C.2     1  UNL1        0.2513
      3 N           9.2834   78.5676   25.6360 N.am    1  UNL1       -0.2944
      4 H           8.4412   79.1853   25.6250 H       1  UNL1        0.1501
      5 C           8.1761   77.1182   23.8630 C.ar    1  UNL1        0.1144
      6 C           7.0166   76.6523   24.5189 C.ar    1  UNL1        0.1414
      7 O           6.9941   76.5274   25.9086 O.3     1  UNL1       -0.5052
      8 C           5.8820   76.2964   23.7765 C.ar    1  UNL1        0.0514
      9 C           5.8776   76.3923   22.3759 C.ar    1  UNL1        0.0532
     10 C           7.0319   76.8580   21.7270 C.ar    1  UNL1        0.0445
     11 C           8.1677   77.2167   22.4561 C.ar    1  UNL1        0.1486
     12 F           9.2369   77.7037   21.7783 F       1  UNL1       -0.2039
     13 H           6.1745   76.1912   26.4006 H       1  UNL1        0.2922
     14 N           4.7016   76.0300   21.6175 N.pl3   1  UNL1       -0.3039
     15 C           3.4612   76.8045   21.7804 C.3     1  UNL1        0.1122
     16 C           2.5284   76.6336   20.5774 C.3     1  UNL1        0.1122
     17 N           2.3218   75.2100   20.2742 N.pl3   1  UNL1       -0.3040
     18 C           3.4139   74.2476   20.4893 C.3     1  UNL1        0.1122
     19 C           4.7677   74.9521   20.6200 C.3     1  UNL1        0.1122
     20 C           1.0794   74.7642   19.6851 C.ar    1  UNL1        0.0488
     21 C           0.0778   75.6905   19.3430 C.ar    1  UNL1        0.0154
     22 C          -1.1239   75.2593   18.7757 C.ar    1  UNL1        0.0135
     23 C          -1.3474   73.8992   18.5429 C.ar    1  UNL1        0.0683
     24 CL         -2.8730   73.3964   17.8273 Cl      1  UNL1       -0.0814
     25 C          -0.3579   72.9629   18.8827 C.ar    1  UNL1        0.0694
     26 CL         -0.6014   71.2422   18.6134 Cl      1  UNL1       -0.0813
     27 C           0.8461   73.3961   19.4505 C.ar    1  UNL1        0.0268
     28 C          10.3828   78.8527   26.5710 C.3     1  UNL1        0.1535
     29 C          11.6532   79.2157   25.8366 C.2     1  UNL1        0.2443
     30 O          11.8080   80.3814   25.3795 O.2     1  UNL1       -0.2730
     31 N          12.7218   78.2590   25.7538 N.am    1  UNL1       -0.2825
     32 H          12.6859   77.4331   26.3936 H       1  UNL1        0.1549
     33 C          13.8926   78.4281   24.9366 C.ar    1  UNL1        0.0535
     34 C          14.2763   77.4614   23.9913 C.ar    1  UNL1        0.0353
     35 C          15.4355   77.6582   23.2366 C.ar    1  UNL1        0.1002
     36 N          16.1936   78.7703   23.4267 N.ar    1  UNL1       -0.2422
     37 C          15.8567   79.7124   24.3467 C.ar    1  UNL1        0.1002
     38 C          14.7062   79.5540   25.1231 C.ar    1  UNL1        0.0353
     39 C           9.9962   79.9521   27.5847 C.3     1  UNL1        0.0569
     40 C           9.4636   79.4021   28.8803 C.ar    1  UNL1       -0.0017
     41 C          10.1460   79.3242   30.0912 C.ar    1  UNL1        0.0681
     42 N           9.3405   78.8283   31.0573 N.ar    1  UNL1       -0.3523
     43 C           8.1566   78.5888   30.4679 C.ar    1  UNL1        0.0563
     44 C           7.0029   78.0844   31.0667 C.ar    1  UNL1        0.0170
     45 C           5.8623   77.9174   30.2607 C.ar    1  UNL1        0.0015
     46 C           5.9016   78.2480   28.8884 C.ar    1  UNL1        0.0001
     47 C           7.0805   78.7518   28.3102 C.ar    1  UNL1        0.0012
     48 C           8.1931   78.9197   29.1370 C.ar    1  UNL1        0.0131
     49 H           9.5901   78.6707   32.0590 H       1  UNL1        0.1660
@<TRIPOS>BOND
     1     1     2    2
     2     2     3   am
     3     3    28    1
     4    28    39    1
     5    39    40    1
     6    40    41   ar
     7    41    42   ar
     8    42    43   ar
     9    43    44   ar
    10    44    45   ar
    11    45    46   ar
    12    46    47   ar
    13    47    48   ar
    14    28    29    1
    15    29    30    2
    16    29    31   am
    17    31    33    1
    18    33    34   ar
    19    34    35   ar
    20    35    36   ar
    21    36    37   ar
    22    37    38   ar
    23     2     5    1
    24     5     6   ar
    25     6     7    1
    26     6     8   ar
    27     8     9   ar
    28     9    14    1
    29    14    15    1
    30    15    16    1
    31    16    17    1
    32    17    20    1
    33    20    21   ar
    34    21    22   ar
    35    22    23   ar
    36    23    24    1
    37    23    25   ar
    38    25    26    1
    39    25    27   ar
    40    17    18    1
    41    18    19    1
    42     9    10   ar
    43    10    11   ar
    44    11    12    1
    45    48    40   ar
    46    38    33   ar
    47    11     5   ar
    48    48    43   ar
    49    19    14    1
    50    27    20   ar
    51     3     4    1
    52    42    49    1
    53    31    32    1
    54     7    13    1
@<TRIPOS>MOLECULE
*****
 49 54 0 0 0
SMALL
GASTEIGER

@<TRIPOS>ATOM
      1 O          10.0281   76.6079   26.3292 O.2     1  UNL1       -0.2699
      2 C           8.8797   77.1019   26.4978 C.2     1  UNL1        0.2513
      3 N           8.6290   77.9385   27.6386 N.am    1  UNL1       -0.2944
      4 H           7.7664   78.5276   27.6337 H       1  UNL1        0.1501
      5 C           7.8077   76.8146   25.5095 C.ar    1  UNL1        0.1144
      6 C           8.1325   76.3260   24.2260 C.ar    1  UNL1        0.1414
      7 O           9.4661   76.1518   23.8539 O.3     1  UNL1       -0.5052
      8 C           7.1161   76.0262   23.3083 C.ar    1  UNL1        0.0514
      9 C           5.7651   76.2078   23.6439 C.ar    1  UNL1        0.0532
     10 C           5.4457   76.6921   24.9221 C.ar    1  UNL1        0.0445
     11 C           6.4496   76.9929   25.8452 C.ar    1  UNL1        0.1486
     12 F           6.0791   77.4132   27.0805 F       1  UNL1       -0.2039
     13 H           9.7230   75.8064   22.9366 H       1  UNL1        0.2922
     14 N           4.7223   75.8900   22.6948 N.pl3   1  UNL1       -0.3039
     15 C           3.3645   76.4190   22.8983 C.3     1  UNL1        0.1122
     16 C           2.5629   76.4306   21.5929 C.3     1  UNL1        0.1122
     17 N           2.6119   75.1153   20.9379 N.pl3   1  UNL1       -0.3040
     18 C           3.8262   74.2904   21.0376 C.3     1  UNL1        0.1122
     19 C           5.0351   75.1191   21.4827 C.3     1  UNL1        0.1122
     20 C           1.5048   74.6657   20.1247 C.ar    1  UNL1        0.0488
     21 C           0.7807   75.5776   19.3357 C.ar    1  UNL1        0.0154
     22 C          -0.2908   75.1433   18.5516 C.ar    1  UNL1        0.0135
     23 C          -0.6592   73.7948   18.5431 C.ar    1  UNL1        0.0683
     24 CL         -2.0137   73.2876   17.5429 Cl      1  UNL1       -0.0814
     25 C           0.0523   72.8738   19.3284 C.ar    1  UNL1        0.0694
     26 CL         -0.3827   71.1700   19.3524 Cl      1  UNL1       -0.0813
     27 C           1.1262   73.3100   20.1134 C.ar    1  UNL1        0.0268
     28 C           9.5954   78.0725   28.7396 C.3     1  UNL1        0.1535
     29 C           9.6575   79.4936   29.2510 C.2     1  UNL1        0.2443
     30 O          10.1387   80.4063   28.5249 O.2     1  UNL1       -0.2730
     31 N           9.0725   79.8150   30.5232 N.am    1  UNL1       -0.2825
     32 H           8.4234   79.1159   30.9506 H       1  UNL1        0.1549
     33 C           9.2274   81.0826   31.1837 C.ar    1  UNL1        0.0535
     34 C           9.8056   82.1859   30.5329 C.ar    1  UNL1        0.0353
     35 C           9.9572   83.3911   31.2233 C.ar    1  UNL1        0.1002
     36 N           9.5608   83.4899   32.5197 N.ar    1  UNL1       -0.2422
     37 C           9.0157   82.4342   33.1796 C.ar    1  UNL1        0.1002
     38 C           8.8474   81.2107   32.5267 C.ar    1  UNL1        0.0353
     39 C           9.2907   77.0843   29.8869 C.3     1  UNL1        0.0569
     40 C           7.8299   76.7412   30.0006 C.ar    1  UNL1       -0.0017
     41 C           6.8553   77.4750   30.6712 C.ar    1  UNL1        0.0681
     42 N           5.6408   76.9011   30.5167 N.ar    1  UNL1       -0.3523
     43 C           5.8389   75.8098   29.7577 C.ar    1  UNL1        0.0563
     44 C           4.8765   74.9016   29.3185 C.ar    1  UNL1        0.0170
     45 C           5.3033   73.8250   28.5204 C.ar    1  UNL1        0.0015
     46 C           6.6679   73.6778   28.1882 C.ar    1  UNL1        0.0001
     47 C           7.6176   74.6075   28.6482 C.ar    1  UNL1        0.0012
     48 C           7.1635   75.6734   29.4274 C.ar    1  UNL1        0.0131
     49 H           4.7340   77.2435   30.9052 H       1  UNL1        0.1660
@<TRIPOS>BOND
     1     1     2    2
     2     2     3   am
     3     3    28    1
     4    28    39    1
     5    39    40    1
     6    40    41   ar
     7    41    42   ar
     8    42    43   ar
     9    43    44   ar
    10    44    45   ar
    11    45    46   ar
    12    46    47   ar
    13    47    48   ar
    14    28    29    1
    15    29    30    2
    16    29    31   am
    17    31    33    1
    18    33    34   ar
    19    34    35   ar
    20    35    36   ar
    21    36    37   ar
    22    37    38   ar
    23     2     5    1
    24     5     6   ar
    25     6     7    1
    26     6     8   ar
    27     8     9   ar
    28     9    14    1
    29    14    15    1
    30    15    16    1
    31    16    17    1
    32    17    20    1
    33    20    21   ar
    34    21    22   ar
    35    22    23   ar
    36    23    24    1
    37    23    25   ar
    38    25    26    1
    39    25    27   ar
    40    17    18    1
    41    18    19    1
    42     9    10   ar
    43    10    11   ar
    44    11    12    1
    45    48    40   ar
    46    38    33   ar
    47    11     5   ar
    48    48    43   ar
    49    19    14    1
    50    27    20   ar
    51     3     4    1
    52    42    49    1
    53    31    32    1
    54     7    13    1
@<TRIPOS>MOLECULE
*****
 49 54 0 0 0
SMALL
GASTEIGER

@<TRIPOS>ATOM
      1 O          10.7842   76.8735   23.9460 O.2     1  UNL1       -0.2699
      2 C           9.6808   77.0508   24.5311 C.2     1  UNL1        0.2513
      3 N           9.6667   77.5054   25.8939 N.am    1  UNL1       -0.2944
      4 H           8.7688   77.8770   26.2769 H       1  UNL1        0.1501
      5 C           8.4144   76.7921   23.7978 C.ar    1  UNL1        0.1144
      6 C           8.3108   77.0951   22.4234 C.ar    1  UNL1        0.1414
      7 O           9.3803   77.6846   21.7481 O.3     1  UNL1       -0.5052
      8 C           7.1247   76.8197   21.7287 C.ar    1  UNL1        0.0514
      9 C           6.0233   76.2445   22.3822 C.ar    1  UNL1        0.0532
     10 C           6.1308   75.9426   23.7488 C.ar    1  UNL1        0.0445
     11 C           7.3077   76.2112   24.4510 C.ar    1  UNL1        0.1486
     12 F           7.3692   75.8553   25.7585 F       1  UNL1       -0.2039
     13 H           9.3271   77.9147   20.7627 H       1  UNL1        0.2922
     14 N           4.8060   75.9570   21.6578 N.pl3   1  UNL1       -0.3039
     15 C           3.5064   76.3306   22.2376 C.3     1  UNL1        0.1122
     16 C           2.4195   76.4357   21.1633 C.3     1  UNL1        0.1122
     17 N           2.3889   75.2246   20.3305 N.pl3   1  UNL1       -0.3040
     18 C           3.6385   74.5072   20.0321 C.3     1  UNL1        0.1122
     19 C           4.8677   75.3785   20.3077 C.3     1  UNL1        0.1122
     20 C           1.1491   74.7838   19.7324 C.ar    1  UNL1        0.0488
     21 C           0.1663   75.7166   19.3550 C.ar    1  UNL1        0.0154
     22 C          -1.0329   75.2903   18.7790 C.ar    1  UNL1        0.0135
     23 C          -1.2729   73.9287   18.5725 C.ar    1  UNL1        0.0683
     24 CL         -2.7948   73.4321   17.8449 Cl      1  UNL1       -0.0814
     25 C          -0.3023   72.9860   18.9476 C.ar    1  UNL1        0.0694
     26 CL         -0.5669   71.2634   18.7121 Cl      1  UNL1       -0.0813
     27 C           0.8994   73.4143   19.5241 C.ar    1  UNL1        0.0268
     28 C          10.8881   77.5686   26.7115 C.3     1  UNL1        0.1535
     29 C          11.9901   78.3217   26.0020 C.2     1  UNL1        0.2443
     30 O          11.8585   79.5523   25.7569 O.2     1  UNL1       -0.2730
     31 N          13.2261   77.6532   25.7028 N.am    1  UNL1       -0.2825
     32 H          13.4167   76.7449   26.1838 H       1  UNL1        0.1549
     33 C          14.2654   78.2117   24.8811 C.ar    1  UNL1        0.0535
     34 C          14.7724   79.5021   25.1114 C.ar    1  UNL1        0.0353
     35 C          15.7658   80.0120   24.2716 C.ar    1  UNL1        0.1002
     36 N          16.2274   79.2694   23.2308 N.ar    1  UNL1       -0.2422
     37 C          15.7423   78.0261   22.9734 C.ar    1  UNL1        0.1002
     38 C          14.7478   77.4793   23.7878 C.ar    1  UNL1        0.0353
     39 C          10.6094   78.1772   28.1035 C.3     1  UNL1        0.0569
     40 C           9.3212   77.6946   28.7137 C.ar    1  UNL1       -0.0017
     41 C           8.1820   78.4568   28.9571 C.ar    1  UNL1        0.0681
     42 N           7.1938   77.6834   29.4607 N.ar    1  UNL1       -0.3523
     43 C           7.6986   76.4404   29.5411 C.ar    1  UNL1        0.0563
     44 C           7.0468   75.2926   29.9899 C.ar    1  UNL1        0.0170
     45 C           7.7646   74.0830   29.9835 C.ar    1  UNL1        0.0015
     46 C           9.1048   74.0490   29.5400 C.ar    1  UNL1        0.0001
     47 C           9.7385   75.2234   29.0958 C.ar    1  UNL1        0.0012
     48 C           8.9975   76.4069   29.1006 C.ar    1  UNL1        0.0131
     49 H           6.2324   77.9925   29.7262 H       1  UNL1        0.1660
@<TRIPOS>BOND
     1     1     2    2
     2     2     3   am
     3     3    28    1
     4    28    39    1
     5    39    40    1
     6    40    41   ar
     7    41    42   ar
     8    42    43   ar
     9    43    44   ar
    10    44    45   ar
    11    45    46   ar
    12    46    47   ar
    13    47    48   ar
    14    28    29    1
    15    29    30    2
    16    29    31   am
    17    31    33    1
    18    33    34   ar
    19    34    35   ar
    20    35    36   ar
    21    36    37   ar
    22    37    38   ar
    23     2     5    1
    24     5     6   ar
    25     6     7    1
    26     6     8   ar
    27     8     9   ar
    28     9    14    1
    29    14    15    1
    30    15    16    1
    31    16    17    1
    32    17    20    1
    33    20    21   ar
    34    21    22   ar
    35    22    23   ar
    36    23    24    1
    37    23    25   ar
    38    25    26    1
    39    25    27   ar
    40    17    18    1
    41    18    19    1
    42     9    10   ar
    43    10    11   ar
    44    11    12    1
    45    48    40   ar
    46    38    33   ar
    47    11     5   ar
    48    48    43   ar
    49    19    14    1
    50    27    20   ar
    51     3     4    1
    52    42    49    1
    53    31    32    1
    54     7    13    1
@<TRIPOS>MOLECULE
*****
 49 54 0 0 0
SMALL
GASTEIGER

@<TRIPOS>ATOM
      1 O          14.8903   81.7139   24.5385 O.2     1  UNL1       -0.2699
      2 C          13.6599   81.9875   24.4867 C.2     1  UNL1        0.2513
      3 N          13.2396   83.2690   23.9916 N.am    1  UNL1       -0.2944
      4 H          12.2359   83.3866   23.7273 H       1  UNL1        0.1501
      5 C          12.6665   80.9765   24.9331 C.ar    1  UNL1        0.1144
      6 C          11.3690   81.3735   25.3211 C.ar    1  UNL1        0.1414
      7 O          11.0190   82.7244   25.3350 O.3     1  UNL1       -0.5052
      8 C          10.4253   80.4130   25.7110 C.ar    1  UNL1        0.0514
      9 C          10.7506   79.0474   25.7263 C.ar    1  UNL1        0.0532
     10 C          12.0414   78.6560   25.3378 C.ar    1  UNL1        0.0445
     11 C          12.9895   79.6037   24.9462 C.ar    1  UNL1        0.1486
     12 F          14.2052   79.1627   24.5370 F       1  UNL1       -0.2039
     13 H          10.0950   83.0329   25.6139 H       1  UNL1        0.2922
     14 N           9.7702   78.0622   26.1229 N.pl3   1  UNL1       -0.3039
     15 C           8.3377   78.3423   25.9367 C.3     1  UNL1        0.1122
     16 C           7.5103   77.0534   25.9116 C.3     1  UNL1        0.1122
     17 N           7.8194   76.2111   27.0762 N.pl3   1  UNL1       -0.3040
     18 C           9.1852   76.1871   27.6230 C.3     1  UNL1        0.1122
     19 C          10.2016   76.7493   26.6244 C.3     1  UNL1        0.1122
     20 C           6.8089   75.3409   27.6336 C.ar    1  UNL1        0.0488
     21 C           6.6820   74.0138   27.1853 C.ar    1  UNL1        0.0154
     22 C           5.7038   73.1735   27.7225 C.ar    1  UNL1        0.0135
     23 C           4.8354   73.6426   28.7124 C.ar    1  UNL1        0.0683
     24 CL          3.6173   72.5541   29.3633 Cl      1  UNL1       -0.0814
     25 C           4.9481   74.9662   29.1671 C.ar    1  UNL1        0.0694
     26 CL          3.8713   75.5985   30.4054 Cl      1  UNL1       -0.0813
     27 C           5.9291   75.8072   28.6285 C.ar    1  UNL1        0.0268
     28 C          14.1908   84.3630   23.7418 C.3     1  UNL1        0.1535
     29 C          14.5110   84.4922   22.2702 C.2     1  UNL1        0.2443
     30 O          15.4844   83.8588   21.7770 O.2     1  UNL1       -0.2730
     31 N          13.6405   85.2561   21.4200 N.am    1  UNL1       -0.2825
     32 H          12.6954   85.5060   21.7902 H       1  UNL1        0.1549
     33 C          13.9397   85.5920   20.0544 C.ar    1  UNL1        0.0535
     34 C          13.8044   86.9054   19.5729 C.ar    1  UNL1        0.0353
     35 C          14.0838   87.1795   18.2316 C.ar    1  UNL1        0.1002
     36 N          14.4699   86.1791   17.3963 N.ar    1  UNL1       -0.2422
     37 C          14.5911   84.8967   17.8301 C.ar    1  UNL1        0.1002
     38 C          14.3202   84.5793   19.1633 C.ar    1  UNL1        0.0353
     39 C          13.6802   85.7026   24.3167 C.3     1  UNL1        0.0569
     40 C          14.7901   86.6378   24.7143 C.ar    1  UNL1       -0.0017
     41 C          15.8178   87.1003   23.8971 C.ar    1  UNL1        0.0681
     42 N          16.6029   87.9709   24.5707 N.ar    1  UNL1       -0.3523
     43 C          16.0833   88.0606   25.8069 C.ar    1  UNL1        0.0563
     44 C          16.5435   88.8497   26.8602 C.ar    1  UNL1        0.0170
     45 C          15.8404   88.7978   28.0774 C.ar    1  UNL1        0.0015
     46 C          14.7100   87.9628   28.2154 C.ar    1  UNL1        0.0001
     47 C          14.2702   87.1748   27.1368 C.ar    1  UNL1        0.0012
     48 C          14.9793   87.2565   25.9367 C.ar    1  UNL1        0.0131
     49 H          17.4392   88.4742   24.1996 H       1  UNL1        0.1660
@<TRIPOS>BOND
     1     1     2    2
     2     2     3   am
     3     3    28    1
     4    28    39    1
     5    39    40    1
     6    40    41   ar
     7    41    42   ar
     8    42    43   ar
     9    43    44   ar
    10    44    45   ar
    11    45    46   ar
    12    46    47   ar
    13    47    48   ar
    14    28    29    1
    15    29    30    2
    16    29    31   am
    17    31    33    1
    18    33    34   ar
    19    34    35   ar
    20    35    36   ar
    21    36    37   ar
    22    37    38   ar
    23     2     5    1
    24     5     6   ar
    25     6     7    1
    26     6     8   ar
    27     8     9   ar
    28     9    14    1
    29    14    15    1
    30    15    16    1
    31    16    17    1
    32    17    20    1
    33    20    21   ar
    34    21    22   ar
    35    22    23   ar
    36    23    24    1
    37    23    25   ar
    38    25    26    1
    39    25    27   ar
    40    17    18    1
    41    18    19    1
    42     9    10   ar
    43    10    11   ar
    44    11    12    1
    45    48    40   ar
    46    38    33   ar
    47    11     5   ar
    48    48    43   ar
    49    19    14    1
    50    27    20   ar
    51     3     4    1
    52    42    49    1
    53    31    32    1
    54     7    13    1
@<TRIPOS>MOLECULE
*****
 49 54 0 0 0
SMALL
GASTEIGER

@<TRIPOS>ATOM
      1 O           9.2173   77.8554   26.2286 O.2     1  UNL1       -0.2699
      2 C           8.8671   76.6738   25.9593 C.2     1  UNL1        0.2513
      3 N           9.5750   75.5729   26.5516 N.am    1  UNL1       -0.2944
      4 H           9.1293   74.6289   26.5174 H       1  UNL1        0.1501
      5 C           7.7239   76.4418   25.0387 C.ar    1  UNL1        0.1144
      6 C           7.7496   76.9566   23.7249 C.ar    1  UNL1        0.1414
      7 O           8.8275   77.7292   23.2907 O.3     1  UNL1       -0.5052
      8 C           6.6830   76.7079   22.8498 C.ar    1  UNL1        0.0514
      9 C           5.5748   75.9503   23.2607 C.ar    1  UNL1        0.0532
     10 C           5.5537   75.4382   24.5675 C.ar    1  UNL1        0.0445
     11 C           6.6110   75.6782   25.4477 C.ar    1  UNL1        0.1486
     12 F           6.5564   75.1190   26.6823 F       1  UNL1       -0.2039
     13 H           8.8655   78.1126   22.3535 H       1  UNL1        0.2922
     14 N           4.4820   75.6923   22.3506 N.pl3   1  UNL1       -0.3039
     15 C           3.1813   76.3449   22.5686 C.3     1  UNL1        0.1122
     16 C           2.3471   76.3813   21.2843 C.3     1  UNL1        0.1122
     17 N           2.2635   75.0450   20.6773 N.pl3   1  UNL1       -0.3040
     18 C           3.4042   74.1209   20.7767 C.3     1  UNL1        0.1122
     19 C           4.6924   74.8555   21.1603 C.3     1  UNL1        0.1122
     20 C           1.0990   74.6661   19.9094 C.ar    1  UNL1        0.0488
     21 C           0.2138   75.6451   19.4234 C.ar    1  UNL1        0.0154
     22 C          -0.9129   75.2785   18.6832 C.ar    1  UNL1        0.0135
     23 C          -1.1767   73.9316   18.4180 C.ar    1  UNL1        0.0683
     24 CL         -2.6052   73.5109   17.4829 Cl      1  UNL1       -0.0814
     25 C          -0.3036   72.9433   18.8999 C.ar    1  UNL1        0.0694
     26 CL         -0.6022   71.2372   18.5951 Cl      1  UNL1       -0.0813
     27 C           0.8255   73.3116   19.6410 C.ar    1  UNL1        0.0268
     28 C          10.8321   75.7575   27.2931 C.3     1  UNL1        0.1535
     29 C          11.4316   77.1208   27.0344 C.2     1  UNL1        0.2443
     30 O          11.4016   78.0056   27.9334 O.2     1  UNL1       -0.2730
     31 N          12.1250   77.3674   25.8005 N.am    1  UNL1       -0.2825
     32 H          12.3953   76.5406   25.2208 H       1  UNL1        0.1549
     33 C          12.5754   78.6649   25.3751 C.ar    1  UNL1        0.0535
     34 C          13.9418   78.9898   25.3250 C.ar    1  UNL1        0.0353
     35 C          14.3309   80.2716   24.9279 C.ar    1  UNL1        0.1002
     36 N          13.3926   81.2011   24.6064 N.ar    1  UNL1       -0.2422
     37 C          12.0640   80.9204   24.6637 C.ar    1  UNL1        0.1002
     38 C          11.6321   79.6514   25.0568 C.ar    1  UNL1        0.0353
     39 C          10.6401   75.5156   28.8065 C.3     1  UNL1        0.0569
     40 C           9.2025   75.2964   29.1935 C.ar    1  UNL1       -0.0017
     41 C           8.5425   74.0734   29.2745 C.ar    1  UNL1        0.0681
     42 N           7.2741   74.2478   29.7092 N.ar    1  UNL1       -0.3523
     43 C           7.1250   75.5698   29.9005 C.ar    1  UNL1        0.0563
     44 C           5.9876   76.2327   30.3594 C.ar    1  UNL1        0.0170
     45 C           6.0508   77.6313   30.4950 C.ar    1  UNL1        0.0015
     46 C           7.2336   78.3291   30.1663 C.ar    1  UNL1        0.0001
     47 C           8.3651   77.6345   29.7022 C.ar    1  UNL1        0.0012
     48 C           8.2780   76.2455   29.5903 C.ar    1  UNL1        0.0131
     49 H           6.5602   73.5026   29.8685 H       1  UNL1        0.1660
@<TRIPOS>BOND
     1     1     2    2
     2     2     3   am
     3     3    28    1
     4    28    39    1
     5    39    40    1
     6    40    41   ar
     7    41    42   ar
     8    42    43   ar
     9    43    44   ar
    10    44    45   ar
    11    45    46   ar
    12    46    47   ar
    13    47    48   ar
    14    28    29    1
    15    29    30    2
    16    29    31   am
    17    31    33    1
    18    33    34   ar
    19    34    35   ar
    20    35    36   ar
    21    36    37   ar
    22    37    38   ar
    23     2     5    1
    24     5     6   ar
    25     6     7    1
    26     6     8   ar
    27     8     9   ar
    28     9    14    1
    29    14    15    1
    30    15    16    1
    31    16    17    1
    32    17    20    1
    33    20    21   ar
    34    21    22   ar
    35    22    23   ar
    36    23    24    1
    37    23    25   ar
    38    25    26    1
    39    25    27   ar
    40    17    18    1
    41    18    19    1
    42     9    10   ar
    43    10    11   ar
    44    11    12    1
    45    48    40   ar
    46    38    33   ar
    47    11     5   ar
    48    48    43   ar
    49    19    14    1
    50    27    20   ar
    51     3     4    1
    52    42    49    1
    53    31    32    1
    54     7    13    1
@<TRIPOS>MOLECULE
*****
 49 54 0 0 0
SMALL
GASTEIGER

@<TRIPOS>ATOM
      1 O          10.4519   74.7531   25.8452 O.2     1  UNL1       -0.2699
      2 C           9.7599   75.7455   25.4881 C.2     1  UNL1        0.2513
      3 N           8.3520   75.5801   25.2544 N.am    1  UNL1       -0.2944
      4 H           7.7601   76.4391   25.2023 H       1  UNL1        0.1501
      5 C          10.4126   77.0701   25.3214 C.ar    1  UNL1        0.1144
      6 C           9.8920   78.2093   25.9716 C.ar    1  UNL1        0.1414
      7 O           8.7314   78.1141   26.7406 O.3     1  UNL1       -0.5052
      8 C          10.5298   79.4504   25.8370 C.ar    1  UNL1        0.0514
      9 C          11.6884   79.5846   25.0557 C.ar    1  UNL1        0.0532
     10 C          12.2045   78.4490   24.4120 C.ar    1  UNL1        0.0445
     11 C          11.5786   77.2072   24.5398 C.ar    1  UNL1        0.1486
     12 F          12.1490   76.1366   23.9328 F       1  UNL1       -0.2039
     13 H           8.3372   78.9192   27.2130 H       1  UNL1        0.2922
     14 N          12.3443   80.8662   24.9271 N.pl3   1  UNL1       -0.3039
     15 C          11.5451   82.0706   24.6522 C.3     1  UNL1        0.1122
     16 C          12.2903   83.3460   25.0579 C.3     1  UNL1        0.1122
     17 N          13.6421   83.3676   24.4804 N.pl3   1  UNL1       -0.3040
     18 C          14.3895   82.1111   24.3141 C.3     1  UNL1        0.1122
     19 C          13.7910   80.9836   25.1607 C.3     1  UNL1        0.1122
     20 C          14.2742   84.6260   24.1546 C.ar    1  UNL1        0.0488
     21 C          14.8791   84.8182   22.8994 C.ar    1  UNL1        0.0154
     22 C          15.4921   86.0337   22.5856 C.ar    1  UNL1        0.0135
     23 C          15.5142   87.0753   23.5176 C.ar    1  UNL1        0.0683
     24 CL         16.2957   88.5899   23.0847 Cl      1  UNL1       -0.0814
     25 C          14.9175   86.8964   24.7758 C.ar    1  UNL1        0.0694
     26 CL         14.9293   88.1782   25.9799 Cl      1  UNL1       -0.0813
     27 C          14.3030   85.6782   25.0891 C.ar    1  UNL1        0.0268
     28 C           7.7165   74.2543   25.2043 C.3     1  UNL1        0.1535
     29 C           6.4753   74.2031   26.0655 C.2     1  UNL1        0.2443
     30 O           5.3987   74.7162   25.6540 O.2     1  UNL1       -0.2730
     31 N           6.5028   73.4782   27.3056 N.am    1  UNL1       -0.2825
     32 H           7.2984   72.8195   27.4665 H       1  UNL1        0.1549
     33 C           5.4470   73.5106   28.2810 C.ar    1  UNL1        0.0535
     34 C           5.2942   74.5927   29.1646 C.ar    1  UNL1        0.0353
     35 C           4.2674   74.5689   30.1119 C.ar    1  UNL1        0.1002
     36 N           3.4319   73.4993   30.1864 N.ar    1  UNL1       -0.2422
     37 C           3.5677   72.4310   29.3572 C.ar    1  UNL1        0.1002
     38 C           4.5819   72.4139   28.3966 C.ar    1  UNL1        0.0353
     39 C           7.4010   73.8297   23.7531 C.3     1  UNL1        0.0569
     40 C           8.4950   74.1822   22.7818 C.ar    1  UNL1       -0.0017
     41 C           8.5170   75.2733   21.9175 C.ar    1  UNL1        0.0681
     42 N           9.6814   75.3101   21.2312 N.ar    1  UNL1       -0.3523
     43 C          10.3942   74.2509   21.6511 C.ar    1  UNL1        0.0563
     44 C          11.6725   73.8771   21.2383 C.ar    1  UNL1        0.0170
     45 C          12.2410   72.7279   21.8168 C.ar    1  UNL1        0.0015
     46 C          11.5250   71.9825   22.7789 C.ar    1  UNL1        0.0001
     47 C          10.2354   72.3811   23.1740 C.ar    1  UNL1        0.0012
     48 C           9.7016   73.5331   22.5930 C.ar    1  UNL1        0.0131
     49 H           9.9674   76.0228   20.5236 H       1  UNL1        0.1660
@<TRIPOS>BOND
     1     1     2    2
     2     2     3   am
     3     3    28    1
     4    28    39    1
     5    39    40    1
     6    40    41   ar
     7    41    42   ar
     8    42    43   ar
     9    43    44   ar
    10    44    45   ar
    11    45    46   ar
    12    46    47   ar
    13    47    48   ar
    14    28    29    1
    15    29    30    2
    16    29    31   am
    17    31    33    1
    18    33    34   ar
    19    34    35   ar
    20    35    36   ar
    21    36    37   ar
    22    37    38   ar
    23     2     5    1
    24     5     6   ar
    25     6     7    1
    26     6     8   ar
    27     8     9   ar
    28     9    14    1
    29    14    15    1
    30    15    16    1
    31    16    17    1
    32    17    20    1
    33    20    21   ar
    34    21    22   ar
    35    22    23   ar
    36    23    24    1
    37    23    25   ar
    38    25    26    1
    39    25    27   ar
    40    17    18    1
    41    18    19    1
    42     9    10   ar
    43    10    11   ar
    44    11    12    1
    45    48    40   ar
    46    38    33   ar
    47    11     5   ar
    48    48    43   ar
    49    19    14    1
    50    27    20   ar
    51     3     4    1
    52    42    49    1
    53    31    32    1
    54     7    13    1
@<TRIPOS>MOLECULE
*****
 49 54 0 0 0
SMALL
GASTEIGER

@<TRIPOS>ATOM
      1 O           9.5438   76.4549   25.9504 O.2     1  UNL1       -0.2699
      2 C           9.1550   77.2388   25.0417 C.2     1  UNL1        0.2513
      3 N           9.8631   78.4683   24.8159 N.am    1  UNL1       -0.2944
      4 H           9.6870   78.9775   23.9212 H       1  UNL1        0.1501
      5 C           7.9744   76.8733   24.2164 C.ar    1  UNL1        0.1144
      6 C           6.7298   76.6107   24.8278 C.ar    1  UNL1        0.1414
      7 O           6.6049   76.6450   26.2172 O.3     1  UNL1       -0.5052
      8 C           5.6114   76.2976   24.0428 C.ar    1  UNL1        0.0514
      9 C           5.7070   76.2362   22.6435 C.ar    1  UNL1        0.0532
     10 C           6.9460   76.5000   22.0388 C.ar    1  UNL1        0.0445
     11 C           8.0668   76.8143   22.8104 C.ar    1  UNL1        0.1486
     12 F           9.2257   77.1050   22.1683 F       1  UNL1       -0.2039
     13 H           5.7226   76.4558   26.6781 H       1  UNL1        0.2922
     14 N           4.5478   75.9195   21.8402 N.pl3   1  UNL1       -0.3039
     15 C           3.2572   76.5609   22.1368 C.3     1  UNL1        0.1122
     16 C           2.3190   76.5251   20.9265 C.3     1  UNL1        0.1122
     17 N           2.2114   75.1611   20.3888 N.pl3   1  UNL1       -0.3040
     18 C           3.3742   74.2605   20.4337 C.3     1  UNL1        0.1122
     19 C           4.6752   75.0321   20.6751 C.3     1  UNL1        0.1122
     20 C           0.9950   74.7290   19.7386 C.ar    1  UNL1        0.0488
     21 C           0.0036   75.6619   19.3845 C.ar    1  UNL1        0.0154
     22 C          -1.1731   75.2438   18.7581 C.ar    1  UNL1        0.0135
     23 C          -1.3817   73.8904   18.4772 C.ar    1  UNL1        0.0683
     24 CL         -2.8759   73.4042   17.6880 Cl      1  UNL1       -0.0814
     25 C          -0.4023   72.9476   18.8282 C.ar    1  UNL1        0.0694
     26 CL         -0.6279   71.2347   18.4996 Cl      1  UNL1       -0.0813
     27 C           0.7767   73.3676   19.4553 C.ar    1  UNL1        0.0268
     28 C          10.8963   78.9587   25.7412 C.3     1  UNL1        0.1535
     29 C          10.2851   79.5314   26.9995 C.2     1  UNL1        0.2443
     30 O          10.1717   80.7807   27.1352 O.2     1  UNL1       -0.2730
     31 N           9.7415   78.6445   27.9904 N.am    1  UNL1       -0.2825
     32 H           9.5750   77.6502   27.7142 H       1  UNL1        0.1549
     33 C           9.3012   79.0649   29.2929 C.ar    1  UNL1        0.0535
     34 C           8.0973   78.5992   29.8487 C.ar    1  UNL1        0.0353
     35 C           7.6985   79.0545   31.1081 C.ar    1  UNL1        0.1002
     36 N           8.4636   79.9523   31.7833 N.ar    1  UNL1       -0.2422
     37 C           9.6230   80.4337   31.2622 C.ar    1  UNL1        0.1002
     38 C          10.0574   80.0055   30.0055 C.ar    1  UNL1        0.0353
     39 C          11.9266   77.8582   26.0778 C.3     1  UNL1        0.0569
     40 C          12.8769   77.5708   24.9470 C.ar    1  UNL1       -0.0017
     41 C          12.7047   76.6270   23.9383 C.ar    1  UNL1        0.0681
     42 N          13.7298   76.6822   23.0584 N.ar    1  UNL1       -0.3523
     43 C          14.5501   77.6495   23.5032 C.ar    1  UNL1        0.0563
     44 C          15.7388   78.0829   22.9175 C.ar    1  UNL1        0.0170
     45 C          16.4433   79.1229   23.5502 C.ar    1  UNL1        0.0015
     46 C          15.9533   79.6957   24.7443 C.ar    1  UNL1        0.0001
     47 C          14.7527   79.2361   25.3148 C.ar    1  UNL1        0.0012
     48 C          14.0678   78.2119   24.6579 C.ar    1  UNL1        0.0131
     49 H          13.8522   76.0944   22.2040 H       1  UNL1        0.1660
@<TRIPOS>BOND
     1     1     2    2
     2     2     3   am
     3     3    28    1
     4    28    39    1
     5    39    40    1
     6    40    41   ar
     7    41    42   ar
     8    42    43   ar
     9    43    44   ar
    10    44    45   ar
    11    45    46   ar
    12    46    47   ar
    13    47    48   ar
    14    28    29    1
    15    29    30    2
    16    29    31   am
    17    31    33    1
    18    33    34   ar
    19    34    35   ar
    20    35    36   ar
    21    36    37   ar
    22    37    38   ar
    23     2     5    1
    24     5     6   ar
    25     6     7    1
    26     6     8   ar
    27     8     9   ar
    28     9    14    1
    29    14    15    1
    30    15    16    1
    31    16    17    1
    32    17    20    1
    33    20    21   ar
    34    21    22   ar
    35    22    23   ar
    36    23    24    1
    37    23    25   ar
    38    25    26    1
    39    25    27   ar
    40    17    18    1
    41    18    19    1
    42     9    10   ar
    43    10    11   ar
    44    11    12    1
    45    48    40   ar
    46    38    33   ar
    47    11     5   ar
    48    48    43   ar
    49    19    14    1
    50    27    20   ar
    51     3     4    1
    52    42    49    1
    53    31    32    1
    54     7    13    1
@<TRIPOS>MOLECULE
*****
 49 54 0 0 0
SMALL
GASTEIGER

@<TRIPOS>ATOM
      1 O          10.4711   74.6679   25.7029 O.2     1  UNL1       -0.2699
      2 C           9.7857   75.6996   25.4640 C.2     1  UNL1        0.2513
      3 N           8.3619   75.5842   25.3105 N.am    1  UNL1       -0.2944
      4 H           7.7917   76.4580   25.3591 H       1  UNL1        0.1501
      5 C          10.4628   77.0176   25.3517 C.ar    1  UNL1        0.1144
      6 C          11.6169   77.1613   24.5523 C.ar    1  UNL1        0.1414
      7 O          12.1626   76.0574   23.8958 O.3     1  UNL1       -0.5052
      8 C          12.2336   78.4137   24.4241 C.ar    1  UNL1        0.0514
      9 C          11.7214   79.5408   25.0860 C.ar    1  UNL1        0.0532
     10 C          10.5723   79.3945   25.8787 C.ar    1  UNL1        0.0445
     11 C           9.9485   78.1522   26.0129 C.ar    1  UNL1        0.1486
     12 F           8.8149   78.0812   26.7544 F       1  UNL1       -0.2039
     13 H          12.9928   76.1360   23.3201 H       1  UNL1        0.2922
     14 N          12.3588   80.8303   24.9435 N.pl3   1  UNL1       -0.3039
     15 C          11.5472   82.0132   24.6165 C.3     1  UNL1        0.1122
     16 C          12.2589   83.3111   25.0105 C.3     1  UNL1        0.1122
     17 N          13.6258   83.3425   24.4702 N.pl3   1  UNL1       -0.3040
     18 C          14.3988   82.0958   24.3562 C.3     1  UNL1        0.1122
     19 C          13.7961   80.9789   25.2140 C.3     1  UNL1        0.1122
     20 C          14.2452   84.6035   24.1305 C.ar    1  UNL1        0.0488
     21 C          14.8303   84.7947   22.8658 C.ar    1  UNL1        0.0154
     22 C          15.4311   86.0127   22.5385 C.ar    1  UNL1        0.0135
     23 C          15.4606   87.0579   23.4663 C.ar    1  UNL1        0.0683
     24 CL         16.2263   88.5757   23.0164 Cl      1  UNL1       -0.0814
     25 C          14.8836   86.8801   24.7339 C.ar    1  UNL1        0.0694
     26 CL         14.9053   88.1664   25.9330 Cl      1  UNL1       -0.0813
     27 C          14.2813   85.6594   25.0607 C.ar    1  UNL1        0.0268
     28 C           7.6881   74.2806   25.2058 C.3     1  UNL1        0.1535
     29 C           6.4607   74.2202   26.0859 C.2     1  UNL1        0.2443
     30 O           5.3869   74.7669   25.7116 O.2     1  UNL1       -0.2730
     31 N           6.4953   73.4505   27.2984 N.am    1  UNL1       -0.2825
     32 H           7.2813   72.7724   27.4218 H       1  UNL1        0.1549
     33 C           5.4566   73.4662   28.2924 C.ar    1  UNL1        0.0535
     34 C           4.5425   72.4061   28.4186 C.ar    1  UNL1        0.0353
     35 C           3.5348   72.4767   29.3839 C.ar    1  UNL1        0.1002
     36 N           3.4320   73.5700   30.1848 N.ar    1  UNL1       -0.2422
     37 C           4.2904   74.6178   30.0725 C.ar    1  UNL1        0.1002
     38 C           5.3115   74.5882   29.1197 C.ar    1  UNL1        0.0353
     39 C           7.3363   73.9386   23.7412 C.3     1  UNL1        0.0569
     40 C           8.4338   74.2861   22.7719 C.ar    1  UNL1       -0.0017
     41 C           8.4844   75.4024   21.9417 C.ar    1  UNL1        0.0681
     42 N           9.6442   75.4234   21.2469 N.ar    1  UNL1       -0.3523
     43 C          10.3256   74.3292   21.6276 C.ar    1  UNL1        0.0563
     44 C          11.5880   73.9278   21.1926 C.ar    1  UNL1        0.0170
     45 C          12.1235   72.7436   21.7302 C.ar    1  UNL1        0.0015
     46 C          11.3912   71.9918   22.6749 C.ar    1  UNL1        0.0001
     47 C          10.1182   72.4189   23.0931 C.ar    1  UNL1        0.0012
     48 C           9.6173   73.6050   22.5528 C.ar    1  UNL1        0.0131
     49 H           9.9476   76.1483   20.5593 H       1  UNL1        0.1660
@<TRIPOS>BOND
     1     1     2    2
     2     2     3   am
     3     3    28    1
     4    28    39    1
     5    39    40    1
     6    40    41   ar
     7    41    42   ar
     8    42    43   ar
     9    43    44   ar
    10    44    45   ar
    11    45    46   ar
    12    46    47   ar
    13    47    48   ar
    14    28    29    1
    15    29    30    2
    16    29    31   am
    17    31    33    1
    18    33    34   ar
    19    34    35   ar
    20    35    36   ar
    21    36    37   ar
    22    37    38   ar
    23     2     5    1
    24     5     6   ar
    25     6     7    1
    26     6     8   ar
    27     8     9   ar
    28     9    14    1
    29    14    15    1
    30    15    16    1
    31    16    17    1
    32    17    20    1
    33    20    21   ar
    34    21    22   ar
    35    22    23   ar
    36    23    24    1
    37    23    25   ar
    38    25    26    1
    39    25    27   ar
    40    17    18    1
    41    18    19    1
    42     9    10   ar
    43    10    11   ar
    44    11    12    1
    45    48    40   ar
    46    38    33   ar
    47    11     5   ar
    48    48    43   ar
    49    19    14    1
    50    27    20   ar
    51     3     4    1
    52    42    49    1
    53    31    32    1
    54     7    13    1
