@<TRIPOS>MOLECULE
*****
 62 67 0 0 0
SMALL
GASTEIGER

@<TRIPOS>ATOM
      1 C          63.2473   85.5607   14.0618 C.ar    1  UNL1        0.0001
      2 C          62.4425   86.5727   13.5064 C.ar    1  UNL1        0.0013
      3 C          62.4845   87.8726   14.0194 C.ar    1  UNL1        0.0147
      4 C          63.3126   88.1740   15.1090 C.ar    1  UNL1        0.0503
      5 C          64.1633   87.1889   15.6221 C.ar    1  UNL1        0.0147
      6 C          64.1229   85.8893   15.1136 C.ar    1  UNL1        0.0013
      7 C          62.5904   81.4911   12.8254 C.ar    1  UNL1        0.0503
      8 C          62.3899   82.5534   11.9241 C.ar    1  UNL1        0.0147
      9 C          62.6637   83.8683   12.3066 C.ar    1  UNL1        0.0013
     10 C          63.1282   84.1538   13.6014 C.ar    1  UNL1        0.0001
     11 C          63.3902   83.0865   14.4777 C.ar    1  UNL1        0.0013
     12 C          63.1295   81.7697   14.0899 C.ar    1  UNL1        0.0147
     13 C          61.2158   79.8552   11.4977 C.2     1  UNL1        0.2442
     14 O          61.5148   80.0356   10.2860 O.2     1  UNL1       -0.2730
     15 N          62.1759   80.1464   12.5187 N.am    1  UNL1       -0.2826
     16 H          62.3127   79.4131   13.2506 H       1  UNL1        0.1549
     17 C          58.8392   81.7738   12.0325 C.2     1  UNL1        0.2482
     18 O          59.3692   81.9868   13.1572 O.2     1  UNL1       -0.2727
     19 N          58.8573   80.4426   11.4828 N.am    1  UNL1       -0.2714
     20 C          57.7942   79.9072   10.6498 C.3     1  UNL1        0.0939
     21 C          57.9559   78.3938   10.6978 C.3     1  UNL1        0.0237
     22 C          59.3784   78.1348   11.1899 C.3     1  UNL1        0.0310
     23 C          59.8216   79.4281   11.8856 C.3     1  UNL1        0.1521
     24 C          58.1966   82.9194   11.2873 C.3     1  UNL1        0.1743
     25 C          58.1495   84.1599   12.1523 C.ar    1  UNL1        0.0044
     26 C          57.0661   84.3721   13.0233 C.ar    1  UNL1       -0.0022
     27 C          57.0036   85.5296   13.8053 C.ar    1  UNL1       -0.0003
     28 C          58.0227   86.4821   13.7307 C.ar    1  UNL1       -0.0000
     29 C          59.1107   86.2756   12.8800 C.ar    1  UNL1       -0.0003
     30 C          59.1791   85.1198   12.0971 C.ar    1  UNL1       -0.0022
     31 C          58.3165   83.8173    8.9107 C.2     1  UNL1        0.4023
     32 O          57.0819   84.0786    8.9130 O.2     1  UNL1       -0.2264
     33 N          58.9288   83.1961   10.0467 N.am    1  UNL1       -0.2606
     34 H          59.9687   83.0933   10.0323 H       1  UNL1        0.1535
     35 C          60.4382   83.6716    7.6475 C.3     1  UNL1        0.2573
     36 O          59.1059   84.1432    7.8048 O.3     1  UNL1       -0.4306
     37 N          63.3267   89.4853   15.6836 N.am    1  UNL1       -0.2826
     38 C          64.3650   90.4571   15.4648 C.2     1  UNL1        0.2442
     39 O          64.1975   91.6213   15.9207 O.2     1  UNL1       -0.2730
     40 H          62.4337   89.8284   16.1047 H       1  UNL1        0.1549
     41 C          65.6007   90.1681   14.6303 C.3     1  UNL1        0.1521
     42 C          66.8446   90.8600   15.1959 C.3     1  UNL1        0.0310
     43 C          66.9920   92.1503   14.3955 C.3     1  UNL1        0.0237
     44 C          66.2807   91.8935   13.0732 C.3     1  UNL1        0.0939
     45 N          65.4378   90.7273   13.2939 N.am    1  UNL1       -0.2714
     46 C          64.7636   90.0318   12.2276 C.2     1  UNL1        0.2482
     47 O          64.5730   88.7895   12.3237 O.2     1  UNL1       -0.2727
     48 C          64.3539   90.7493   10.9599 C.3     1  UNL1        0.1744
     49 C          65.5400   91.4821   10.3732 C.ar    1  UNL1        0.0074
     50 C          65.4518   92.8504   10.0712 C.ar    1  UNL1       -0.0020
     51 C          66.5429   93.5240    9.5207 C.ar    1  UNL1        0.0029
     52 C          67.7349   92.8419    9.2724 C.ar    1  UNL1        0.0369
     53 C          67.8480   91.4793    9.5695 C.ar    1  UNL1        0.1385
     54 C          66.7447   90.8014   10.1244 C.ar    1  UNL1        0.0347
     55 O          69.0658   90.8380    9.2983 O.3     1  UNL1       -0.4714
     56 C          69.5789   90.6065    7.9905 C.3     1  UNL1        0.2525
     57 N          63.8001   89.8147    9.9706 N.am    1  UNL1       -0.2606
     58 C          62.5068   89.2198   10.1265 C.2     1  UNL1        0.4023
     59 O          61.8226   89.4444   11.1630 O.2     1  UNL1       -0.2264
     60 H          64.3162   89.6084    9.0855 H       1  UNL1        0.1535
     61 O          62.0099   88.3924    9.1159 O.3     1  UNL1       -0.4306
     62 C          61.8485   86.9893    9.2844 C.3     1  UNL1        0.2573
@<TRIPOS>BOND
     1    35    36    1
     2    36    31    1
     3    31    32    2
     4    31    33   am
     5    33    24    1
     6    24    17    1
     7    17    18    2
     8    17    19   am
     9    19    20    1
    10    20    21    1
    11    21    22    1
    12    22    23    1
    13    23    13    1
    14    13    14    2
    15    13    15   am
    16    15     7    1
    17     7     8   ar
    18     8     9   ar
    19     9    10   ar
    20    10     1    1
    21     1     2   ar
    22     2     3   ar
    23     3     4   ar
    24     4    37    1
    25    37    38   am
    26    38    39    2
    27    38    41    1
    28    41    42    1
    29    42    43    1
    30    43    44    1
    31    44    45    1
    32    45    46   am
    33    46    47    2
    34    46    48    1
    35    48    57    1
    36    57    58   am
    37    58    59    2
    38    58    61    1
    39    61    62    1
    40    48    49    1
    41    49    50   ar
    42    50    51   ar
    43    51    52   ar
    44    52    53   ar
    45    53    55    1
    46    55    56    1
    47    53    54   ar
    48     4     5   ar
    49     5     6   ar
    50    10    11   ar
    51    11    12   ar
    52    24    25    1
    53    25    26   ar
    54    26    27   ar
    55    27    28   ar
    56    28    29   ar
    57    29    30   ar
    58    23    19    1
    59    12     7   ar
    60    30    25   ar
    61     6     1   ar
    62    45    41    1
    63    54    49   ar
    64    33    34    1
    65    15    16    1
    66    37    40    1
    67    57    60    1
@<TRIPOS>MOLECULE
*****
 62 67 0 0 0
SMALL
GASTEIGER

@<TRIPOS>ATOM
      1 C          60.2098   85.9522   13.3774 C.ar    1  UNL1        0.0001
      2 C          59.9474   86.3840   12.0639 C.ar    1  UNL1        0.0013
      3 C          59.0645   85.6713   11.2472 C.ar    1  UNL1        0.0147
      4 C          58.4502   84.5047   11.7223 C.ar    1  UNL1        0.0503
      5 C          58.6557   84.1080   13.0482 C.ar    1  UNL1        0.0147
      6 C          59.5381   84.8162   13.8663 C.ar    1  UNL1        0.0013
      7 C          63.1137   88.1974   15.6242 C.ar    1  UNL1        0.0503
      8 C          61.7707   88.1459   16.0420 C.ar    1  UNL1        0.0147
      9 C          60.8424   87.3664   15.3486 C.ar    1  UNL1        0.0013
     10 C          61.2299   86.6341   14.2140 C.ar    1  UNL1        0.0001
     11 C          62.5842   86.6347   13.8374 C.ar    1  UNL1        0.0013
     12 C          63.5156   87.4035   14.5399 C.ar    1  UNL1        0.0147
     13 C          64.5287   90.2758   15.5419 C.2     1  UNL1        0.2442
     14 O          63.7407   91.2383   15.3351 O.2     1  UNL1       -0.2730
     15 N          64.0600   89.1053   16.2195 N.am    1  UNL1       -0.2826
     16 H          64.6598   88.7469   16.9966 H       1  UNL1        0.1549
     17 C          65.2794   90.2556   12.5333 C.2     1  UNL1        0.2482
     18 O          65.0396   89.0175   12.5647 O.2     1  UNL1       -0.2727
     19 N          65.9366   90.8773   13.6540 N.am    1  UNL1       -0.2714
     20 C          66.8476   92.0016   13.5235 C.3     1  UNL1        0.0939
     21 C          67.6610   92.0241   14.8107 C.3     1  UNL1        0.0237
     22 C          66.8773   91.1902   15.8221 C.3     1  UNL1        0.0310
     23 C          65.9344   90.3075   14.9944 C.3     1  UNL1        0.1521
     24 C          64.8728   91.0585   11.3207 C.3     1  UNL1        0.1743
     25 C          66.0882   91.4623   10.5151 C.ar    1  UNL1        0.0044
     26 C          66.1348   92.7218    9.8914 C.ar    1  UNL1       -0.0022
     27 C          67.2437   93.0900    9.1235 C.ar    1  UNL1       -0.0003
     28 C          68.3180   92.2094    8.9755 C.ar    1  UNL1       -0.0000
     29 C          68.2893   90.9616    9.6019 C.ar    1  UNL1       -0.0003
     30 C          67.1841   90.5888   10.3719 C.ar    1  UNL1       -0.0022
     31 C          62.6839   89.8125   10.9667 C.2     1  UNL1        0.4023
     32 O          62.3575   89.9777   12.1744 O.2     1  UNL1       -0.2264
     33 N          63.9463   90.2872   10.4848 N.am    1  UNL1       -0.2606
     34 H          64.1238   90.2137    9.4576 H       1  UNL1        0.1535
     35 C          62.0756   87.8894    9.5348 C.3     1  UNL1        0.2573
     36 O          61.8119   89.1762   10.0795 O.3     1  UNL1       -0.4306
     37 N          57.5875   83.7310   10.8817 N.am    1  UNL1       -0.2826
     38 C          57.9929   83.1209    9.6433 C.2     1  UNL1        0.2442
     39 O          57.1768   82.3557    9.0604 O.2     1  UNL1       -0.2730
     40 H          56.6821   83.4129   11.2958 H       1  UNL1        0.1549
     41 C          59.3876   83.2822    9.0638 C.3     1  UNL1        0.1521
     42 C          59.3785   83.2251    7.5332 C.3     1  UNL1        0.0310
     43 C          59.7393   81.7863    7.1774 C.3     1  UNL1        0.0237
     44 C          60.5132   81.2516    8.3756 C.3     1  UNL1        0.0939
     45 N          60.2269   82.1631    9.4740 N.am    1  UNL1       -0.2714
     46 C          60.9363   82.1306   10.7274 C.2     1  UNL1        0.2482
     47 O          61.1093   83.2027   11.3674 O.2     1  UNL1       -0.2727
     48 C          61.5480   80.8486   11.2487 C.3     1  UNL1        0.1744
     49 C          62.3280   81.1245   12.5150 C.ar    1  UNL1        0.0074
     50 C          61.9877   80.4790   13.7145 C.ar    1  UNL1       -0.0020
     51 C          62.7010   80.7412   14.8848 C.ar    1  UNL1        0.0029
     52 C          63.7651   81.6441   14.8695 C.ar    1  UNL1        0.0369
     53 C          64.1257   82.2960   13.6850 C.ar    1  UNL1        0.1385
     54 C          63.4033   82.0301   12.5051 C.ar    1  UNL1        0.0347
     55 O          65.2003   83.1970   13.7220 O.3     1  UNL1       -0.4714
     56 C          65.4751   84.0765   14.8074 C.3     1  UNL1        0.2525
     57 N          60.5205   79.8294   11.5026 N.am    1  UNL1       -0.2606
     58 C          60.5960   78.5156   10.9377 C.2     1  UNL1        0.4023
     59 O          61.5342   78.2136   10.1495 O.2     1  UNL1       -0.2264
     60 H          59.7324   80.0202   12.1621 H       1  UNL1        0.1535
     61 O          59.6220   77.5714   11.2734 O.3     1  UNL1       -0.4306
     62 C          58.2652   77.9230   11.5155 C.3     1  UNL1        0.2573
@<TRIPOS>BOND
     1    35    36    1
     2    36    31    1
     3    31    32    2
     4    31    33   am
     5    33    24    1
     6    24    17    1
     7    17    18    2
     8    17    19   am
     9    19    20    1
    10    20    21    1
    11    21    22    1
    12    22    23    1
    13    23    13    1
    14    13    14    2
    15    13    15   am
    16    15     7    1
    17     7     8   ar
    18     8     9   ar
    19     9    10   ar
    20    10     1    1
    21     1     2   ar
    22     2     3   ar
    23     3     4   ar
    24     4    37    1
    25    37    38   am
    26    38    39    2
    27    38    41    1
    28    41    42    1
    29    42    43    1
    30    43    44    1
    31    44    45    1
    32    45    46   am
    33    46    47    2
    34    46    48    1
    35    48    57    1
    36    57    58   am
    37    58    59    2
    38    58    61    1
    39    61    62    1
    40    48    49    1
    41    49    50   ar
    42    50    51   ar
    43    51    52   ar
    44    52    53   ar
    45    53    55    1
    46    55    56    1
    47    53    54   ar
    48     4     5   ar
    49     5     6   ar
    50    10    11   ar
    51    11    12   ar
    52    24    25    1
    53    25    26   ar
    54    26    27   ar
    55    27    28   ar
    56    28    29   ar
    57    29    30   ar
    58    23    19    1
    59    12     7   ar
    60    30    25   ar
    61     6     1   ar
    62    45    41    1
    63    54    49   ar
    64    33    34    1
    65    15    16    1
    66    37    40    1
    67    57    60    1
