@<TRIPOS>MOLECULE
*****
 42 46 0 0 0
SMALL
GASTEIGER

@<TRIPOS>ATOM
      1 C         -26.9425   50.5592   -7.6499 C.ar    1  UNL1        0.0337
      2 C         -26.8195   51.2115   -8.9172 C.ar    1  UNL1        0.0872
      3 C         -27.9155   51.1633   -9.8070 C.ar    1  UNL1        0.1398
      4 C         -29.0953   50.5360   -9.4935 C.ar    1  UNL1        0.0327
      5 C         -29.2264   49.9356   -8.2415 C.ar    1  UNL1        0.0787
      6 C         -28.1845   49.9594   -7.3510 C.ar    1  UNL1        0.0983
      7 N         -28.5384   49.3401   -6.2100 N.ar    1  UNL1       -0.2137
      8 C         -29.8153   48.9448   -6.4511 C.ar    1  UNL1        0.2018
      9 N         -30.2681   49.2864   -7.6880 N.ar    1  UNL1       -0.2977
     10 C         -31.5838   49.0321   -8.2739 C.3     1  UNL1        0.1332
     11 C         -30.0598   50.6703  -10.6193 C.3     1  UNL1        0.0709
     12 C         -29.2571   51.5224  -11.6573 C.3     1  UNL1        0.1375
     13 C         -29.9311   52.8789  -11.9041 C.3     1  UNL1        0.0439
     14 C         -29.0737   50.7674  -12.9807 C.3     1  UNL1        0.0439
     15 O         -27.9770   51.7386  -11.0593 O.3     1  UNL1       -0.4824
     16 C         -25.6080   51.9479   -9.3225 C.2     1  UNL1        0.2523
     17 O         -25.6892   53.1867   -9.5418 O.2     1  UNL1       -0.2697
     18 N         -24.3518   51.2608   -9.4524 N.am    1  UNL1       -0.2803
     19 H         -24.3493   50.2190   -9.3701 H       1  UNL1        0.1552
     20 C         -23.1146   51.9051   -9.7979 C.ar    1  UNL1        0.0505
     21 C         -22.9261   52.5003  -11.0566 C.ar    1  UNL1        0.0147
     22 C         -21.7286   53.1546  -11.3527 C.ar    1  UNL1        0.0012
     23 C         -20.7113   53.2261  -10.3984 C.ar    1  UNL1        0.0039
     24 C         -20.8793   52.6336   -9.1352 C.ar    1  UNL1        0.0726
     25 C         -22.0991   52.0016   -8.8344 C.ar    1  UNL1        0.0185
     26 C         -19.8073   52.7620   -8.0823 C.3     1  UNL1        0.4186
     27 F         -20.3481   53.1891   -6.8818 F       1  UNL1       -0.1659
     28 F         -18.8465   53.6786   -8.4736 F       1  UNL1       -0.1659
     29 F         -19.2058   51.5319   -7.8930 F       1  UNL1       -0.1659
     30 N         -30.6088   48.2639   -5.4676 N.pl3   1  UNL1       -0.2814
     31 H         -31.6487   48.3196   -5.5357 H       1  UNL1        0.1551
     32 C         -30.0434   47.7773   -4.2411 C.ar    1  UNL1        0.0889
     33 C         -30.0757   48.5938   -3.0982 C.ar    1  UNL1        0.1543
     34 F         -30.6228   49.8340   -3.1584 F       1  UNL1       -0.2028
     35 C         -29.5237   48.1456   -1.8948 C.ar    1  UNL1        0.0310
     36 C         -28.9479   46.8763   -1.8176 C.ar    1  UNL1        0.0033
     37 C         -28.9322   46.0460   -2.9404 C.ar    1  UNL1        0.0128
     38 C         -29.4824   46.4838   -4.1513 C.ar    1  UNL1        0.0733
     39 CL        -29.5201   45.3604   -5.5061 Cl      1  UNL1       -0.0809
     40 C         -25.8046   50.4803   -6.6504 C.3     1  UNL1        0.1705
     41 C         -26.1808   50.8081   -4.3858 C.3     1  UNL1        0.1746
     42 O         -25.9518   51.4447   -5.6246 O.3     1  UNL1       -0.3463
@<TRIPOS>BOND
     1    41    42    1
     2    42    40    1
     3    40     1    1
     4     1     2   ar
     5     2    16    1
     6    16    17    2
     7    16    18   am
     8    18    20    1
     9    20    21   ar
    10    21    22   ar
    11    22    23   ar
    12    23    24   ar
    13    24    26    1
    14    26    27    1
    15    26    28    1
    16    26    29    1
    17    24    25   ar
    18     2     3   ar
    19     3     4   ar
    20     4     5   ar
    21     5     6   ar
    22     6     7   ar
    23     7     8   ar
    24     8    30    1
    25    30    32    1
    26    32    33   ar
    27    33    34    1
    28    33    35   ar
    29    35    36   ar
    30    36    37   ar
    31    37    38   ar
    32    38    39    1
    33     8     9   ar
    34     9    10    1
    35     4    11    1
    36    11    12    1
    37    12    13    1
    38    12    14    1
    39    12    15    1
    40     6     1   ar
    41    38    32   ar
    42    25    20   ar
    43    15     3    1
    44     9     5   ar
    45    18    19    1
    46    30    31    1
@<TRIPOS>MOLECULE
*****
 42 46 0 0 0
SMALL
GASTEIGER

@<TRIPOS>ATOM
      1 C         -26.6006   51.2103  -11.1630 C.ar    1  UNL1        0.0337
      2 C         -25.8993   51.5094   -9.9525 C.ar    1  UNL1        0.0872
      3 C         -26.5240   51.2081   -8.7220 C.ar    1  UNL1        0.1398
      4 C         -27.7627   50.6222   -8.6457 C.ar    1  UNL1        0.0327
      5 C         -28.4267   50.2952   -9.8277 C.ar    1  UNL1        0.0787
      6 C         -27.8541   50.5735  -11.0418 C.ar    1  UNL1        0.0983
      7 N         -28.6583   50.1579  -12.0374 N.ar    1  UNL1       -0.2137
      8 C         -29.7240   49.6312  -11.3803 C.ar    1  UNL1        0.2018
      9 N         -29.6201   49.7039  -10.0255 N.ar    1  UNL1       -0.2977
     10 C         -30.5676   49.2305   -9.0169 C.3     1  UNL1        0.1332
     11 C         -28.1428   50.4153   -7.2214 C.3     1  UNL1        0.0709
     12 C         -26.8915   50.9539   -6.4520 C.3     1  UNL1        0.1375
     13 C         -26.2067   49.8374   -5.6521 C.3     1  UNL1        0.0439
     14 C         -27.2606   52.1236   -5.5299 C.3     1  UNL1        0.0439
     15 O         -25.9968   51.4193   -7.4648 O.3     1  UNL1       -0.4824
     16 C         -24.5469   52.0971   -9.9369 C.2     1  UNL1        0.2523
     17 O         -24.4157   53.3247   -9.6822 O.2     1  UNL1       -0.2697
     18 N         -23.3965   51.2749  -10.1971 N.am    1  UNL1       -0.2803
     19 H         -23.5551   50.2910  -10.5116 H       1  UNL1        0.1552
     20 C         -22.0416   51.7521  -10.1585 C.ar    1  UNL1        0.0505
     21 C         -21.3119   51.9790  -11.3375 C.ar    1  UNL1        0.0147
     22 C         -20.0103   52.4806  -11.2733 C.ar    1  UNL1        0.0012
     23 C         -19.4261   52.7649  -10.0370 C.ar    1  UNL1        0.0039
     24 C         -20.1383   52.5410   -8.8464 C.ar    1  UNL1        0.0726
     25 C         -21.4588   52.0629   -8.9205 C.ar    1  UNL1        0.0185
     26 C         -19.5327   52.9042   -7.5138 C.3     1  UNL1        0.4186
     27 F         -18.9035   51.8095   -6.9467 F       1  UNL1       -0.1659
     28 F         -20.5102   53.3426   -6.6372 F       1  UNL1       -0.1659
     29 F         -18.6051   53.9128   -7.6954 F       1  UNL1       -0.1659
     30 N         -30.8296   49.0264  -12.0675 N.pl3   1  UNL1       -0.2814
     31 H         -31.7712   49.0459  -11.6178 H       1  UNL1        0.1551
     32 C         -30.6381   48.1418  -13.1817 C.ar    1  UNL1        0.0889
     33 C         -30.6821   48.6610  -14.4865 C.ar    1  UNL1        0.1543
     34 F         -30.9175   49.9817  -14.6899 F       1  UNL1       -0.2028
     35 C         -30.5073   47.8180  -15.5877 C.ar    1  UNL1        0.0310
     36 C         -30.2741   46.4550  -15.3970 C.ar    1  UNL1        0.0033
     37 C         -30.2034   45.9318  -14.1041 C.ar    1  UNL1        0.0128
     38 C         -30.3765   46.7663  -12.9931 C.ar    1  UNL1        0.0733
     39 CL        -30.1826   46.0706  -11.3877 Cl      1  UNL1       -0.0809
     40 C         -26.0605   51.5618  -12.5360 C.3     1  UNL1        0.1705
     41 C         -26.6773   51.6741  -14.7686 C.3     1  UNL1        0.1746
     42 O         -27.1072   51.8690  -13.4384 O.3     1  UNL1       -0.3463
@<TRIPOS>BOND
     1    41    42    1
     2    42    40    1
     3    40     1    1
     4     1     2   ar
     5     2    16    1
     6    16    17    2
     7    16    18   am
     8    18    20    1
     9    20    21   ar
    10    21    22   ar
    11    22    23   ar
    12    23    24   ar
    13    24    26    1
    14    26    27    1
    15    26    28    1
    16    26    29    1
    17    24    25   ar
    18     2     3   ar
    19     3     4   ar
    20     4     5   ar
    21     5     6   ar
    22     6     7   ar
    23     7     8   ar
    24     8    30    1
    25    30    32    1
    26    32    33   ar
    27    33    34    1
    28    33    35   ar
    29    35    36   ar
    30    36    37   ar
    31    37    38   ar
    32    38    39    1
    33     8     9   ar
    34     9    10    1
    35     4    11    1
    36    11    12    1
    37    12    13    1
    38    12    14    1
    39    12    15    1
    40     6     1   ar
    41    38    32   ar
    42    25    20   ar
    43    15     3    1
    44     9     5   ar
    45    18    19    1
    46    30    31    1
@<TRIPOS>MOLECULE
*****
 42 46 0 0 0
SMALL
GASTEIGER

@<TRIPOS>ATOM
      1 C         -26.4090   50.8598   -8.3310 C.ar    1  UNL1        0.0337
      2 C         -27.8271   50.8558   -8.5194 C.ar    1  UNL1        0.0872
      3 C         -28.3336   51.1005   -9.8151 C.ar    1  UNL1        0.1398
      4 C         -27.5194   51.3191  -10.8980 C.ar    1  UNL1        0.0327
      5 C         -26.1368   51.2826  -10.7190 C.ar    1  UNL1        0.0787
      6 C         -25.6067   51.0500   -9.4763 C.ar    1  UNL1        0.0983
      7 N         -24.2627   51.0408   -9.5423 N.ar    1  UNL1       -0.2137
      8 C         -24.0118   51.2793  -10.8557 C.ar    1  UNL1        0.2018
      9 N         -25.1359   51.4394  -11.6058 N.ar    1  UNL1       -0.2977
     10 C         -25.2384   51.6969  -13.0419 C.3     1  UNL1        0.1332
     11 C         -28.3417   51.5275  -12.1212 C.3     1  UNL1        0.0709
     12 C         -29.8018   51.3619  -11.5839 C.3     1  UNL1        0.1375
     13 C         -30.4987   50.1560  -12.2283 C.3     1  UNL1        0.0439
     14 C         -30.6277   52.6367  -11.8019 C.3     1  UNL1        0.0439
     15 O         -29.6635   51.1268  -10.1808 O.3     1  UNL1       -0.4824
     16 C         -28.7777   50.5860   -7.4248 C.2     1  UNL1        0.2523
     17 O         -29.4086   49.4946   -7.4169 O.2     1  UNL1       -0.2697
     18 N         -28.9696   51.5518   -6.3772 N.am    1  UNL1       -0.2803
     19 H         -28.5128   52.4862   -6.4788 H       1  UNL1        0.1552
     20 C         -29.8396   51.3542   -5.2507 C.ar    1  UNL1        0.0505
     21 C         -30.7209   52.3607   -4.8212 C.ar    1  UNL1        0.0147
     22 C         -31.5839   52.1288   -3.7483 C.ar    1  UNL1        0.0012
     23 C         -31.5808   50.8932   -3.0972 C.ar    1  UNL1        0.0039
     24 C         -30.7041   49.8752   -3.5094 C.ar    1  UNL1        0.0726
     25 C         -29.8583   50.1065   -4.6090 C.ar    1  UNL1        0.0185
     26 C         -30.7414   48.5204   -2.8480 C.3     1  UNL1        0.4186
     27 F         -31.3692   48.5932   -1.6166 F       1  UNL1       -0.1659
     28 F         -29.4588   48.0383   -2.6511 F       1  UNL1       -0.1659
     29 F         -31.4350   47.6388   -3.6557 F       1  UNL1       -0.1659
     30 N         -22.6801   51.3189  -11.3900 N.pl3   1  UNL1       -0.2814
     31 H         -22.3957   50.5924  -12.0832 H       1  UNL1        0.1551
     32 C         -21.6457   52.1137  -10.7908 C.ar    1  UNL1        0.0889
     33 C         -20.3579   51.5704  -10.6476 C.ar    1  UNL1        0.1543
     34 F         -20.1002   50.3031  -11.0585 F       1  UNL1       -0.2028
     35 C         -19.3364   52.3216  -10.0593 C.ar    1  UNL1        0.0310
     36 C         -19.5866   53.6234   -9.6219 C.ar    1  UNL1        0.0033
     37 C         -20.8562   54.1830   -9.7816 C.ar    1  UNL1        0.0128
     38 C         -21.8873   53.4405  -10.3698 C.ar    1  UNL1        0.0733
     39 CL        -23.4394   54.2286  -10.6320 Cl      1  UNL1       -0.0809
     40 C         -25.7582   50.6868   -6.9721 C.3     1  UNL1        0.1705
     41 C         -26.0802   51.1175   -4.7163 C.3     1  UNL1        0.1746
     42 O         -26.2883   51.5980   -6.0271 O.3     1  UNL1       -0.3463
@<TRIPOS>BOND
     1    41    42    1
     2    42    40    1
     3    40     1    1
     4     1     2   ar
     5     2    16    1
     6    16    17    2
     7    16    18   am
     8    18    20    1
     9    20    21   ar
    10    21    22   ar
    11    22    23   ar
    12    23    24   ar
    13    24    26    1
    14    26    27    1
    15    26    28    1
    16    26    29    1
    17    24    25   ar
    18     2     3   ar
    19     3     4   ar
    20     4     5   ar
    21     5     6   ar
    22     6     7   ar
    23     7     8   ar
    24     8    30    1
    25    30    32    1
    26    32    33   ar
    27    33    34    1
    28    33    35   ar
    29    35    36   ar
    30    36    37   ar
    31    37    38   ar
    32    38    39    1
    33     8     9   ar
    34     9    10    1
    35     4    11    1
    36    11    12    1
    37    12    13    1
    38    12    14    1
    39    12    15    1
    40     6     1   ar
    41    38    32   ar
    42    25    20   ar
    43    15     3    1
    44     9     5   ar
    45    18    19    1
    46    30    31    1
@<TRIPOS>MOLECULE
*****
 42 46 0 0 0
SMALL
GASTEIGER

@<TRIPOS>ATOM
      1 C         -26.5042   51.0190  -10.8679 C.ar    1  UNL1        0.0337
      2 C         -25.8298   51.2462   -9.6269 C.ar    1  UNL1        0.0872
      3 C         -26.5303   50.9970   -8.4259 C.ar    1  UNL1        0.1398
      4 C         -27.8195   50.5268   -8.4060 C.ar    1  UNL1        0.0327
      5 C         -28.4605   50.2682   -9.6173 C.ar    1  UNL1        0.0787
      6 C         -27.8146   50.4992  -10.8042 C.ar    1  UNL1        0.0983
      7 N         -28.6110   50.1643  -11.8358 N.ar    1  UNL1       -0.2137
      8 C         -29.7469   49.7341  -11.2279 C.ar    1  UNL1        0.2018
      9 N         -29.6936   49.7899   -9.8694 N.ar    1  UNL1       -0.2977
     10 C         -30.7218   49.4000   -8.9050 C.3     1  UNL1        0.1332
     11 C         -28.2762   50.3481   -7.0005 C.3     1  UNL1        0.0709
     12 C         -27.0142   50.7656   -6.1754 C.3     1  UNL1        0.1375
     13 C         -26.4684   49.5869   -5.3581 C.3     1  UNL1        0.0439
     14 C         -27.3131   51.9594   -5.2587 C.3     1  UNL1        0.0439
     15 O         -26.0391   51.1524   -7.1462 O.3     1  UNL1       -0.4824
     16 C         -24.4312   51.7073   -9.5503 C.2     1  UNL1        0.2523
     17 O         -23.6876   51.2580   -8.6368 O.2     1  UNL1       -0.2697
     18 N         -23.9241   52.6466  -10.5134 N.am    1  UNL1       -0.2803
     19 H         -24.5996   53.0773  -11.1844 H       1  UNL1        0.1552
     20 C         -22.5659   53.1151  -10.5419 C.ar    1  UNL1        0.0505
     21 C         -22.2443   54.4465  -10.2282 C.ar    1  UNL1        0.0147
     22 C         -20.9125   54.8661  -10.2249 C.ar    1  UNL1        0.0012
     23 C         -19.8901   53.9645  -10.5287 C.ar    1  UNL1        0.0039
     24 C         -20.1917   52.6298  -10.8489 C.ar    1  UNL1        0.0726
     25 C         -21.5330   52.2077  -10.8219 C.ar    1  UNL1        0.0185
     26 C         -19.0862   51.6398  -11.1174 C.3     1  UNL1        0.4186
     27 F         -18.0671   51.7800  -10.1913 F       1  UNL1       -0.1659
     28 F         -18.5526   51.8350  -12.3797 F       1  UNL1       -0.1659
     29 F         -19.5948   50.3570  -11.0367 F       1  UNL1       -0.1659
     30 N         -30.8735   49.2368  -11.9656 N.pl3   1  UNL1       -0.2814
     31 H         -31.8325   49.4013  -11.5882 H       1  UNL1        0.1551
     32 C         -30.7249   48.2733  -13.0192 C.ar    1  UNL1        0.0889
     33 C         -30.3441   46.9592  -12.6998 C.ar    1  UNL1        0.1543
     34 F         -30.1058   46.6100  -11.4104 F       1  UNL1       -0.2028
     35 C         -30.1844   46.0056  -13.7092 C.ar    1  UNL1        0.0310
     36 C         -30.4158   46.3502  -15.0419 C.ar    1  UNL1        0.0033
     37 C         -30.8189   47.6467  -15.3692 C.ar    1  UNL1        0.0128
     38 C         -30.9826   48.6105  -14.3668 C.ar    1  UNL1        0.0733
     39 CL        -31.5837   50.1999  -14.8266 Cl      1  UNL1       -0.0809
     40 C         -25.8773   51.3267  -12.2142 C.3     1  UNL1        0.1705
     41 C         -26.3995   51.7568  -14.4323 C.3     1  UNL1        0.1746
     42 O         -26.8116   51.9259  -13.0929 O.3     1  UNL1       -0.3463
@<TRIPOS>BOND
     1    41    42    1
     2    42    40    1
     3    40     1    1
     4     1     2   ar
     5     2    16    1
     6    16    17    2
     7    16    18   am
     8    18    20    1
     9    20    21   ar
    10    21    22   ar
    11    22    23   ar
    12    23    24   ar
    13    24    26    1
    14    26    27    1
    15    26    28    1
    16    26    29    1
    17    24    25   ar
    18     2     3   ar
    19     3     4   ar
    20     4     5   ar
    21     5     6   ar
    22     6     7   ar
    23     7     8   ar
    24     8    30    1
    25    30    32    1
    26    32    33   ar
    27    33    34    1
    28    33    35   ar
    29    35    36   ar
    30    36    37   ar
    31    37    38   ar
    32    38    39    1
    33     8     9   ar
    34     9    10    1
    35     4    11    1
    36    11    12    1
    37    12    13    1
    38    12    14    1
    39    12    15    1
    40     6     1   ar
    41    38    32   ar
    42    25    20   ar
    43    15     3    1
    44     9     5   ar
    45    18    19    1
    46    30    31    1
@<TRIPOS>MOLECULE
*****
 42 46 0 0 0
SMALL
GASTEIGER

@<TRIPOS>ATOM
      1 C         -26.9012   50.5662   -6.7609 C.ar    1  UNL1        0.0337
      2 C         -27.6886   49.3759   -6.8594 C.ar    1  UNL1        0.0872
      3 C         -27.8022   48.7477   -8.1194 C.ar    1  UNL1        0.1398
      4 C         -27.1708   49.2223   -9.2417 C.ar    1  UNL1        0.0327
      5 C         -26.3715   50.3601   -9.1341 C.ar    1  UNL1        0.0787
      6 C         -26.2377   50.9992   -7.9287 C.ar    1  UNL1        0.0983
      7 N         -25.4116   52.0539   -8.0548 N.ar    1  UNL1       -0.2137
      8 C         -25.0645   52.0249   -9.3676 C.ar    1  UNL1        0.2018
      9 N         -25.6388   51.0049  -10.0616 N.ar    1  UNL1       -0.2977
     10 C         -25.4812   50.6692  -11.4763 C.3     1  UNL1        0.1332
     11 C         -27.4660   48.3414  -10.4047 C.3     1  UNL1        0.0709
     12 C         -28.3652   47.2287   -9.7711 C.3     1  UNL1        0.1375
     13 C         -27.6904   45.8529   -9.8547 C.3     1  UNL1        0.0439
     14 C         -29.7512   47.1857  -10.4285 C.3     1  UNL1        0.0439
     15 O         -28.5089   47.5960   -8.3973 O.3     1  UNL1       -0.4824
     16 C         -28.3661   48.7678   -5.6993 C.2     1  UNL1        0.2523
     17 O         -29.6233   48.8240   -5.6259 O.2     1  UNL1       -0.2697
     18 N         -27.6002   48.1107   -4.6753 N.am    1  UNL1       -0.2803
     19 H         -26.5584   48.1822   -4.7169 H       1  UNL1        0.1552
     20 C         -28.1782   47.4535   -3.5356 C.ar    1  UNL1        0.0505
     21 C         -28.0011   46.0769   -3.3169 C.ar    1  UNL1        0.0147
     22 C         -28.5401   45.4704   -2.1805 C.ar    1  UNL1        0.0012
     23 C         -29.2551   46.2284   -1.2506 C.ar    1  UNL1        0.0039
     24 C         -29.4464   47.6058   -1.4535 C.ar    1  UNL1        0.0726
     25 C         -28.8760   48.2147   -2.5857 C.ar    1  UNL1        0.0185
     26 C         -30.1652   48.4378   -0.4212 C.3     1  UNL1        0.4186
     27 F         -30.6365   49.6130   -0.9805 F       1  UNL1       -0.1659
     28 F         -29.3138   48.7659    0.6197 F       1  UNL1       -0.1659
     29 F         -31.2332   47.7176    0.0802 F       1  UNL1       -0.1659
     30 N         -24.1480   52.9683   -9.9424 N.pl3   1  UNL1       -0.2814
     31 H         -24.5318   53.7911  -10.4571 H       1  UNL1        0.1551
     32 C         -22.7530   52.6698  -10.1026 C.ar    1  UNL1        0.0889
     33 C         -22.0788   51.9716   -9.0867 C.ar    1  UNL1        0.1543
     34 F         -22.7370   51.5970   -7.9608 F       1  UNL1       -0.2028
     35 C         -20.7185   51.6772   -9.2158 C.ar    1  UNL1        0.0310
     36 C         -20.0235   52.0639  -10.3630 C.ar    1  UNL1        0.0033
     37 C         -20.6888   52.7364  -11.3904 C.ar    1  UNL1        0.0128
     38 C         -22.0514   53.0366  -11.2727 C.ar    1  UNL1        0.0733
     39 CL        -22.8592   53.8004  -12.6376 Cl      1  UNL1       -0.0809
     40 C         -26.7737   51.3655   -5.4782 C.3     1  UNL1        0.1705
     41 C         -25.6164   51.4048   -3.4691 C.3     1  UNL1        0.1746
     42 O         -26.2346   50.5785   -4.4321 O.3     1  UNL1       -0.3463
@<TRIPOS>BOND
     1    41    42    1
     2    42    40    1
     3    40     1    1
     4     1     2   ar
     5     2    16    1
     6    16    17    2
     7    16    18   am
     8    18    20    1
     9    20    21   ar
    10    21    22   ar
    11    22    23   ar
    12    23    24   ar
    13    24    26    1
    14    26    27    1
    15    26    28    1
    16    26    29    1
    17    24    25   ar
    18     2     3   ar
    19     3     4   ar
    20     4     5   ar
    21     5     6   ar
    22     6     7   ar
    23     7     8   ar
    24     8    30    1
    25    30    32    1
    26    32    33   ar
    27    33    34    1
    28    33    35   ar
    29    35    36   ar
    30    36    37   ar
    31    37    38   ar
    32    38    39    1
    33     8     9   ar
    34     9    10    1
    35     4    11    1
    36    11    12    1
    37    12    13    1
    38    12    14    1
    39    12    15    1
    40     6     1   ar
    41    38    32   ar
    42    25    20   ar
    43    15     3    1
    44     9     5   ar
    45    18    19    1
    46    30    31    1
@<TRIPOS>MOLECULE
*****
 42 46 0 0 0
SMALL
GASTEIGER

@<TRIPOS>ATOM
      1 C         -26.4053   50.9256  -10.7694 C.ar    1  UNL1        0.0337
      2 C         -25.7210   51.1241   -9.5289 C.ar    1  UNL1        0.0872
      3 C         -26.4262   50.8906   -8.3274 C.ar    1  UNL1        0.1398
      4 C         -27.7298   50.4618   -8.3068 C.ar    1  UNL1        0.0327
      5 C         -28.3817   50.2306   -9.5178 C.ar    1  UNL1        0.0787
      6 C         -27.7316   50.4475  -10.7051 C.ar    1  UNL1        0.0983
      7 N         -28.5408   50.1440  -11.7365 N.ar    1  UNL1       -0.2137
      8 C         -29.6884   49.7470  -11.1280 C.ar    1  UNL1        0.2018
      9 N         -29.6301   49.7934   -9.7693 N.ar    1  UNL1       -0.2977
     10 C         -30.6678   49.4312   -8.8044 C.3     1  UNL1        0.1332
     11 C         -28.1885   50.2900   -6.9011 C.3     1  UNL1        0.0709
     12 C         -26.9117   50.6623   -6.0770 C.3     1  UNL1        0.1375
     13 C         -26.4020   49.4621   -5.2677 C.3     1  UNL1        0.0439
     14 C         -27.1701   51.8599   -5.1529 C.3     1  UNL1        0.0439
     15 O         -25.9271   51.0231   -7.0482 O.3     1  UNL1       -0.4824
     16 C         -24.3082   51.5398   -9.4534 C.2     1  UNL1        0.2523
     17 O         -23.6554   51.3020   -8.4014 O.2     1  UNL1       -0.2697
     18 N         -23.6851   52.1956  -10.5708 N.am    1  UNL1       -0.2803
     19 H         -24.2879   52.4724  -11.3784 H       1  UNL1        0.1552
     20 C         -22.3049   52.5942  -10.6020 C.ar    1  UNL1        0.0505
     21 C         -21.3184   51.7718  -11.1720 C.ar    1  UNL1        0.0147
     22 C         -19.9904   52.2001  -11.2250 C.ar    1  UNL1        0.0012
     23 C         -19.6338   53.4509  -10.7163 C.ar    1  UNL1        0.0039
     24 C         -20.6052   54.2863  -10.1388 C.ar    1  UNL1        0.0726
     25 C         -21.9452   53.8600  -10.1151 C.ar    1  UNL1        0.0185
     26 C         -20.2339   55.6618   -9.6443 C.3     1  UNL1        0.4186
     27 F         -21.3663   56.3853   -9.3121 F       1  UNL1       -0.1659
     28 F         -19.5452   56.3615  -10.6201 F       1  UNL1       -0.1659
     29 F         -19.4317   55.5417   -8.5251 F       1  UNL1       -0.1659
     30 N         -30.8321   49.2902  -11.8654 N.pl3   1  UNL1       -0.2814
     31 H         -31.7813   49.4231  -11.4524 H       1  UNL1        0.1551
     32 C         -30.7073   48.3975  -12.9827 C.ar    1  UNL1        0.0889
     33 C         -30.3386   47.0608  -12.7562 C.ar    1  UNL1        0.1543
     34 F         -30.0896   46.6237  -11.4960 F       1  UNL1       -0.2028
     35 C         -30.2020   46.1750  -13.8288 C.ar    1  UNL1        0.0310
     36 C         -30.4447   46.6104  -15.1327 C.ar    1  UNL1        0.0033
     37 C         -30.8360   47.9303  -15.3679 C.ar    1  UNL1        0.0128
     38 C         -30.9766   48.8268  -14.3015 C.ar    1  UNL1        0.0733
     39 CL        -31.5638   50.4500  -14.6469 Cl      1  UNL1       -0.0809
     40 C         -25.7722   51.2205  -12.1156 C.3     1  UNL1        0.1705
     41 C         -26.2130   51.7703  -14.3249 C.3     1  UNL1        0.1746
     42 O         -26.6997   51.8206  -13.0009 O.3     1  UNL1       -0.3463
@<TRIPOS>BOND
     1    41    42    1
     2    42    40    1
     3    40     1    1
     4     1     2   ar
     5     2    16    1
     6    16    17    2
     7    16    18   am
     8    18    20    1
     9    20    21   ar
    10    21    22   ar
    11    22    23   ar
    12    23    24   ar
    13    24    26    1
    14    26    27    1
    15    26    28    1
    16    26    29    1
    17    24    25   ar
    18     2     3   ar
    19     3     4   ar
    20     4     5   ar
    21     5     6   ar
    22     6     7   ar
    23     7     8   ar
    24     8    30    1
    25    30    32    1
    26    32    33   ar
    27    33    34    1
    28    33    35   ar
    29    35    36   ar
    30    36    37   ar
    31    37    38   ar
    32    38    39    1
    33     8     9   ar
    34     9    10    1
    35     4    11    1
    36    11    12    1
    37    12    13    1
    38    12    14    1
    39    12    15    1
    40     6     1   ar
    41    38    32   ar
    42    25    20   ar
    43    15     3    1
    44     9     5   ar
    45    18    19    1
    46    30    31    1
@<TRIPOS>MOLECULE
*****
 42 46 0 0 0
SMALL
GASTEIGER

@<TRIPOS>ATOM
      1 C         -26.3532   50.6356   -7.6550 C.ar    1  UNL1        0.0337
      2 C         -27.7526   50.4816   -7.9090 C.ar    1  UNL1        0.0872
      3 C         -28.2238   50.6898   -9.2243 C.ar    1  UNL1        0.1398
      4 C         -27.3901   51.0111  -10.2661 C.ar    1  UNL1        0.0327
      5 C         -26.0211   51.1211  -10.0234 C.ar    1  UNL1        0.0787
      6 C         -25.5255   50.9283   -8.7599 C.ar    1  UNL1        0.0983
      7 N         -24.1868   51.0650   -8.7635 N.ar    1  UNL1       -0.2137
      8 C         -23.9043   51.3489  -10.0614 C.ar    1  UNL1        0.2018
      9 N         -25.0042   51.3982  -10.8612 N.ar    1  UNL1       -0.2977
     10 C         -25.0692   51.6646  -12.2978 C.3     1  UNL1        0.1332
     11 C         -28.1742   51.1481  -11.5239 C.3     1  UNL1        0.0709
     12 C         -29.6304   50.8180  -11.0566 C.3     1  UNL1        0.1375
     13 C         -30.1629   49.5538  -11.7448 C.3     1  UNL1        0.0439
     14 C         -30.5789   51.9995  -11.2999 C.3     1  UNL1        0.0439
     15 O         -29.5309   50.5782   -9.6511 O.3     1  UNL1       -0.4824
     16 C         -28.7167   50.0946   -6.8625 C.2     1  UNL1        0.2523
     17 O         -29.5084   50.9638   -6.4077 O.2     1  UNL1       -0.2697
     18 N         -28.7577   48.7410   -6.3798 N.am    1  UNL1       -0.2803
     19 H         -28.0142   48.0806   -6.7013 H       1  UNL1        0.1552
     20 C         -29.6918   48.2656   -5.3968 C.ar    1  UNL1        0.0505
     21 C         -30.7138   47.3626   -5.7349 C.ar    1  UNL1        0.0147
     22 C         -31.5839   46.8854   -4.7526 C.ar    1  UNL1        0.0012
     23 C         -31.4419   47.2985   -3.4260 C.ar    1  UNL1        0.0039
     24 C         -30.4285   48.2042   -3.0686 C.ar    1  UNL1        0.0726
     25 C         -29.5382   48.6578   -4.0584 C.ar    1  UNL1        0.0185
     26 C         -30.2346   48.6044   -1.6276 C.3     1  UNL1        0.4186
     27 F         -28.8883   48.6533   -1.3094 F       1  UNL1       -0.1659
     28 F         -30.8454   47.6943   -0.7822 F       1  UNL1       -0.1659
     29 F         -30.7913   49.8530   -1.4233 F       1  UNL1       -0.1659
     30 N         -22.5620   51.5398  -10.5329 N.pl3   1  UNL1       -0.2814
     31 H         -22.0950   50.7605  -11.0465 H       1  UNL1        0.1551
     32 C         -21.7409   52.6212  -10.0671 C.ar    1  UNL1        0.0889
     33 C         -21.1439   52.5333   -8.7982 C.ar    1  UNL1        0.1543
     34 F         -21.3539   51.4438   -8.0171 F       1  UNL1       -0.2028
     35 C         -20.3475   53.5773   -8.3192 C.ar    1  UNL1        0.0310
     36 C         -20.1290   54.7098   -9.1055 C.ar    1  UNL1        0.0033
     37 C         -20.6968   54.7976  -10.3784 C.ar    1  UNL1        0.0128
     38 C         -21.4962   53.7581  -10.8693 C.ar    1  UNL1        0.0733
     39 CL        -22.1071   53.8804  -12.5157 Cl      1  UNL1       -0.0809
     40 C         -25.7494   50.5134   -6.2692 C.3     1  UNL1        0.1705
     41 C         -26.1964   51.1066   -4.0724 C.3     1  UNL1        0.1746
     42 O         -26.2085   51.5442   -5.4143 O.3     1  UNL1       -0.3463
@<TRIPOS>BOND
     1    41    42    1
     2    42    40    1
     3    40     1    1
     4     1     2   ar
     5     2    16    1
     6    16    17    2
     7    16    18   am
     8    18    20    1
     9    20    21   ar
    10    21    22   ar
    11    22    23   ar
    12    23    24   ar
    13    24    26    1
    14    26    27    1
    15    26    28    1
    16    26    29    1
    17    24    25   ar
    18     2     3   ar
    19     3     4   ar
    20     4     5   ar
    21     5     6   ar
    22     6     7   ar
    23     7     8   ar
    24     8    30    1
    25    30    32    1
    26    32    33   ar
    27    33    34    1
    28    33    35   ar
    29    35    36   ar
    30    36    37   ar
    31    37    38   ar
    32    38    39    1
    33     8     9   ar
    34     9    10    1
    35     4    11    1
    36    11    12    1
    37    12    13    1
    38    12    14    1
    39    12    15    1
    40     6     1   ar
    41    38    32   ar
    42    25    20   ar
    43    15     3    1
    44     9     5   ar
    45    18    19    1
    46    30    31    1
@<TRIPOS>MOLECULE
*****
 42 46 0 0 0
SMALL
GASTEIGER

@<TRIPOS>ATOM
      1 C         -26.6965   50.5612  -10.0291 C.ar    1  UNL1        0.0337
      2 C         -25.9571   50.2494   -8.8447 C.ar    1  UNL1        0.0872
      3 C         -26.5317   49.3624   -7.9076 C.ar    1  UNL1        0.1398
      4 C         -27.7569   48.7750   -8.1007 C.ar    1  UNL1        0.0327
      5 C         -28.4576   49.0496   -9.2749 C.ar    1  UNL1        0.0787
      6 C         -27.9340   49.9068  -10.2078 C.ar    1  UNL1        0.0983
      7 N         -28.7666   50.0082  -11.2600 N.ar    1  UNL1       -0.2137
      8 C         -29.7989   49.1925  -10.9226 C.ar    1  UNL1        0.2018
      9 N         -29.6473   48.5935   -9.7102 N.ar    1  UNL1       -0.2977
     10 C         -30.5497   47.6553   -9.0434 C.3     1  UNL1        0.1332
     11 C         -28.0818   47.8829   -6.9542 C.3     1  UNL1        0.0709
     12 C         -26.8126   48.0140   -6.0487 C.3     1  UNL1        0.1375
     13 C         -26.0808   46.6714   -5.9179 C.3     1  UNL1        0.0439
     14 C         -27.1677   48.5672   -4.6621 C.3     1  UNL1        0.0439
     15 O         -25.9630   48.9457   -6.7219 O.3     1  UNL1       -0.4824
     16 C         -24.6150   50.7970   -8.5735 C.2     1  UNL1        0.2523
     17 O         -24.2175   50.8804   -7.3800 O.2     1  UNL1       -0.2697
     18 N         -23.7708   51.2171   -9.6588 N.am    1  UNL1       -0.2803
     19 H         -24.1778   51.2350  -10.6211 H       1  UNL1        0.1552
     20 C         -22.4350   51.7194   -9.4907 C.ar    1  UNL1        0.0505
     21 C         -21.9297   52.0440   -8.2204 C.ar    1  UNL1        0.0147
     22 C         -20.6148   52.4927   -8.0804 C.ar    1  UNL1        0.0012
     23 C         -19.7909   52.6176   -9.2012 C.ar    1  UNL1        0.0039
     24 C         -20.2791   52.3017  -10.4805 C.ar    1  UNL1        0.0726
     25 C         -21.5952   51.8230  -10.6100 C.ar    1  UNL1        0.0185
     26 C         -19.3736   52.3773  -11.6842 C.3     1  UNL1        0.4186
     27 F         -19.3715   51.1761  -12.3721 F       1  UNL1       -0.1659
     28 F         -18.0736   52.6571  -11.2997 F       1  UNL1       -0.1659
     29 F         -19.8196   53.3781  -12.5269 F       1  UNL1       -0.1659
     30 N         -30.9184   48.9679  -11.7925 N.pl3   1  UNL1       -0.2814
     31 H         -31.8658   48.8505  -11.3709 H       1  UNL1        0.1551
     32 C         -30.7473   48.5964  -13.1685 C.ar    1  UNL1        0.0889
     33 C         -30.9527   49.5594  -14.1707 C.ar    1  UNL1        0.1543
     34 F         -31.3227   50.8225  -13.8406 F       1  UNL1       -0.2028
     35 C         -30.8008   49.2194  -15.5180 C.ar    1  UNL1        0.0310
     36 C         -30.4303   47.9220  -15.8759 C.ar    1  UNL1        0.0033
     37 C         -30.1992   46.9628  -14.8875 C.ar    1  UNL1        0.0128
     38 C         -30.3477   47.2917  -13.5345 C.ar    1  UNL1        0.0733
     39 CL        -29.9513   46.0708  -12.3299 Cl      1  UNL1       -0.0809
     40 C         -26.2124   51.5590  -11.0635 C.3     1  UNL1        0.1705
     41 C         -26.2511   51.4449  -13.3793 C.3     1  UNL1        0.1746
     42 O         -25.6864   50.9052  -12.2037 O.3     1  UNL1       -0.3463
@<TRIPOS>BOND
     1    41    42    1
     2    42    40    1
     3    40     1    1
     4     1     2   ar
     5     2    16    1
     6    16    17    2
     7    16    18   am
     8    18    20    1
     9    20    21   ar
    10    21    22   ar
    11    22    23   ar
    12    23    24   ar
    13    24    26    1
    14    26    27    1
    15    26    28    1
    16    26    29    1
    17    24    25   ar
    18     2     3   ar
    19     3     4   ar
    20     4     5   ar
    21     5     6   ar
    22     6     7   ar
    23     7     8   ar
    24     8    30    1
    25    30    32    1
    26    32    33   ar
    27    33    34    1
    28    33    35   ar
    29    35    36   ar
    30    36    37   ar
    31    37    38   ar
    32    38    39    1
    33     8     9   ar
    34     9    10    1
    35     4    11    1
    36    11    12    1
    37    12    13    1
    38    12    14    1
    39    12    15    1
    40     6     1   ar
    41    38    32   ar
    42    25    20   ar
    43    15     3    1
    44     9     5   ar
    45    18    19    1
    46    30    31    1
@<TRIPOS>MOLECULE
*****
 42 46 0 0 0
SMALL
GASTEIGER

@<TRIPOS>ATOM
      1 C         -29.4322   50.8024  -10.1176 C.ar    1  UNL1        0.0337
      2 C         -29.6368   49.8328  -11.1495 C.ar    1  UNL1        0.0872
      3 C         -29.8032   48.4804  -10.7775 C.ar    1  UNL1        0.1398
      4 C         -29.7976   48.0676   -9.4686 C.ar    1  UNL1        0.0327
      5 C         -29.6381   49.0206   -8.4629 C.ar    1  UNL1        0.0787
      6 C         -29.4719   50.3430   -8.7839 C.ar    1  UNL1        0.0983
      7 N         -29.3559   51.0787   -7.6632 N.ar    1  UNL1       -0.2137
      8 C         -29.4527   50.1561   -6.6711 C.ar    1  UNL1        0.2018
      9 N         -29.6194   48.8836   -7.1236 N.ar    1  UNL1       -0.2977
     10 C         -29.7684   47.6560   -6.3427 C.3     1  UNL1        0.1332
     11 C         -30.0128   46.5965   -9.3963 C.3     1  UNL1        0.0709
     12 C         -30.1822   46.2014  -10.9007 C.3     1  UNL1        0.1375
     13 C         -31.5834   45.6384  -11.1740 C.3     1  UNL1        0.0439
     14 C         -29.1073   45.1990  -11.3418 C.3     1  UNL1        0.0439
     15 O         -30.0168   47.4184  -11.6317 O.3     1  UNL1       -0.4824
     16 C         -29.7027   50.1892  -12.5789 C.2     1  UNL1        0.2523
     17 O         -29.2186   51.2896  -12.9585 O.2     1  UNL1       -0.2697
     18 N         -30.3005   49.2858  -13.5241 N.am    1  UNL1       -0.2803
     19 H         -30.7869   48.4376  -13.1552 H       1  UNL1        0.1552
     20 C         -30.3677   49.5303  -14.9386 C.ar    1  UNL1        0.0505
     21 C         -31.5372   50.0238  -15.5411 C.ar    1  UNL1        0.0147
     22 C         -31.5634   50.2902  -16.9115 C.ar    1  UNL1        0.0012
     23 C         -30.4262   50.0727  -17.6925 C.ar    1  UNL1        0.0039
     24 C         -29.2482   49.5758  -17.1091 C.ar    1  UNL1        0.0726
     25 C         -29.2207   49.3372  -15.7234 C.ar    1  UNL1        0.0185
     26 C         -28.0010   49.3979  -17.9381 C.3     1  UNL1        0.4186
     27 F         -27.9145   50.3794  -18.9103 F       1  UNL1       -0.1659
     28 F         -28.0058   48.1653  -18.5681 F       1  UNL1       -0.1659
     29 F         -26.8928   49.4793  -17.1160 F       1  UNL1       -0.1659
     30 N         -29.4168   50.5137   -5.2814 N.pl3   1  UNL1       -0.2814
     31 H         -29.8429   51.4192   -4.9851 H       1  UNL1        0.1551
     32 C         -28.5632   49.8378   -4.3459 C.ar    1  UNL1        0.0889
     33 C         -29.1374   49.0154   -3.3621 C.ar    1  UNL1        0.1543
     34 F         -30.4849   48.8741   -3.2893 F       1  UNL1       -0.2028
     35 C         -28.3275   48.3539   -2.4345 C.ar    1  UNL1        0.0310
     36 C         -26.9399   48.4959   -2.4887 C.ar    1  UNL1        0.0033
     37 C         -26.3562   49.2908   -3.4776 C.ar    1  UNL1        0.0128
     38 C         -27.1571   49.9581   -4.4124 C.ar    1  UNL1        0.0733
     39 CL        -26.3636   50.8686   -5.6931 Cl      1  UNL1       -0.0809
     40 C         -29.1649   52.2673  -10.4052 C.3     1  UNL1        0.1705
     41 C         -26.9618   51.5688  -10.2156 C.3     1  UNL1        0.1746
     42 O         -27.8576   52.6399  -10.0097 O.3     1  UNL1       -0.3463
@<TRIPOS>BOND
     1    41    42    1
     2    42    40    1
     3    40     1    1
     4     1     2   ar
     5     2    16    1
     6    16    17    2
     7    16    18   am
     8    18    20    1
     9    20    21   ar
    10    21    22   ar
    11    22    23   ar
    12    23    24   ar
    13    24    26    1
    14    26    27    1
    15    26    28    1
    16    26    29    1
    17    24    25   ar
    18     2     3   ar
    19     3     4   ar
    20     4     5   ar
    21     5     6   ar
    22     6     7   ar
    23     7     8   ar
    24     8    30    1
    25    30    32    1
    26    32    33   ar
    27    33    34    1
    28    33    35   ar
    29    35    36   ar
    30    36    37   ar
    31    37    38   ar
    32    38    39    1
    33     8     9   ar
    34     9    10    1
    35     4    11    1
    36    11    12    1
    37    12    13    1
    38    12    14    1
    39    12    15    1
    40     6     1   ar
    41    38    32   ar
    42    25    20   ar
    43    15     3    1
    44     9     5   ar
    45    18    19    1
    46    30    31    1
