@<TRIPOS>MOLECULE
*****
 37 40 0 0 0
SMALL
GASTEIGER

@<TRIPOS>ATOM
      1 N         -28.1364   50.3934   -8.1295 N.am    1  UNL1       -0.2685
      2 C         -27.3111   51.5661   -7.9565 C.2     1  UNL1        0.2672
      3 O         -27.7992   52.5863   -7.3965 O.2     1  UNL1       -0.2682
      4 C         -25.8988   51.5865   -8.4023 C.ar    1  UNL1        0.1347
      5 C         -25.5019   52.3547   -9.5099 C.ar    1  UNL1        0.0238
      6 C         -24.1535   52.3757   -9.8906 C.ar    1  UNL1        0.0031
      7 C         -23.7274   53.1362  -10.9907 C.ar    1  UNL1        0.0001
      8 C         -22.3773   53.1471  -11.3545 C.ar    1  UNL1        0.0000
      9 C         -21.4459   52.4018  -10.6256 C.ar    1  UNL1        0.0000
     10 C         -21.8585   51.6404   -9.5280 C.ar    1  UNL1        0.0015
     11 C         -23.2108   51.6229   -9.1556 C.ar    1  UNL1        0.0192
     12 C         -23.6495   50.8710   -8.0604 C.ar    1  UNL1        0.0989
     13 N         -24.9631   50.8773   -7.7144 N.ar    1  UNL1       -0.2393
     14 C         -28.4069   49.9540   -9.5205 C.3     1  UNL1        0.1007
     15 C         -29.7071   50.5875  -10.0390 C.3     1  UNL1        0.0265
     16 C         -28.2877   48.4395   -9.6902 C.ar    1  UNL1        0.0234
     17 C         -29.3771   47.7620  -10.2736 C.ar    1  UNL1        0.0019
     18 C         -29.3408   46.3817  -10.4801 C.ar    1  UNL1        0.0295
     19 C         -28.2205   45.6470  -10.0970 C.ar    1  UNL1        0.1424
     20 F         -28.1843   44.3077  -10.3033 F       1  UNL1       -0.2041
     21 C         -27.1332   46.2928   -9.5085 C.ar    1  UNL1        0.0590
     22 C         -27.1541   47.6775   -9.3050 C.ar    1  UNL1        0.1399
     23 F         -26.0493   48.2479   -8.7669 F       1  UNL1       -0.2044
     24 C         -29.0460   50.0403   -7.0159 C.3     1  UNL1        0.1205
     25 C         -27.6720   48.2020   -5.8043 C.ar    1  UNL1        0.0111
     26 C         -28.8389   48.6228   -6.5144 C.ar    1  UNL1       -0.0037
     27 C         -29.8679   47.6974   -6.7579 C.ar    1  UNL1       -0.0028
     28 C         -29.7305   46.3637   -6.3979 C.ar    1  UNL1       -0.0001
     29 C         -28.5706   45.9255   -5.7741 C.ar    1  UNL1        0.0062
     30 C         -27.5396   46.8232   -5.4536 C.ar    1  UNL1        0.0736
     31 C         -26.3413   46.2648   -4.7760 C.2     1  UNL1        0.3378
     32 O         -25.4455   45.6969   -5.4579 O.2     1  UNL1       -0.2451
     33 O         -26.2055   46.3157   -3.3926 O.3     1  UNL1       -0.4771
     34 H         -25.3907   45.9259   -2.9343 H       1  UNL1        0.2954
     35 C         -26.5798   49.1876   -5.4302 C.3     1  UNL1        0.1686
     36 C         -26.2681   51.1470   -4.2545 C.3     1  UNL1        0.1746
     37 O         -26.9837   49.9324   -4.2998 O.3     1  UNL1       -0.3463
@<TRIPOS>BOND
     1    36    37    1
     2    37    35    1
     3    35    25    1
     4    25    26   ar
     5    26    24    1
     6    24     1    1
     7     1     2   am
     8     2     3    2
     9     2     4    1
    10     4     5   ar
    11     5     6   ar
    12     6     7   ar
    13     7     8   ar
    14     8     9   ar
    15     9    10   ar
    16    10    11   ar
    17    11    12   ar
    18    12    13   ar
    19     1    14    1
    20    14    15    1
    21    14    16    1
    22    16    17   ar
    23    17    18   ar
    24    18    19   ar
    25    19    20    1
    26    19    21   ar
    27    21    22   ar
    28    22    23    1
    29    26    27   ar
    30    27    28   ar
    31    28    29   ar
    32    29    30   ar
    33    30    31    1
    34    31    32    2
    35    31    33    1
    36    30    25   ar
    37    13     4   ar
    38    22    16   ar
    39    11     6   ar
    40    33    34    1
@<TRIPOS>MOLECULE
*****
 37 40 0 0 0
SMALL
GASTEIGER

@<TRIPOS>ATOM
      1 N         -28.9655   49.2097   -6.2335 N.am    1  UNL1       -0.2685
      2 C         -28.4196   50.5440   -6.1423 C.2     1  UNL1        0.2672
      3 O         -28.7238   51.2682   -5.1546 O.2     1  UNL1       -0.2682
      4 C         -27.4937   51.0692   -7.1720 C.ar    1  UNL1        0.1347
      5 C         -26.1252   50.7515   -7.1427 C.ar    1  UNL1        0.0238
      6 C         -25.2791   51.2407   -8.1468 C.ar    1  UNL1        0.0031
      7 C         -23.9087   50.9372   -8.1451 C.ar    1  UNL1        0.0001
      8 C         -23.0799   51.4323   -9.1567 C.ar    1  UNL1        0.0000
      9 C         -23.6109   52.2309  -10.1738 C.ar    1  UNL1        0.0000
     10 C         -24.9744   52.5399  -10.1861 C.ar    1  UNL1        0.0015
     11 C         -25.8137   52.0482   -9.1754 C.ar    1  UNL1        0.0192
     12 C         -27.1817   52.3410   -9.1653 C.ar    1  UNL1        0.0989
     13 N         -27.9753   51.8458   -8.1804 N.ar    1  UNL1       -0.2393
     14 C         -29.8406   48.9132   -7.3943 C.3     1  UNL1        0.1007
     15 C         -31.3109   48.8471   -6.9536 C.3     1  UNL1        0.0265
     16 C         -29.3370   47.7297   -8.2205 C.ar    1  UNL1        0.0234
     17 C         -29.9315   46.4733   -7.9879 C.ar    1  UNL1        0.0019
     18 C         -29.5413   45.3457   -8.7125 C.ar    1  UNL1        0.0295
     19 C         -28.5401   45.4465   -9.6765 C.ar    1  UNL1        0.1424
     20 F         -28.1662   44.3520  -10.3834 F       1  UNL1       -0.2041
     21 C         -27.9292   46.6768   -9.9187 C.ar    1  UNL1        0.0590
     22 C         -28.3186   47.8164   -9.2052 C.ar    1  UNL1        0.1399
     23 F         -27.7144   48.9878   -9.5182 F       1  UNL1       -0.2044
     24 C         -29.0581   48.4331   -4.9764 C.3     1  UNL1        0.1205
     25 C         -27.7266   46.6582   -3.6303 C.ar    1  UNL1        0.0111
     26 C         -27.9035   47.4644   -4.7972 C.ar    1  UNL1       -0.0037
     27 C         -26.9821   47.3591   -5.8529 C.ar    1  UNL1       -0.0028
     28 C         -25.8580   46.5520   -5.7435 C.ar    1  UNL1       -0.0001
     29 C         -25.6345   45.8204   -4.5853 C.ar    1  UNL1        0.0062
     30 C         -26.5572   45.8438   -3.5272 C.ar    1  UNL1        0.0736
     31 C         -26.2392   45.0196   -2.3328 C.2     1  UNL1        0.3378
     32 O         -27.0888   44.1953   -1.8981 O.2     1  UNL1       -0.2451
     33 O         -25.0351   45.1692   -1.6527 O.3     1  UNL1       -0.4771
     34 H         -24.8264   44.6111   -0.8336 H       1  UNL1        0.2954
     35 C         -28.7486   46.6629   -2.5078 C.3     1  UNL1        0.1686
     36 C         -29.5926   48.1542   -0.9643 C.3     1  UNL1        0.1746
     37 O         -28.4164   47.6675   -1.5718 O.3     1  UNL1       -0.3463
@<TRIPOS>BOND
     1    36    37    1
     2    37    35    1
     3    35    25    1
     4    25    26   ar
     5    26    24    1
     6    24     1    1
     7     1     2   am
     8     2     3    2
     9     2     4    1
    10     4     5   ar
    11     5     6   ar
    12     6     7   ar
    13     7     8   ar
    14     8     9   ar
    15     9    10   ar
    16    10    11   ar
    17    11    12   ar
    18    12    13   ar
    19     1    14    1
    20    14    15    1
    21    14    16    1
    22    16    17   ar
    23    17    18   ar
    24    18    19   ar
    25    19    20    1
    26    19    21   ar
    27    21    22   ar
    28    22    23    1
    29    26    27   ar
    30    27    28   ar
    31    28    29   ar
    32    29    30   ar
    33    30    31    1
    34    31    32    2
    35    31    33    1
    36    30    25   ar
    37    13     4   ar
    38    22    16   ar
    39    11     6   ar
    40    33    34    1
@<TRIPOS>MOLECULE
*****
 37 40 0 0 0
SMALL
GASTEIGER

@<TRIPOS>ATOM
      1 N         -29.7604   49.5013   -8.8178 N.am    1  UNL1       -0.2685
      2 C         -30.6965   49.5595   -9.9163 C.2     1  UNL1        0.2672
      3 O         -31.5795   50.4611   -9.9267 O.2     1  UNL1       -0.2682
      4 C         -30.6259   48.5971  -11.0399 C.ar    1  UNL1        0.1347
      5 C         -30.5338   49.0437  -12.3690 C.ar    1  UNL1        0.0238
      6 C         -30.4403   48.1090  -13.4088 C.ar    1  UNL1        0.0031
      7 C         -30.3439   48.5258  -14.7456 C.ar    1  UNL1        0.0001
      8 C         -30.2489   47.5787  -15.7699 C.ar    1  UNL1        0.0000
      9 C         -30.2492   46.2136  -15.4686 C.ar    1  UNL1        0.0000
     10 C         -30.3447   45.7864  -14.1408 C.ar    1  UNL1        0.0015
     11 C         -30.4408   46.7290  -13.1064 C.ar    1  UNL1        0.0192
     12 C         -30.5355   46.3282  -11.7694 C.ar    1  UNL1        0.0989
     13 N         -30.6188   47.2605  -10.7849 N.ar    1  UNL1       -0.2393
     14 C         -29.7777   48.2795   -7.9764 C.3     1  UNL1        0.1007
     15 C         -30.7361   48.4602   -6.7891 C.3     1  UNL1        0.0265
     16 C         -28.3728   47.7856   -7.6316 C.ar    1  UNL1        0.0234
     17 C         -28.0694   47.5837   -6.2702 C.ar    1  UNL1        0.0019
     18 C         -26.8151   47.1174   -5.8724 C.ar    1  UNL1        0.0295
     19 C         -25.8330   46.8543   -6.8253 C.ar    1  UNL1        0.1424
     20 F         -24.6174   46.3960   -6.4380 F       1  UNL1       -0.2041
     21 C         -26.1052   47.0554   -8.1784 C.ar    1  UNL1        0.0590
     22 C         -27.3621   47.5136   -8.5901 C.ar    1  UNL1        0.1399
     23 F         -27.5742   47.6481   -9.9213 F       1  UNL1       -0.2044
     24 C         -29.2509   50.7910   -8.2988 C.3     1  UNL1        0.1205
     25 C         -27.0207   51.0986   -9.5899 C.ar    1  UNL1        0.0111
     26 C         -27.7385   50.8972   -8.3703 C.ar    1  UNL1       -0.0037
     27 C         -27.0291   50.8065   -7.1608 C.ar    1  UNL1       -0.0028
     28 C         -25.6411   50.8211   -7.1426 C.ar    1  UNL1       -0.0001
     29 C         -24.9292   50.9411   -8.3281 C.ar    1  UNL1        0.0062
     30 C         -25.5923   51.0968   -9.5560 C.ar    1  UNL1        0.0736
     31 C         -24.7469   51.2298  -10.7703 C.2     1  UNL1        0.3378
     32 O         -24.8288   50.3671  -11.6864 O.2     1  UNL1       -0.2451
     33 O         -23.8293   52.2671  -10.9006 O.3     1  UNL1       -0.4771
     34 H         -23.2489   52.3487  -11.7266 H       1  UNL1        0.2954
     35 C         -27.7475   51.3026  -10.9068 C.3     1  UNL1        0.1686
     36 C         -29.4686   52.4770  -11.8955 C.3     1  UNL1        0.1746
     37 O         -28.5443   52.4667  -10.8302 O.3     1  UNL1       -0.3463
@<TRIPOS>BOND
     1    36    37    1
     2    37    35    1
     3    35    25    1
     4    25    26   ar
     5    26    24    1
     6    24     1    1
     7     1     2   am
     8     2     3    2
     9     2     4    1
    10     4     5   ar
    11     5     6   ar
    12     6     7   ar
    13     7     8   ar
    14     8     9   ar
    15     9    10   ar
    16    10    11   ar
    17    11    12   ar
    18    12    13   ar
    19     1    14    1
    20    14    15    1
    21    14    16    1
    22    16    17   ar
    23    17    18   ar
    24    18    19   ar
    25    19    20    1
    26    19    21   ar
    27    21    22   ar
    28    22    23    1
    29    26    27   ar
    30    27    28   ar
    31    28    29   ar
    32    29    30   ar
    33    30    31    1
    34    31    32    2
    35    31    33    1
    36    30    25   ar
    37    13     4   ar
    38    22    16   ar
    39    11     6   ar
    40    33    34    1
@<TRIPOS>MOLECULE
*****
 37 40 0 0 0
SMALL
GASTEIGER

@<TRIPOS>ATOM
      1 N         -29.5850   48.8284   -5.1470 N.am    1  UNL1       -0.2685
      2 C         -29.2362   50.2143   -5.3567 C.2     1  UNL1        0.2672
      3 O         -29.6159   51.0789   -4.5195 O.2     1  UNL1       -0.2682
      4 C         -28.4237   50.6362   -6.5209 C.ar    1  UNL1        0.1347
      5 C         -27.0307   50.4523   -6.5346 C.ar    1  UNL1        0.0238
      6 C         -26.2926   50.8361   -7.6621 C.ar    1  UNL1        0.0031
      7 C         -24.9006   50.6616   -7.7054 C.ar    1  UNL1        0.0001
      8 C         -24.1806   51.0484   -8.8401 C.ar    1  UNL1        0.0000
      9 C         -24.8425   51.6099   -9.9360 C.ar    1  UNL1        0.0000
     10 C         -26.2287   51.7886   -9.9045 C.ar    1  UNL1        0.0015
     11 C         -26.9595   51.4041   -8.7704 C.ar    1  UNL1        0.0192
     12 C         -28.3474   51.5704   -8.7140 C.ar    1  UNL1        0.0989
     13 N         -29.0337   51.1821   -7.6079 N.ar    1  UNL1       -0.2393
     14 C         -30.4383   48.1813   -6.1738 C.3     1  UNL1        0.1007
     15 C         -31.3457   47.1234   -5.5272 C.3     1  UNL1        0.0265
     16 C         -29.6402   47.7212   -7.3937 C.ar    1  UNL1        0.0234
     17 C         -30.2016   47.9550   -8.6651 C.ar    1  UNL1        0.0019
     18 C         -29.5291   47.5815   -9.8300 C.ar    1  UNL1        0.0295
     19 C         -28.2868   46.9553   -9.7495 C.ar    1  UNL1        0.1424
     20 F         -27.6322   46.5984  -10.8817 F       1  UNL1       -0.2041
     21 C         -27.7142   46.7039   -8.5028 C.ar    1  UNL1        0.0590
     22 C         -28.3746   47.0823   -7.3281 C.ar    1  UNL1        0.1399
     23 F         -27.7448   46.8464   -6.1520 F       1  UNL1       -0.2044
     24 C         -29.5309   48.3237   -3.7562 C.3     1  UNL1        0.1205
     25 C         -27.7656   46.5743   -3.0088 C.ar    1  UNL1        0.0111
     26 C         -28.1312   47.9177   -3.3321 C.ar    1  UNL1       -0.0037
     27 C         -27.1568   48.9286   -3.2774 C.ar    1  UNL1       -0.0028
     28 C         -25.8704   48.6589   -2.8306 C.ar    1  UNL1       -0.0001
     29 C         -25.5222   47.3727   -2.4422 C.ar    1  UNL1        0.0062
     30 C         -26.4419   46.3159   -2.5369 C.ar    1  UNL1        0.0736
     31 C         -25.9756   44.9717   -2.1094 C.2     1  UNL1        0.3378
     32 O         -25.6477   44.1184   -2.9780 O.2     1  UNL1       -0.2451
     33 O         -25.9344   44.6162   -0.7653 O.3     1  UNL1       -0.4771
     34 H         -25.6240   43.6954   -0.4791 H       1  UNL1        0.2954
     35 C         -28.7565   45.4330   -3.1496 C.3     1  UNL1        0.1686
     36 C         -29.5757   44.1196   -4.8591 C.3     1  UNL1        0.1746
     37 O         -28.4071   44.6401   -4.2654 O.3     1  UNL1       -0.3463
@<TRIPOS>BOND
     1    36    37    1
     2    37    35    1
     3    35    25    1
     4    25    26   ar
     5    26    24    1
     6    24     1    1
     7     1     2   am
     8     2     3    2
     9     2     4    1
    10     4     5   ar
    11     5     6   ar
    12     6     7   ar
    13     7     8   ar
    14     8     9   ar
    15     9    10   ar
    16    10    11   ar
    17    11    12   ar
    18    12    13   ar
    19     1    14    1
    20    14    15    1
    21    14    16    1
    22    16    17   ar
    23    17    18   ar
    24    18    19   ar
    25    19    20    1
    26    19    21   ar
    27    21    22   ar
    28    22    23    1
    29    26    27   ar
    30    27    28   ar
    31    28    29   ar
    32    29    30   ar
    33    30    31    1
    34    31    32    2
    35    31    33    1
    36    30    25   ar
    37    13     4   ar
    38    22    16   ar
    39    11     6   ar
    40    33    34    1
@<TRIPOS>MOLECULE
*****
 37 40 0 0 0
SMALL
GASTEIGER

@<TRIPOS>ATOM
      1 N         -29.2681   48.8394   -7.0680 N.am    1  UNL1       -0.2685
      2 C         -28.7184   47.5384   -7.3713 C.2     1  UNL1        0.2672
      3 O         -28.7227   47.1306   -8.5655 O.2     1  UNL1       -0.2682
      4 C         -28.1306   46.6851   -6.3130 C.ar    1  UNL1        0.1347
      5 C         -27.0247   47.1218   -5.5641 C.ar    1  UNL1        0.0238
      6 C         -26.5083   46.3036   -4.5505 C.ar    1  UNL1        0.0031
      7 C         -25.4066   46.7149   -3.7841 C.ar    1  UNL1        0.0001
      8 C         -24.9062   45.8862   -2.7750 C.ar    1  UNL1        0.0000
      9 C         -25.4997   44.6455   -2.5242 C.ar    1  UNL1        0.0000
     10 C         -26.5975   44.2252   -3.2810 C.ar    1  UNL1        0.0015
     11 C         -27.1064   45.0494   -4.2957 C.ar    1  UNL1        0.0192
     12 C         -28.2049   44.6534   -5.0662 C.ar    1  UNL1        0.0989
     13 N         -28.6846   45.4732   -6.0373 N.ar    1  UNL1       -0.2393
     14 C         -30.4424   48.8848   -6.1625 C.3     1  UNL1        0.1007
     15 C         -31.1384   50.2513   -6.2560 C.3     1  UNL1        0.0265
     16 C         -30.1132   48.3980   -4.7512 C.ar    1  UNL1        0.0234
     17 C         -30.8365   47.2935   -4.2583 C.ar    1  UNL1        0.0019
     18 C         -30.5846   46.7762   -2.9863 C.ar    1  UNL1        0.0295
     19 C         -29.6132   47.3590   -2.1748 C.ar    1  UNL1        0.1424
     20 F         -29.3656   46.8521   -0.9422 F       1  UNL1       -0.2041
     21 C         -28.8904   48.4592   -2.6358 C.ar    1  UNL1        0.0590
     22 C         -29.1275   48.9808   -3.9129 C.ar    1  UNL1        0.1399
     23 F         -28.3623   50.0240   -4.3150 F       1  UNL1       -0.2044
     24 C         -28.9927   49.9279   -8.0331 C.3     1  UNL1        0.1205
     25 C         -26.8758   50.6644   -9.3414 C.ar    1  UNL1        0.0111
     26 C         -27.5174   50.2722   -8.1258 C.ar    1  UNL1       -0.0037
     27 C         -26.7666   50.2114   -6.9396 C.ar    1  UNL1       -0.0028
     28 C         -25.3974   50.4401   -6.9470 C.ar    1  UNL1       -0.0001
     29 C         -24.7481   50.7488   -8.1343 C.ar    1  UNL1        0.0062
     30 C         -25.4637   50.8821   -9.3350 C.ar    1  UNL1        0.0736
     31 C         -24.6854   51.2262  -10.5528 C.2     1  UNL1        0.3378
     32 O         -24.0129   52.2925  -10.5841 O.2     1  UNL1       -0.2451
     33 O         -24.7174   50.4154  -11.6825 O.3     1  UNL1       -0.4771
     34 H         -24.1920   50.6587  -12.5136 H       1  UNL1        0.2954
     35 C         -27.6644   50.8414  -10.6263 C.3     1  UNL1        0.1686
     36 C         -29.4453   52.0955  -11.3841 C.3     1  UNL1        0.1746
     37 O         -28.2402   52.1312  -10.6522 O.3     1  UNL1       -0.3463
@<TRIPOS>BOND
     1    36    37    1
     2    37    35    1
     3    35    25    1
     4    25    26   ar
     5    26    24    1
     6    24     1    1
     7     1     2   am
     8     2     3    2
     9     2     4    1
    10     4     5   ar
    11     5     6   ar
    12     6     7   ar
    13     7     8   ar
    14     8     9   ar
    15     9    10   ar
    16    10    11   ar
    17    11    12   ar
    18    12    13   ar
    19     1    14    1
    20    14    15    1
    21    14    16    1
    22    16    17   ar
    23    17    18   ar
    24    18    19   ar
    25    19    20    1
    26    19    21   ar
    27    21    22   ar
    28    22    23    1
    29    26    27   ar
    30    27    28   ar
    31    28    29   ar
    32    29    30   ar
    33    30    31    1
    34    31    32    2
    35    31    33    1
    36    30    25   ar
    37    13     4   ar
    38    22    16   ar
    39    11     6   ar
    40    33    34    1
@<TRIPOS>MOLECULE
*****
 37 40 0 0 0
SMALL
GASTEIGER

@<TRIPOS>ATOM
      1 N         -28.9231   49.3964   -7.0486 N.am    1  UNL1       -0.2685
      2 C         -29.7237   48.6518   -6.1046 C.2     1  UNL1        0.2672
      3 O         -30.9818   48.7258   -6.1700 O.2     1  UNL1       -0.2682
      4 C         -29.0980   47.7872   -5.0776 C.ar    1  UNL1        0.1347
      5 C         -27.8726   47.1449   -5.3231 C.ar    1  UNL1        0.0238
      6 C         -27.2916   46.3556   -4.3216 C.ar    1  UNL1        0.0031
      7 C         -26.0669   45.7047   -4.5372 C.ar    1  UNL1        0.0001
      8 C         -25.5010   44.9230   -3.5252 C.ar    1  UNL1        0.0000
      9 C         -26.1508   44.7859   -2.2951 C.ar    1  UNL1        0.0000
     10 C         -27.3712   45.4294   -2.0687 C.ar    1  UNL1        0.0015
     11 C         -27.9470   46.2154   -3.0779 C.ar    1  UNL1        0.0192
     12 C         -29.1661   46.8714   -2.8766 C.ar    1  UNL1        0.0989
     13 N         -29.6990   47.6339   -3.8665 N.ar    1  UNL1       -0.2393
     14 C         -28.0201   50.4374   -6.4990 C.3     1  UNL1        0.1007
     15 C         -28.8327   51.6407   -5.9968 C.3     1  UNL1        0.0265
     16 C         -26.8586   50.7610   -7.4387 C.ar    1  UNL1        0.0234
     17 C         -26.9317   51.9605   -8.1751 C.ar    1  UNL1        0.0019
     18 C         -25.9046   52.3382   -9.0419 C.ar    1  UNL1        0.0295
     19 C         -24.7880   51.5197   -9.2008 C.ar    1  UNL1        0.1424
     20 F         -23.7887   51.8905  -10.0384 F       1  UNL1       -0.2041
     21 C         -24.6963   50.3228   -8.4907 C.ar    1  UNL1        0.0590
     22 C         -25.7154   49.9380   -7.6117 C.ar    1  UNL1        0.1399
     23 F         -25.5449   48.7845   -6.9220 F       1  UNL1       -0.2044
     24 C         -29.4093   49.4532   -8.4459 C.3     1  UNL1        0.1205
     25 C         -29.6770   47.8486  -10.4679 C.ar    1  UNL1        0.0111
     26 C         -29.0270   48.2252   -9.2519 C.ar    1  UNL1       -0.0037
     27 C         -27.9657   47.4422   -8.7673 C.ar    1  UNL1       -0.0028
     28 C         -27.5980   46.2638   -9.4023 C.ar    1  UNL1       -0.0001
     29 C         -28.2703   45.8469  -10.5428 C.ar    1  UNL1        0.0062
     30 C         -29.2965   46.6256  -11.1013 C.ar    1  UNL1        0.0736
     31 C         -29.9505   46.1046  -12.3293 C.2     1  UNL1        0.3378
     32 O         -29.2943   46.0309  -13.4036 O.2     1  UNL1       -0.2451
     33 O         -31.2915   45.7353  -12.3313 O.3     1  UNL1       -0.4771
     34 H         -31.7354   45.3888  -13.1732 H       1  UNL1        0.2954
     35 C         -30.7600   48.7161  -11.0832 C.3     1  UNL1        0.1686
     36 C         -30.5408   49.7721  -13.1217 C.3     1  UNL1        0.1746
     37 O         -30.1649   49.8024  -11.7626 O.3     1  UNL1       -0.3463
@<TRIPOS>BOND
     1    36    37    1
     2    37    35    1
     3    35    25    1
     4    25    26   ar
     5    26    24    1
     6    24     1    1
     7     1     2   am
     8     2     3    2
     9     2     4    1
    10     4     5   ar
    11     5     6   ar
    12     6     7   ar
    13     7     8   ar
    14     8     9   ar
    15     9    10   ar
    16    10    11   ar
    17    11    12   ar
    18    12    13   ar
    19     1    14    1
    20    14    15    1
    21    14    16    1
    22    16    17   ar
    23    17    18   ar
    24    18    19   ar
    25    19    20    1
    26    19    21   ar
    27    21    22   ar
    28    22    23    1
    29    26    27   ar
    30    27    28   ar
    31    28    29   ar
    32    29    30   ar
    33    30    31    1
    34    31    32    2
    35    31    33    1
    36    30    25   ar
    37    13     4   ar
    38    22    16   ar
    39    11     6   ar
    40    33    34    1
@<TRIPOS>MOLECULE
*****
 37 40 0 0 0
SMALL
GASTEIGER

@<TRIPOS>ATOM
      1 N         -28.4524   49.2085   -7.2290 N.am    1  UNL1       -0.2685
      2 C         -27.1335   48.6762   -7.4813 C.2     1  UNL1        0.2672
      3 O         -26.8999   47.4622   -7.2279 O.2     1  UNL1       -0.2682
      4 C         -26.0586   49.5205   -8.0518 C.ar    1  UNL1        0.1347
      5 C         -26.0708   49.8868   -9.4083 C.ar    1  UNL1        0.0238
      6 C         -25.0548   50.7097   -9.9125 C.ar    1  UNL1        0.0031
      7 C         -25.0428   51.0943  -11.2623 C.ar    1  UNL1        0.0001
      8 C         -24.0221   51.9180  -11.7473 C.ar    1  UNL1        0.0000
      9 C         -23.0099   52.3624  -10.8916 C.ar    1  UNL1        0.0000
     10 C         -23.0113   51.9859   -9.5452 C.ar    1  UNL1        0.0015
     11 C         -24.0307   51.1595   -9.0495 C.ar    1  UNL1        0.0192
     12 C         -24.0566   50.7697   -7.7062 C.ar    1  UNL1        0.0989
     13 N         -25.0593   49.9760   -7.2482 N.ar    1  UNL1       -0.2393
     14 C         -28.5637   50.2979   -6.2281 C.3     1  UNL1        0.1007
     15 C         -28.4902   51.6688   -6.9180 C.3     1  UNL1        0.0265
     16 C         -27.6257   50.0981   -5.0377 C.ar    1  UNL1        0.0234
     17 C         -26.7008   51.1241   -4.7581 C.ar    1  UNL1        0.0019
     18 C         -25.8212   51.0273   -3.6784 C.ar    1  UNL1        0.0295
     19 C         -25.8383   49.8980   -2.8622 C.ar    1  UNL1        0.1424
     20 F         -24.9875   49.8080   -1.8107 F       1  UNL1       -0.2041
     21 C         -26.7375   48.8644   -3.1237 C.ar    1  UNL1        0.0590
     22 C         -27.6308   48.9542   -4.1977 C.ar    1  UNL1        0.1399
     23 F         -28.5056   47.9345   -4.3713 F       1  UNL1       -0.2044
     24 C         -29.6037   48.3362   -7.5544 C.3     1  UNL1        0.1205
     25 C         -29.7738   47.2138   -9.8881 C.ar    1  UNL1        0.0111
     26 C         -29.9489   48.3452   -9.0324 C.ar    1  UNL1       -0.0037
     27 C         -30.4820   49.5327   -9.5615 C.ar    1  UNL1       -0.0028
     28 C         -30.7579   49.6514  -10.9168 C.ar    1  UNL1       -0.0001
     29 C         -30.5224   48.5845  -11.7728 C.ar    1  UNL1        0.0062
     30 C         -30.0487   47.3568  -11.2829 C.ar    1  UNL1        0.0736
     31 C         -29.8377   46.2687  -12.2722 C.2     1  UNL1        0.3378
     32 O         -30.8177   45.8213  -12.9277 O.2     1  UNL1       -0.2451
     33 O         -28.5831   45.6985  -12.4609 O.3     1  UNL1       -0.4771
     34 H         -28.4459   44.9509  -13.1304 H       1  UNL1        0.2954
     35 C         -29.2962   45.8802   -9.3424 C.3     1  UNL1        0.1686
     36 C         -30.3065   44.4408   -7.8504 C.3     1  UNL1        0.1746
     37 O         -30.4067   45.0343   -9.1259 O.3     1  UNL1       -0.3463
@<TRIPOS>BOND
     1    36    37    1
     2    37    35    1
     3    35    25    1
     4    25    26   ar
     5    26    24    1
     6    24     1    1
     7     1     2   am
     8     2     3    2
     9     2     4    1
    10     4     5   ar
    11     5     6   ar
    12     6     7   ar
    13     7     8   ar
    14     8     9   ar
    15     9    10   ar
    16    10    11   ar
    17    11    12   ar
    18    12    13   ar
    19     1    14    1
    20    14    15    1
    21    14    16    1
    22    16    17   ar
    23    17    18   ar
    24    18    19   ar
    25    19    20    1
    26    19    21   ar
    27    21    22   ar
    28    22    23    1
    29    26    27   ar
    30    27    28   ar
    31    28    29   ar
    32    29    30   ar
    33    30    31    1
    34    31    32    2
    35    31    33    1
    36    30    25   ar
    37    13     4   ar
    38    22    16   ar
    39    11     6   ar
    40    33    34    1
@<TRIPOS>MOLECULE
*****
 37 40 0 0 0
SMALL
GASTEIGER

@<TRIPOS>ATOM
      1 N         -29.3151   49.0399   -5.2140 N.am    1  UNL1       -0.2685
      2 C         -30.4313   49.3368   -4.3466 C.2     1  UNL1        0.2672
      3 O         -31.2759   50.2038   -4.7037 O.2     1  UNL1       -0.2682
      4 C         -30.6156   48.6284   -3.0590 C.ar    1  UNL1        0.1347
      5 C         -30.8550   47.2442   -3.0237 C.ar    1  UNL1        0.0238
      6 C         -30.9974   46.5973   -1.7889 C.ar    1  UNL1        0.0031
      7 C         -31.2340   45.2154   -1.7228 C.ar    1  UNL1        0.0001
      8 C         -31.3710   44.5864   -0.4814 C.ar    1  UNL1        0.0000
      9 C         -31.2730   45.3293    0.6987 C.ar    1  UNL1        0.0000
     10 C         -31.0374   46.7064    0.6454 C.ar    1  UNL1        0.0015
     11 C         -30.8990   47.3464   -0.5952 C.ar    1  UNL1        0.0192
     12 C         -30.6610   48.7226   -0.6763 C.ar    1  UNL1        0.0989
     13 N         -30.5220   49.3177   -1.8895 N.ar    1  UNL1       -0.2393
     14 C         -27.9557   49.3175   -4.6886 C.3     1  UNL1        0.1007
     15 C         -27.1880   50.2388   -5.6491 C.3     1  UNL1        0.0265
     16 C         -27.2246   48.0472   -4.2542 C.ar    1  UNL1        0.0234
     17 C         -26.6431   47.2534   -5.2631 C.ar    1  UNL1        0.0019
     18 C         -25.9428   46.0872   -4.9490 C.ar    1  UNL1        0.0295
     19 C         -25.8190   45.6826   -3.6213 C.ar    1  UNL1        0.1424
     20 F         -25.1339   44.5530   -3.3174 F       1  UNL1       -0.2041
     21 C         -26.3939   46.4457   -2.6052 C.ar    1  UNL1        0.0590
     22 C         -27.0903   47.6218   -2.9069 C.ar    1  UNL1        0.1399
     23 F         -27.5885   48.3379   -1.8704 F       1  UNL1       -0.2044
     24 C         -29.5874   48.9914   -6.6685 C.3     1  UNL1        0.1205
     25 C         -28.8030   47.2834   -8.4581 C.ar    1  UNL1        0.0111
     26 C         -29.4847   47.5889   -7.2395 C.ar    1  UNL1       -0.0037
     27 C         -30.0840   46.5503   -6.5069 C.ar    1  UNL1       -0.0028
     28 C         -30.1001   45.2497   -6.9917 C.ar    1  UNL1       -0.0001
     29 C         -29.5065   44.9521   -8.2105 C.ar    1  UNL1        0.0062
     30 C         -28.8412   45.9427   -8.9506 C.ar    1  UNL1        0.0736
     31 C         -28.2259   45.5281  -10.2377 C.2     1  UNL1        0.3378
     32 O         -28.8550   45.7035  -11.3164 O.2     1  UNL1       -0.2451
     33 O         -26.9820   44.9067  -10.2755 O.3     1  UNL1       -0.4771
     34 H         -26.5703   44.6179  -11.1548 H       1  UNL1        0.2954
     35 C         -28.0556   48.3543   -9.2319 C.3     1  UNL1        0.1686
     36 C         -26.1178   49.6043   -9.2664 C.3     1  UNL1        0.1746
     37 O         -26.7277   48.4390   -8.7571 O.3     1  UNL1       -0.3463
@<TRIPOS>BOND
     1    36    37    1
     2    37    35    1
     3    35    25    1
     4    25    26   ar
     5    26    24    1
     6    24     1    1
     7     1     2   am
     8     2     3    2
     9     2     4    1
    10     4     5   ar
    11     5     6   ar
    12     6     7   ar
    13     7     8   ar
    14     8     9   ar
    15     9    10   ar
    16    10    11   ar
    17    11    12   ar
    18    12    13   ar
    19     1    14    1
    20    14    15    1
    21    14    16    1
    22    16    17   ar
    23    17    18   ar
    24    18    19   ar
    25    19    20    1
    26    19    21   ar
    27    21    22   ar
    28    22    23    1
    29    26    27   ar
    30    27    28   ar
    31    28    29   ar
    32    29    30   ar
    33    30    31    1
    34    31    32    2
    35    31    33    1
    36    30    25   ar
    37    13     4   ar
    38    22    16   ar
    39    11     6   ar
    40    33    34    1
@<TRIPOS>MOLECULE
*****
 37 40 0 0 0
SMALL
GASTEIGER

@<TRIPOS>ATOM
      1 N         -29.5514   48.1799   -7.2076 N.am    1  UNL1       -0.2685
      2 C         -29.3020   46.8120   -6.8164 C.2     1  UNL1        0.2672
      3 O         -30.0258   45.8934   -7.2906 O.2     1  UNL1       -0.2682
      4 C         -28.2007   46.4650   -5.8887 C.ar    1  UNL1        0.1347
      5 C         -28.4676   45.9043   -4.6282 C.ar    1  UNL1        0.0238
      6 C         -27.4034   45.5607   -3.7838 C.ar    1  UNL1        0.0031
      7 C         -27.6395   44.9962   -2.5206 C.ar    1  UNL1        0.0001
      8 C         -26.5649   44.6573   -1.6925 C.ar    1  UNL1        0.0000
      9 C         -25.2516   44.8783   -2.1176 C.ar    1  UNL1        0.0000
     10 C         -25.0041   45.4399   -3.3737 C.ar    1  UNL1        0.0015
     11 C         -26.0755   45.7836   -4.2115 C.ar    1  UNL1        0.0192
     12 C         -25.8552   46.3452   -5.4737 C.ar    1  UNL1        0.0989
     13 N         -26.9094   46.6614   -6.2700 N.ar    1  UNL1       -0.2393
     14 C         -29.9449   49.1299   -6.1382 C.3     1  UNL1        0.1007
     15 C         -31.1634   49.9563   -6.5774 C.3     1  UNL1        0.0265
     16 C         -28.7579   49.9262   -5.5960 C.ar    1  UNL1        0.0234
     17 C         -28.0260   49.3611   -4.5325 C.ar    1  UNL1        0.0019
     18 C         -26.9178   50.0156   -3.9919 C.ar    1  UNL1        0.0295
     19 C         -26.5243   51.2545   -4.4941 C.ar    1  UNL1        0.1424
     20 F         -25.4445   51.8863   -3.9721 F       1  UNL1       -0.2041
     21 C         -27.2380   51.8395   -5.5400 C.ar    1  UNL1        0.0590
     22 C         -28.3451   51.1885   -6.0964 C.ar    1  UNL1        0.1399
     23 F         -28.9686   51.7920   -7.1368 F       1  UNL1       -0.2044
     24 C         -29.9056   48.4205   -8.6249 C.3     1  UNL1        0.1205
     25 C         -29.4683   50.4591  -10.1704 C.ar    1  UNL1        0.0111
     26 C         -28.9949   49.4333   -9.2947 C.ar    1  UNL1       -0.0037
     27 C         -27.6210   49.3493   -9.0119 C.ar    1  UNL1       -0.0028
     28 C         -26.7094   50.1892   -9.6368 C.ar    1  UNL1       -0.0001
     29 C         -27.1479   51.1413  -10.5467 C.ar    1  UNL1        0.0062
     30 C         -28.5160   51.3059  -10.8166 C.ar    1  UNL1        0.0736
     31 C         -28.8915   52.3582  -11.7957 C.2     1  UNL1        0.3378
     32 O         -28.5562   52.2351  -13.0050 O.2     1  UNL1       -0.2451
     33 O         -29.5709   53.5048  -11.3974 O.3     1  UNL1       -0.4771
     34 H         -29.8172   54.2236  -12.0672 H       1  UNL1        0.2954
     35 C         -30.9518   50.6524  -10.4271 C.3     1  UNL1        0.1686
     36 C         -31.5837   49.0949  -12.0063 C.3     1  UNL1        0.1746
     37 O         -31.2246   50.4428  -11.7973 O.3     1  UNL1       -0.3463
@<TRIPOS>BOND
     1    36    37    1
     2    37    35    1
     3    35    25    1
     4    25    26   ar
     5    26    24    1
     6    24     1    1
     7     1     2   am
     8     2     3    2
     9     2     4    1
    10     4     5   ar
    11     5     6   ar
    12     6     7   ar
    13     7     8   ar
    14     8     9   ar
    15     9    10   ar
    16    10    11   ar
    17    11    12   ar
    18    12    13   ar
    19     1    14    1
    20    14    15    1
    21    14    16    1
    22    16    17   ar
    23    17    18   ar
    24    18    19   ar
    25    19    20    1
    26    19    21   ar
    27    21    22   ar
    28    22    23    1
    29    26    27   ar
    30    27    28   ar
    31    28    29   ar
    32    29    30   ar
    33    30    31    1
    34    31    32    2
    35    31    33    1
    36    30    25   ar
    37    13     4   ar
    38    22    16   ar
    39    11     6   ar
    40    33    34    1
