@<TRIPOS>MOLECULE
*****
 46 51 0 0 0
SMALL
GASTEIGER

@<TRIPOS>ATOM
      1 O         -62.8012  -42.5406  -21.9153 O.2     1  UNL1       -0.2701
      2 C         -63.3352  -41.7171  -22.7082 C.2     1  UNL1        0.2483
      3 N         -64.0110  -40.5616  -22.1868 N.am    1  UNL1       -0.2945
      4 H         -64.2330  -39.7730  -22.8362 H       1  UNL1        0.1501
      5 C         -63.2243  -41.9400  -24.1676 C.ar    1  UNL1        0.0808
      6 C         -62.4184  -42.9840  -24.6498 C.ar    1  UNL1        0.0080
      7 C         -62.2940  -43.2108  -26.0225 C.ar    1  UNL1        0.0148
      8 C         -62.9802  -42.4033  -26.9460 C.ar    1  UNL1        0.0502
      9 C         -63.8042  -41.3725  -26.4622 C.ar    1  UNL1        0.0443
     10 C         -63.9291  -41.1417  -25.0885 C.ar    1  UNL1        0.1457
     11 F         -64.7758  -40.1686  -24.6664 F       1  UNL1       -0.2040
     12 N         -62.8572  -42.6402  -28.3660 N.pl3   1  UNL1       -0.3040
     13 C         -62.4105  -41.5466  -29.2463 C.3     1  UNL1        0.1122
     14 C         -62.7288  -41.8407  -30.7140 C.3     1  UNL1        0.1123
     15 N         -62.2531  -43.1819  -31.0659 N.pl3   1  UNL1       -0.3034
     16 C         -62.4461  -44.3088  -30.1452 C.3     1  UNL1        0.1123
     17 C         -63.3152  -43.9134  -28.9456 C.3     1  UNL1        0.1122
     18 C         -61.5678  -43.4003  -32.3090 C.ar    1  UNL1        0.0586
     19 C         -62.2112  -43.0907  -33.5176 C.ar    1  UNL1        0.0154
     20 C         -61.5647  -43.3062  -34.7375 C.ar    1  UNL1        0.0013
     21 C         -60.2699  -43.8290  -34.7600 C.ar    1  UNL1        0.0009
     22 C         -59.6176  -44.1337  -33.5626 C.ar    1  UNL1        0.0126
     23 C         -60.2584  -43.9215  -32.3356 C.ar    1  UNL1        0.0709
     24 CL        -59.3810  -44.2703  -30.8523 Cl      1  UNL1       -0.0810
     25 C         -64.2332  -40.3762  -20.7501 C.3     1  UNL1        0.1535
     26 C         -63.9180  -38.9544  -20.3619 C.2     1  UNL1        0.2443
     27 O         -62.8091  -38.4512  -20.6915 O.2     1  UNL1       -0.2730
     28 N         -64.9198  -38.1537  -19.7139 N.am    1  UNL1       -0.2825
     29 H         -65.8950  -38.5286  -19.6778 H       1  UNL1        0.1549
     30 C         -64.7053  -36.8048  -19.2693 C.ar    1  UNL1        0.0535
     31 C         -65.7470  -35.8729  -19.3701 C.ar    1  UNL1        0.0353
     32 C         -65.5497  -34.5652  -18.9205 C.ar    1  UNL1        0.1002
     33 N         -64.3587  -34.2045  -18.3735 N.ar    1  UNL1       -0.2422
     34 C         -63.3364  -35.0914  -18.2454 C.ar    1  UNL1        0.1002
     35 C         -63.4913  -36.4090  -18.6837 C.ar    1  UNL1        0.0353
     36 C         -65.6869  -40.7318  -20.3877 C.3     1  UNL1        0.0569
     37 C         -65.7498  -41.7220  -19.2592 C.ar    1  UNL1       -0.0017
     38 C         -65.8388  -41.4254  -17.9020 C.ar    1  UNL1        0.0681
     39 N         -65.7529  -42.5561  -17.1649 N.ar    1  UNL1       -0.3523
     40 C         -65.5983  -43.5615  -18.0438 C.ar    1  UNL1        0.0563
     41 C         -65.4335  -44.9160  -17.7576 C.ar    1  UNL1        0.0170
     42 C         -65.2542  -45.7992  -18.8380 C.ar    1  UNL1        0.0015
     43 C         -65.2381  -45.3135  -20.1646 C.ar    1  UNL1        0.0001
     44 C         -65.4031  -43.9406  -20.4231 C.ar    1  UNL1        0.0012
     45 C         -65.5867  -43.0912  -19.3320 C.ar    1  UNL1        0.0131
     46 H         -65.7771  -42.6264  -16.1233 H       1  UNL1        0.1660
@<TRIPOS>BOND
     1     1     2    2
     2     2     3   am
     3     3    25    1
     4    25    36    1
     5    36    37    1
     6    37    38   ar
     7    38    39   ar
     8    39    40   ar
     9    40    41   ar
    10    41    42   ar
    11    42    43   ar
    12    43    44   ar
    13    44    45   ar
    14    25    26    1
    15    26    27    2
    16    26    28   am
    17    28    30    1
    18    30    31   ar
    19    31    32   ar
    20    32    33   ar
    21    33    34   ar
    22    34    35   ar
    23     2     5    1
    24     5     6   ar
    25     6     7   ar
    26     7     8   ar
    27     8    12    1
    28    12    13    1
    29    13    14    1
    30    14    15    1
    31    15    18    1
    32    18    19   ar
    33    19    20   ar
    34    20    21   ar
    35    21    22   ar
    36    22    23   ar
    37    23    24    1
    38    15    16    1
    39    16    17    1
    40     8     9   ar
    41     9    10   ar
    42    10    11    1
    43    45    37   ar
    44    35    30   ar
    45    10     5   ar
    46    45    40   ar
    47    17    12    1
    48    23    18   ar
    49     3     4    1
    50    39    46    1
    51    28    29    1
@<TRIPOS>MOLECULE
*****
 46 51 0 0 0
SMALL
GASTEIGER

@<TRIPOS>ATOM
      1 O         -62.5709  -42.7956  -21.6734 O.2     1  UNL1       -0.2701
      2 C         -63.0436  -41.9095  -22.4372 C.2     1  UNL1        0.2483
      3 N         -63.6627  -40.7412  -21.8755 N.am    1  UNL1       -0.2945
      4 H         -63.8286  -39.9138  -22.4927 H       1  UNL1        0.1501
      5 C         -62.9193  -42.0748  -23.9031 C.ar    1  UNL1        0.0808
      6 C         -63.8328  -41.4306  -24.7531 C.ar    1  UNL1        0.0080
      7 C         -63.7389  -41.5754  -26.1392 C.ar    1  UNL1        0.0148
      8 C         -62.7227  -42.3620  -26.7090 C.ar    1  UNL1        0.0502
      9 C         -61.7953  -42.9886  -25.8589 C.ar    1  UNL1        0.0443
     10 C         -61.8880  -42.8471  -24.4706 C.ar    1  UNL1        0.1457
     11 F         -60.9401  -43.4284  -23.6924 F       1  UNL1       -0.2040
     12 N         -62.6207  -42.5082  -28.1428 N.pl3   1  UNL1       -0.3040
     13 C         -61.8300  -41.5343  -28.9154 C.3     1  UNL1        0.1122
     14 C         -62.1638  -41.5966  -30.4075 C.3     1  UNL1        0.1123
     15 N         -62.1019  -42.9855  -30.8725 N.pl3   1  UNL1       -0.3034
     16 C         -62.6625  -44.0714  -30.0593 C.3     1  UNL1        0.1123
     17 C         -63.4185  -43.5297  -28.8405 C.3     1  UNL1        0.1122
     18 C         -61.4658  -43.2997  -32.1211 C.ar    1  UNL1        0.0586
     19 C         -62.1200  -42.9989  -33.3261 C.ar    1  UNL1        0.0154
     20 C         -61.5218  -43.3068  -34.5508 C.ar    1  UNL1        0.0013
     21 C         -60.2646  -43.9139  -34.5819 C.ar    1  UNL1        0.0009
     22 C         -59.6014  -44.2109  -33.3886 C.ar    1  UNL1        0.0126
     23 C         -60.1939  -43.9064  -32.1569 C.ar    1  UNL1        0.0709
     24 CL        -59.3013  -44.2502  -30.6814 Cl      1  UNL1       -0.0810
     25 C         -63.8997  -40.6059  -20.4356 C.3     1  UNL1        0.1535
     26 C         -63.3536  -39.2887  -19.9477 C.2     1  UNL1        0.2443
     27 O         -63.1116  -39.1327  -18.7195 O.2     1  UNL1       -0.2730
     28 N         -63.0162  -38.2623  -20.8949 N.am    1  UNL1       -0.2825
     29 H         -63.0049  -38.5190  -21.9082 H       1  UNL1        0.1549
     30 C         -62.5283  -36.9616  -20.5292 C.ar    1  UNL1        0.0535
     31 C         -63.0934  -36.2980  -19.4320 C.ar    1  UNL1        0.0353
     32 C         -62.6088  -35.0418  -19.0602 C.ar    1  UNL1        0.1002
     33 N         -61.5838  -34.4748  -19.7499 N.ar    1  UNL1       -0.2422
     34 C         -61.0033  -35.1028  -20.8066 C.ar    1  UNL1        0.1002
     35 C         -61.4586  -36.3598  -21.2125 C.ar    1  UNL1        0.0353
     36 C         -65.4053  -40.7188  -20.1327 C.3     1  UNL1        0.0569
     37 C         -65.6823  -41.7557  -19.0810 C.ar    1  UNL1       -0.0017
     38 C         -65.9641  -41.5181  -17.7386 C.ar    1  UNL1        0.0681
     39 N         -66.0407  -42.6847  -17.0586 N.ar    1  UNL1       -0.3523
     40 C         -65.7976  -43.6549  -17.9569 C.ar    1  UNL1        0.0563
     41 C         -65.7371  -45.0278  -17.7220 C.ar    1  UNL1        0.0170
     42 C         -65.4336  -45.8680  -18.8090 C.ar    1  UNL1        0.0015
     43 C         -65.1946  -45.3228  -20.0903 C.ar    1  UNL1        0.0001
     44 C         -65.2586  -43.9328  -20.2968 C.ar    1  UNL1        0.0012
     45 C         -65.5694  -43.1266  -19.2017 C.ar    1  UNL1        0.0131
     46 H         -66.2264  -42.8019  -16.0377 H       1  UNL1        0.1660
@<TRIPOS>BOND
     1     1     2    2
     2     2     3   am
     3     3    25    1
     4    25    36    1
     5    36    37    1
     6    37    38   ar
     7    38    39   ar
     8    39    40   ar
     9    40    41   ar
    10    41    42   ar
    11    42    43   ar
    12    43    44   ar
    13    44    45   ar
    14    25    26    1
    15    26    27    2
    16    26    28   am
    17    28    30    1
    18    30    31   ar
    19    31    32   ar
    20    32    33   ar
    21    33    34   ar
    22    34    35   ar
    23     2     5    1
    24     5     6   ar
    25     6     7   ar
    26     7     8   ar
    27     8    12    1
    28    12    13    1
    29    13    14    1
    30    14    15    1
    31    15    18    1
    32    18    19   ar
    33    19    20   ar
    34    20    21   ar
    35    21    22   ar
    36    22    23   ar
    37    23    24    1
    38    15    16    1
    39    16    17    1
    40     8     9   ar
    41     9    10   ar
    42    10    11    1
    43    45    37   ar
    44    35    30   ar
    45    10     5   ar
    46    45    40   ar
    47    17    12    1
    48    23    18   ar
    49     3     4    1
    50    39    46    1
    51    28    29    1
@<TRIPOS>MOLECULE
*****
 46 51 0 0 0
SMALL
GASTEIGER

@<TRIPOS>ATOM
      1 O         -61.3041  -42.6148  -20.0744 O.2     1  UNL1       -0.2701
      2 C         -62.0639  -41.9701  -20.8485 C.2     1  UNL1        0.2483
      3 N         -63.0012  -41.0271  -20.3046 N.am    1  UNL1       -0.2945
      4 H         -63.4459  -40.3324  -20.9469 H       1  UNL1        0.1501
      5 C         -61.9498  -42.1730  -22.3106 C.ar    1  UNL1        0.0808
      6 C         -63.0790  -41.9916  -23.1255 C.ar    1  UNL1        0.0080
      7 C         -62.9974  -42.1820  -24.5069 C.ar    1  UNL1        0.0148
      8 C         -61.7811  -42.5504  -25.1076 C.ar    1  UNL1        0.0502
      9 C         -60.6460  -42.7102  -24.2942 C.ar    1  UNL1        0.0443
     10 C         -60.7250  -42.5222  -22.9107 C.ar    1  UNL1        0.1457
     11 F         -59.5920  -42.6372  -22.1724 F       1  UNL1       -0.2040
     12 N         -61.6936  -42.7422  -26.5370 N.pl3   1  UNL1       -0.3040
     13 C         -60.8441  -41.8432  -27.3374 C.3     1  UNL1        0.1122
     14 C         -61.1862  -41.9245  -28.8267 C.3     1  UNL1        0.1123
     15 N         -61.2160  -43.3267  -29.2533 N.pl3   1  UNL1       -0.3034
     16 C         -61.8432  -44.3513  -28.4096 C.3     1  UNL1        0.1123
     17 C         -62.5584  -43.7285  -27.2050 C.3     1  UNL1        0.1122
     18 C         -60.6059  -43.7157  -30.4938 C.ar    1  UNL1        0.0586
     19 C         -59.4154  -44.4593  -30.4764 C.ar    1  UNL1        0.0154
     20 C         -58.8012  -44.8378  -31.6731 C.ar    1  UNL1        0.0013
     21 C         -59.3726  -44.4799  -32.8960 C.ar    1  UNL1        0.0009
     22 C         -60.5612  -43.7461  -32.9249 C.ar    1  UNL1        0.0126
     23 C         -61.1830  -43.3621  -31.7303 C.ar    1  UNL1        0.0709
     24 CL        -62.7044  -42.4845  -31.8134 Cl      1  UNL1       -0.0810
     25 C         -63.2133  -40.8899  -18.8610 C.3     1  UNL1        0.1535
     26 C         -63.7681  -39.5231  -18.5520 C.2     1  UNL1        0.2443
     27 O         -64.4856  -39.3605  -17.5272 O.2     1  UNL1       -0.2730
     28 N         -63.3911  -38.4003  -19.3655 N.am    1  UNL1       -0.2825
     29 H         -62.6123  -38.5340  -20.0499 H       1  UNL1        0.1549
     30 C         -63.8953  -37.0683  -19.1784 C.ar    1  UNL1        0.0535
     31 C         -65.2207  -36.7784  -19.5291 C.ar    1  UNL1        0.0353
     32 C         -65.7216  -35.4897  -19.3302 C.ar    1  UNL1        0.1002
     33 N         -64.9316  -34.5277  -18.7844 N.ar    1  UNL1       -0.2422
     34 C         -63.6481  -34.7842  -18.4170 C.ar    1  UNL1        0.1002
     35 C         -63.1073  -36.0594  -18.6000 C.ar    1  UNL1        0.0353
     36 C         -64.1637  -41.9918  -18.3572 C.3     1  UNL1        0.0569
     37 C         -65.0869  -42.4661  -19.4439 C.ar    1  UNL1       -0.0017
     38 C         -65.2802  -43.7838  -19.8490 C.ar    1  UNL1        0.0681
     39 N         -66.0899  -43.8312  -20.9313 N.ar    1  UNL1       -0.3523
     40 C         -66.3990  -42.5551  -21.2199 C.ar    1  UNL1        0.0563
     41 C         -67.1856  -42.0942  -22.2748 C.ar    1  UNL1        0.0170
     42 C         -67.3537  -40.7040  -22.4109 C.ar    1  UNL1        0.0015
     43 C         -66.7345  -39.8157  -21.5035 C.ar    1  UNL1        0.0001
     44 C         -65.9429  -40.3094  -20.4505 C.ar    1  UNL1        0.0012
     45 C         -65.8014  -41.6925  -20.3370 C.ar    1  UNL1        0.0131
     46 H         -66.3910  -44.6863  -21.4495 H       1  UNL1        0.1660
@<TRIPOS>BOND
     1     1     2    2
     2     2     3   am
     3     3    25    1
     4    25    36    1
     5    36    37    1
     6    37    38   ar
     7    38    39   ar
     8    39    40   ar
     9    40    41   ar
    10    41    42   ar
    11    42    43   ar
    12    43    44   ar
    13    44    45   ar
    14    25    26    1
    15    26    27    2
    16    26    28   am
    17    28    30    1
    18    30    31   ar
    19    31    32   ar
    20    32    33   ar
    21    33    34   ar
    22    34    35   ar
    23     2     5    1
    24     5     6   ar
    25     6     7   ar
    26     7     8   ar
    27     8    12    1
    28    12    13    1
    29    13    14    1
    30    14    15    1
    31    15    18    1
    32    18    19   ar
    33    19    20   ar
    34    20    21   ar
    35    21    22   ar
    36    22    23   ar
    37    23    24    1
    38    15    16    1
    39    16    17    1
    40     8     9   ar
    41     9    10   ar
    42    10    11    1
    43    45    37   ar
    44    35    30   ar
    45    10     5   ar
    46    45    40   ar
    47    17    12    1
    48    23    18   ar
    49     3     4    1
    50    39    46    1
    51    28    29    1
@<TRIPOS>MOLECULE
*****
 46 51 0 0 0
SMALL
GASTEIGER

@<TRIPOS>ATOM
      1 O         -60.4685  -41.9209  -21.0254 O.2     1  UNL1       -0.2701
      2 C         -61.5703  -41.9720  -21.6381 C.2     1  UNL1        0.2483
      3 N         -62.7823  -41.6116  -20.9561 N.am    1  UNL1       -0.2945
      4 H         -63.6407  -41.4225  -21.5219 H       1  UNL1        0.1501
      5 C         -61.5888  -42.3701  -23.0639 C.ar    1  UNL1        0.0808
      6 C         -60.4454  -42.9506  -23.6362 C.ar    1  UNL1        0.0080
      7 C         -60.4371  -43.3298  -24.9806 C.ar    1  UNL1        0.0148
      8 C         -61.5763  -43.1452  -25.7830 C.ar    1  UNL1        0.0502
      9 C         -62.7279  -42.5845  -25.2040 C.ar    1  UNL1        0.0443
     10 C         -62.7386  -42.2020  -23.8589 C.ar    1  UNL1        0.1457
     11 F         -63.8890  -41.7127  -23.3305 F       1  UNL1       -0.2040
     12 N         -61.5713  -43.5421  -27.1722 N.pl3   1  UNL1       -0.3040
     13 C         -62.6723  -43.1127  -28.0518 C.3     1  UNL1        0.1122
     14 C         -62.7210  -43.9417  -29.3372 C.3     1  UNL1        0.1123
     15 N         -61.3902  -43.9852  -29.9505 N.pl3   1  UNL1       -0.3034
     16 C         -60.1927  -44.1803  -29.1243 C.3     1  UNL1        0.1123
     17 C         -60.5576  -44.4877  -27.6673 C.3     1  UNL1        0.1122
     18 C         -61.2442  -43.8103  -31.3685 C.ar    1  UNL1        0.0586
     19 C         -62.3056  -43.2712  -32.1122 C.ar    1  UNL1        0.0154
     20 C         -62.1863  -43.1034  -33.4943 C.ar    1  UNL1        0.0013
     21 C         -61.0053  -43.4692  -34.1437 C.ar    1  UNL1        0.0009
     22 C         -59.9400  -43.9998  -33.4120 C.ar    1  UNL1        0.0126
     23 C         -60.0513  -44.1720  -32.0267 C.ar    1  UNL1        0.0709
     24 CL        -58.6676  -44.7948  -31.1383 Cl      1  UNL1       -0.0810
     25 C         -62.8070  -41.3244  -19.5192 C.3     1  UNL1        0.1535
     26 C         -62.8463  -39.8346  -19.2948 C.2     1  UNL1        0.2443
     27 O         -62.8912  -39.3842  -18.1173 O.2     1  UNL1       -0.2730
     28 N         -62.7273  -38.9419  -20.4144 N.am    1  UNL1       -0.2825
     29 H         -62.4515  -39.3504  -21.3363 H       1  UNL1        0.1549
     30 C         -62.7933  -37.5107  -20.3103 C.ar    1  UNL1        0.0535
     31 C         -61.8943  -36.7250  -21.0439 C.ar    1  UNL1        0.0353
     32 C         -61.9676  -35.3325  -20.9616 C.ar    1  UNL1        0.1002
     33 N         -62.9168  -34.7443  -20.1865 N.ar    1  UNL1       -0.2422
     34 C         -63.8142  -35.4800  -19.4785 C.ar    1  UNL1        0.1002
     35 C         -63.7749  -36.8757  -19.5315 C.ar    1  UNL1        0.0353
     36 C         -64.0205  -42.0079  -18.8622 C.3     1  UNL1        0.0569
     37 C         -65.1245  -42.2474  -19.8530 C.ar    1  UNL1       -0.0017
     38 C         -65.5393  -43.4807  -20.3479 C.ar    1  UNL1        0.0681
     39 N         -66.4745  -43.3129  -21.3104 N.ar    1  UNL1       -0.3523
     40 C         -66.6444  -41.9853  -21.4358 C.ar    1  UNL1        0.0563
     41 C         -67.4860  -41.3218  -22.3275 C.ar    1  UNL1        0.0170
     42 C         -67.4835  -39.9149  -22.3110 C.ar    1  UNL1        0.0015
     43 C         -66.6453  -39.2110  -21.4177 C.ar    1  UNL1        0.0001
     44 C         -65.8034  -39.9073  -20.5316 C.ar    1  UNL1        0.0012
     45 C         -65.8340  -41.3014  -20.5661 C.ar    1  UNL1        0.0131
     46 H         -66.9477  -44.0645  -21.8597 H       1  UNL1        0.1660
@<TRIPOS>BOND
     1     1     2    2
     2     2     3   am
     3     3    25    1
     4    25    36    1
     5    36    37    1
     6    37    38   ar
     7    38    39   ar
     8    39    40   ar
     9    40    41   ar
    10    41    42   ar
    11    42    43   ar
    12    43    44   ar
    13    44    45   ar
    14    25    26    1
    15    26    27    2
    16    26    28   am
    17    28    30    1
    18    30    31   ar
    19    31    32   ar
    20    32    33   ar
    21    33    34   ar
    22    34    35   ar
    23     2     5    1
    24     5     6   ar
    25     6     7   ar
    26     7     8   ar
    27     8    12    1
    28    12    13    1
    29    13    14    1
    30    14    15    1
    31    15    18    1
    32    18    19   ar
    33    19    20   ar
    34    20    21   ar
    35    21    22   ar
    36    22    23   ar
    37    23    24    1
    38    15    16    1
    39    16    17    1
    40     8     9   ar
    41     9    10   ar
    42    10    11    1
    43    45    37   ar
    44    35    30   ar
    45    10     5   ar
    46    45    40   ar
    47    17    12    1
    48    23    18   ar
    49     3     4    1
    50    39    46    1
    51    28    29    1
@<TRIPOS>MOLECULE
*****
 46 51 0 0 0
SMALL
GASTEIGER

@<TRIPOS>ATOM
      1 O         -60.5451  -46.5586  -23.3314 O.2     1  UNL1       -0.2701
      2 C         -61.4322  -45.8201  -23.8410 C.2     1  UNL1        0.2483
      3 N         -61.9846  -46.1522  -25.1249 N.am    1  UNL1       -0.2945
      4 H         -62.8720  -45.6887  -25.4258 H       1  UNL1        0.1501
      5 C         -61.9139  -44.6404  -23.0872 C.ar    1  UNL1        0.0808
      6 C         -62.4565  -44.8126  -21.8035 C.ar    1  UNL1        0.0080
      7 C         -62.9222  -43.7155  -21.0750 C.ar    1  UNL1        0.0148
      8 C         -62.8480  -42.4178  -21.6102 C.ar    1  UNL1        0.0502
      9 C         -62.2844  -42.2434  -22.8860 C.ar    1  UNL1        0.0443
     10 C         -61.8193  -43.3401  -23.6187 C.ar    1  UNL1        0.1457
     11 F         -61.2364  -43.1177  -24.8239 F       1  UNL1       -0.2040
     12 N         -63.3239  -41.2813  -20.8556 N.pl3   1  UNL1       -0.3040
     13 C         -62.4707  -40.7025  -19.8032 C.3     1  UNL1        0.1122
     14 C         -63.2737  -39.8054  -18.8587 C.3     1  UNL1        0.1123
     15 N         -64.0684  -38.8506  -19.6370 N.pl3   1  UNL1       -0.3034
     16 C         -64.7792  -39.2812  -20.8471 C.3     1  UNL1        0.1123
     17 C         -64.7039  -40.8011  -21.0335 C.3     1  UNL1        0.1122
     18 C         -64.1372  -37.4736  -19.2348 C.ar    1  UNL1        0.0586
     19 C         -65.0780  -37.0806  -18.2699 C.ar    1  UNL1        0.0154
     20 C         -65.1672  -35.7436  -17.8736 C.ar    1  UNL1        0.0013
     21 C         -64.3157  -34.7896  -18.4348 C.ar    1  UNL1        0.0009
     22 C         -63.3707  -35.1712  -19.3906 C.ar    1  UNL1        0.0126
     23 C         -63.2749  -36.5088  -19.7940 C.ar    1  UNL1        0.0709
     24 CL        -62.0370  -36.9533  -20.9609 Cl      1  UNL1       -0.0810
     25 C         -61.4480  -47.2454  -25.9402 C.3     1  UNL1        0.1535
     26 C         -61.7897  -48.5709  -25.3094 C.2     1  UNL1        0.2443
     27 O         -62.8394  -49.1750  -25.6621 O.2     1  UNL1       -0.2730
     28 N         -60.8680  -49.1823  -24.3922 N.am    1  UNL1       -0.2825
     29 H         -59.9112  -48.7685  -24.3144 H       1  UNL1        0.1549
     30 C         -61.1183  -50.4210  -23.7092 C.ar    1  UNL1        0.0535
     31 C         -60.0380  -51.2321  -23.3366 C.ar    1  UNL1        0.0353
     32 C         -60.2751  -52.4277  -22.6544 C.ar    1  UNL1        0.1002
     33 N         -61.5461  -52.7930  -22.3401 N.ar    1  UNL1       -0.2422
     34 C         -62.6123  -52.0176  -22.6717 C.ar    1  UNL1        0.1002
     35 C         -62.4196  -50.8147  -23.3557 C.ar    1  UNL1        0.0353
     36 C         -62.0063  -47.1623  -27.3729 C.3     1  UNL1        0.0569
     37 C         -61.0514  -46.4641  -28.2996 C.ar    1  UNL1       -0.0017
     38 C         -59.6617  -46.4752  -28.2179 C.ar    1  UNL1        0.0681
     39 N         -59.1278  -45.6433  -29.1410 N.ar    1  UNL1       -0.3523
     40 C         -60.1679  -45.0985  -29.7957 C.ar    1  UNL1        0.0563
     41 C         -60.1203  -44.1524  -30.8186 C.ar    1  UNL1        0.0170
     42 C         -61.3410  -43.6905  -31.3442 C.ar    1  UNL1        0.0015
     43 C         -62.5676  -44.1749  -30.8375 C.ar    1  UNL1        0.0001
     44 C         -62.5849  -45.1270  -29.8021 C.ar    1  UNL1        0.0012
     45 C         -61.3589  -45.5714  -29.3071 C.ar    1  UNL1        0.0131
     46 H         -58.1134  -45.4480  -29.2938 H       1  UNL1        0.1660
@<TRIPOS>BOND
     1     1     2    2
     2     2     3   am
     3     3    25    1
     4    25    36    1
     5    36    37    1
     6    37    38   ar
     7    38    39   ar
     8    39    40   ar
     9    40    41   ar
    10    41    42   ar
    11    42    43   ar
    12    43    44   ar
    13    44    45   ar
    14    25    26    1
    15    26    27    2
    16    26    28   am
    17    28    30    1
    18    30    31   ar
    19    31    32   ar
    20    32    33   ar
    21    33    34   ar
    22    34    35   ar
    23     2     5    1
    24     5     6   ar
    25     6     7   ar
    26     7     8   ar
    27     8    12    1
    28    12    13    1
    29    13    14    1
    30    14    15    1
    31    15    18    1
    32    18    19   ar
    33    19    20   ar
    34    20    21   ar
    35    21    22   ar
    36    22    23   ar
    37    23    24    1
    38    15    16    1
    39    16    17    1
    40     8     9   ar
    41     9    10   ar
    42    10    11    1
    43    45    37   ar
    44    35    30   ar
    45    10     5   ar
    46    45    40   ar
    47    17    12    1
    48    23    18   ar
    49     3     4    1
    50    39    46    1
    51    28    29    1
@<TRIPOS>MOLECULE
*****
 46 51 0 0 0
SMALL
GASTEIGER

@<TRIPOS>ATOM
      1 O         -61.1897  -44.0367  -21.1970 O.2     1  UNL1       -0.2701
      2 C         -61.8697  -43.3510  -22.0091 C.2     1  UNL1        0.2483
      3 N         -62.7320  -42.3126  -21.5172 N.am    1  UNL1       -0.2945
      4 H         -63.0970  -41.6009  -22.1904 H       1  UNL1        0.1501
      5 C         -61.7386  -43.6072  -23.4613 C.ar    1  UNL1        0.0808
      6 C         -61.1798  -42.6218  -24.2912 C.ar    1  UNL1        0.0080
      7 C         -61.0503  -42.8385  -25.6651 C.ar    1  UNL1        0.0148
      8 C         -61.4690  -44.0506  -26.2407 C.ar    1  UNL1        0.0502
      9 C         -62.0078  -45.0452  -25.4064 C.ar    1  UNL1        0.0443
     10 C         -62.1406  -44.8304  -24.0308 C.ar    1  UNL1        0.1457
     11 F         -62.6185  -45.8384  -23.2578 F       1  UNL1       -0.2040
     12 N         -61.3305  -44.2785  -27.6607 N.pl3   1  UNL1       -0.3040
     13 C         -62.5313  -44.2794  -28.5143 C.3     1  UNL1        0.1122
     14 C         -62.2552  -44.9287  -29.8722 C.3     1  UNL1        0.1123
     15 N         -61.0478  -44.3458  -30.4649 N.pl3   1  UNL1       -0.3034
     16 C         -59.8606  -44.0879  -29.6410 C.3     1  UNL1        0.1123
     17 C         -60.0239  -44.6535  -28.2253 C.3     1  UNL1        0.1122
     18 C         -61.0253  -43.9962  -31.8577 C.ar    1  UNL1        0.0586
     19 C         -62.1894  -43.5004  -32.4656 C.ar    1  UNL1        0.0154
     20 C         -62.1901  -43.1649  -33.8221 C.ar    1  UNL1        0.0013
     21 C         -61.0278  -43.3184  -34.5810 C.ar    1  UNL1        0.0009
     22 C         -59.8616  -43.8041  -33.9841 C.ar    1  UNL1        0.0126
     23 C         -59.8524  -44.1434  -32.6255 C.ar    1  UNL1        0.0709
     24 CL        -58.3492  -44.7015  -31.9038 Cl      1  UNL1       -0.0810
     25 C         -62.9662  -42.1135  -20.0842 C.3     1  UNL1        0.1535
     26 C         -62.7817  -40.6599  -19.7317 C.2     1  UNL1        0.2443
     27 O         -62.0983  -40.3478  -18.7183 O.2     1  UNL1       -0.2730
     28 N         -63.2957  -39.6434  -20.6076 N.am    1  UNL1       -0.2825
     29 H         -63.6399  -39.9398  -21.5491 H       1  UNL1        0.1549
     30 C         -63.2070  -38.2346  -20.3413 C.ar    1  UNL1        0.0535
     31 C         -62.2564  -37.4636  -21.0237 C.ar    1  UNL1        0.0353
     32 C         -62.1797  -36.0898  -20.7830 C.ar    1  UNL1        0.1002
     33 N         -63.0341  -35.5029  -19.9036 N.ar    1  UNL1       -0.2422
     34 C         -63.9787  -36.2217  -19.2411 C.ar    1  UNL1        0.1002
     35 C         -64.0884  -37.5986  -19.4514 C.ar    1  UNL1        0.0353
     36 C         -64.3801  -42.5921  -19.7062 C.3     1  UNL1        0.0569
     37 C         -65.4418  -41.7529  -20.3594 C.ar    1  UNL1       -0.0017
     38 C         -66.6321  -41.3246  -19.7782 C.ar    1  UNL1        0.0681
     39 N         -67.4025  -40.6915  -20.6919 N.ar    1  UNL1       -0.3523
     40 C         -66.7148  -40.7273  -21.8465 C.ar    1  UNL1        0.0563
     41 C         -67.1164  -40.2285  -23.0849 C.ar    1  UNL1        0.0170
     42 C         -66.2475  -40.4039  -24.1774 C.ar    1  UNL1        0.0015
     43 C         -65.0134  -41.0711  -24.0107 C.ar    1  UNL1        0.0001
     44 C         -64.6360  -41.5675  -22.7497 C.ar    1  UNL1        0.0012
     45 C         -65.5149  -41.3713  -21.6844 C.ar    1  UNL1        0.0131
     46 H         -68.3499  -40.2815  -20.5340 H       1  UNL1        0.1660
@<TRIPOS>BOND
     1     1     2    2
     2     2     3   am
     3     3    25    1
     4    25    36    1
     5    36    37    1
     6    37    38   ar
     7    38    39   ar
     8    39    40   ar
     9    40    41   ar
    10    41    42   ar
    11    42    43   ar
    12    43    44   ar
    13    44    45   ar
    14    25    26    1
    15    26    27    2
    16    26    28   am
    17    28    30    1
    18    30    31   ar
    19    31    32   ar
    20    32    33   ar
    21    33    34   ar
    22    34    35   ar
    23     2     5    1
    24     5     6   ar
    25     6     7   ar
    26     7     8   ar
    27     8    12    1
    28    12    13    1
    29    13    14    1
    30    14    15    1
    31    15    18    1
    32    18    19   ar
    33    19    20   ar
    34    20    21   ar
    35    21    22   ar
    36    22    23   ar
    37    23    24    1
    38    15    16    1
    39    16    17    1
    40     8     9   ar
    41     9    10   ar
    42    10    11    1
    43    45    37   ar
    44    35    30   ar
    45    10     5   ar
    46    45    40   ar
    47    17    12    1
    48    23    18   ar
    49     3     4    1
    50    39    46    1
    51    28    29    1
@<TRIPOS>MOLECULE
*****
 46 51 0 0 0
SMALL
GASTEIGER

@<TRIPOS>ATOM
      1 O         -65.2566  -40.9896  -21.6680 O.2     1  UNL1       -0.2701
      2 C         -64.0785  -40.9422  -22.1172 C.2     1  UNL1        0.2483
      3 N         -62.9842  -40.6883  -21.2217 N.am    1  UNL1       -0.2945
      4 H         -62.0111  -40.8891  -21.5468 H       1  UNL1        0.1501
      5 C         -63.8420  -41.1850  -23.5584 C.ar    1  UNL1        0.0808
      6 C         -62.8779  -42.1264  -23.9535 C.ar    1  UNL1        0.0080
      7 C         -62.6335  -42.3692  -25.3072 C.ar    1  UNL1        0.0148
      8 C         -63.3545  -41.6816  -26.2988 C.ar    1  UNL1        0.0502
      9 C         -64.3350  -40.7556  -25.9028 C.ar    1  UNL1        0.0443
     10 C         -64.5805  -40.5089  -24.5482 C.ar    1  UNL1        0.1457
     11 F         -65.5718  -39.6446  -24.2133 F       1  UNL1       -0.2040
     12 N         -63.1069  -41.9358  -27.6994 N.pl3   1  UNL1       -0.3040
     13 C         -62.1177  -41.1157  -28.4201 C.3     1  UNL1        0.1122
     14 C         -62.2825  -41.2396  -29.9364 C.3     1  UNL1        0.1123
     15 N         -62.3404  -42.6546  -30.3154 N.pl3   1  UNL1       -0.3034
     16 C         -63.1215  -43.6098  -29.5203 C.3     1  UNL1        0.1123
     17 C         -63.9397  -42.9019  -28.4340 C.3     1  UNL1        0.1122
     18 C         -61.6086  -43.1251  -31.4581 C.ar    1  UNL1        0.0586
     19 C         -62.1150  -42.8948  -32.7469 C.ar    1  UNL1        0.0154
     20 C         -61.4228  -43.3543  -33.8705 C.ar    1  UNL1        0.0013
     21 C         -60.2182  -44.0438  -33.7161 C.ar    1  UNL1        0.0009
     22 C         -59.7015  -44.2720  -32.4382 C.ar    1  UNL1        0.0126
     23 C         -60.3891  -43.8156  -31.3067 C.ar    1  UNL1        0.0709
     24 CL        -59.6765  -44.0793  -29.7210 Cl      1  UNL1       -0.0810
     25 C         -63.1993  -40.3334  -19.8161 C.3     1  UNL1        0.1535
     26 C         -64.1762  -39.1898  -19.7198 C.2     1  UNL1        0.2443
     27 O         -65.4003  -39.3974  -19.9432 O.2     1  UNL1       -0.2730
     28 N         -63.7232  -37.9010  -19.2744 N.am    1  UNL1       -0.2825
     29 H         -62.7606  -37.8351  -18.8721 H       1  UNL1        0.1549
     30 C         -64.5651  -36.7404  -19.1872 C.ar    1  UNL1        0.0535
     31 C         -64.1029  -35.6041  -18.5099 C.ar    1  UNL1        0.0353
     32 C         -64.9098  -34.4660  -18.4397 C.ar    1  UNL1        0.1002
     33 N         -66.1295  -34.4569  -19.0396 N.ar    1  UNL1       -0.2422
     34 C         -66.5966  -35.5373  -19.7197 C.ar    1  UNL1        0.1002
     35 C         -65.8221  -36.6965  -19.8128 C.ar    1  UNL1        0.0353
     36 C         -63.7108  -41.5562  -19.0324 C.3     1  UNL1        0.0569
     37 C         -63.5984  -42.8182  -19.8403 C.ar    1  UNL1       -0.0017
     38 C         -64.5603  -43.8184  -19.9510 C.ar    1  UNL1        0.0681
     39 N         -64.0762  -44.8626  -20.6615 N.ar    1  UNL1       -0.3523
     40 C         -62.8141  -44.5355  -20.9891 C.ar    1  UNL1        0.0563
     41 C         -61.8969  -45.3112  -21.6968 C.ar    1  UNL1        0.0170
     42 C         -60.6089  -44.7833  -21.9015 C.ar    1  UNL1        0.0015
     43 C         -60.2688  -43.5090  -21.3952 C.ar    1  UNL1        0.0001
     44 C         -61.2139  -42.7501  -20.6812 C.ar    1  UNL1        0.0012
     45 C         -62.4846  -43.2968  -20.5014 C.ar    1  UNL1        0.0131
     46 H         -64.5765  -45.7512  -20.8860 H       1  UNL1        0.1660
@<TRIPOS>BOND
     1     1     2    2
     2     2     3   am
     3     3    25    1
     4    25    36    1
     5    36    37    1
     6    37    38   ar
     7    38    39   ar
     8    39    40   ar
     9    40    41   ar
    10    41    42   ar
    11    42    43   ar
    12    43    44   ar
    13    44    45   ar
    14    25    26    1
    15    26    27    2
    16    26    28   am
    17    28    30    1
    18    30    31   ar
    19    31    32   ar
    20    32    33   ar
    21    33    34   ar
    22    34    35   ar
    23     2     5    1
    24     5     6   ar
    25     6     7   ar
    26     7     8   ar
    27     8    12    1
    28    12    13    1
    29    13    14    1
    30    14    15    1
    31    15    18    1
    32    18    19   ar
    33    19    20   ar
    34    20    21   ar
    35    21    22   ar
    36    22    23   ar
    37    23    24    1
    38    15    16    1
    39    16    17    1
    40     8     9   ar
    41     9    10   ar
    42    10    11    1
    43    45    37   ar
    44    35    30   ar
    45    10     5   ar
    46    45    40   ar
    47    17    12    1
    48    23    18   ar
    49     3     4    1
    50    39    46    1
    51    28    29    1
@<TRIPOS>MOLECULE
*****
 46 51 0 0 0
SMALL
GASTEIGER

@<TRIPOS>ATOM
      1 O         -63.3624  -44.6455  -26.7746 O.2     1  UNL1       -0.2701
      2 C         -62.4083  -44.1407  -26.1212 C.2     1  UNL1        0.2483
      3 N         -61.0534  -44.4551  -26.4808 N.am    1  UNL1       -0.2945
      4 H         -60.2819  -43.8579  -26.1055 H       1  UNL1        0.1501
      5 C         -62.7040  -43.2027  -25.0146 C.ar    1  UNL1        0.0808
      6 C         -62.2271  -43.4817  -23.7236 C.ar    1  UNL1        0.0080
      7 C         -62.4974  -42.6144  -22.6625 C.ar    1  UNL1        0.0148
      8 C         -63.2445  -41.4419  -22.8695 C.ar    1  UNL1        0.0502
      9 C         -63.7026  -41.1517  -24.1663 C.ar    1  UNL1        0.0443
     10 C         -63.4354  -42.0192  -25.2302 C.ar    1  UNL1        0.1457
     11 F         -63.8537  -41.6721  -26.4738 F       1  UNL1       -0.2040
     12 N         -63.5200  -40.5408  -21.7741 N.pl3   1  UNL1       -0.3040
     13 C         -62.3993  -39.8991  -21.0652 C.3     1  UNL1        0.1122
     14 C         -62.8411  -39.3273  -19.7163 C.3     1  UNL1        0.1123
     15 N         -64.0416  -38.5052  -19.8948 N.pl3   1  UNL1       -0.3034
     16 C         -65.1301  -38.9527  -20.7721 C.3     1  UNL1        0.1123
     17 C         -64.8960  -40.3817  -21.2759 C.3     1  UNL1        0.1122
     18 C         -64.1518  -37.2369  -19.2301 C.ar    1  UNL1        0.0586
     19 C         -65.0786  -37.0801  -18.1875 C.ar    1  UNL1        0.0154
     20 C         -65.2078  -35.8507  -17.5360 C.ar    1  UNL1        0.0013
     21 C         -64.4105  -34.7697  -17.9180 C.ar    1  UNL1        0.0009
     22 C         -63.4798  -34.9168  -18.9496 C.ar    1  UNL1        0.0126
     23 C         -63.3442  -36.1452  -19.6083 C.ar    1  UNL1        0.0709
     24 CL        -62.1245  -36.3002  -20.8653 Cl      1  UNL1       -0.0810
     25 C         -60.7349  -45.4645  -27.4944 C.3     1  UNL1        0.1535
     26 C         -61.1858  -46.8235  -27.0239 C.2     1  UNL1        0.2443
     27 O         -60.9016  -47.8443  -27.7085 O.2     1  UNL1       -0.2730
     28 N         -61.8419  -46.9560  -25.7525 N.am    1  UNL1       -0.2825
     29 H         -61.8411  -46.1275  -25.1150 H       1  UNL1        0.1549
     30 C         -62.3442  -48.1979  -25.2340 C.ar    1  UNL1        0.0535
     31 C         -61.4958  -49.0246  -24.4853 C.ar    1  UNL1        0.0353
     32 C         -61.9852  -50.2236  -23.9621 C.ar    1  UNL1        0.1002
     33 N         -63.2819  -50.5774  -24.1651 N.ar    1  UNL1       -0.2422
     34 C         -64.1333  -49.7870  -24.8711 C.ar    1  UNL1        0.1002
     35 C         -63.6840  -48.5801  -25.4130 C.ar    1  UNL1        0.0353
     36 C         -61.4025  -45.1009  -28.8336 C.3     1  UNL1        0.0569
     37 C         -60.4150  -45.1143  -29.9661 C.ar    1  UNL1       -0.0017
     38 C         -59.1106  -45.5985  -29.9210 C.ar    1  UNL1        0.0681
     39 N         -58.4711  -45.3417  -31.0848 N.ar    1  UNL1       -0.3523
     40 C         -59.3559  -44.6893  -31.8586 C.ar    1  UNL1        0.0563
     41 C         -59.1467  -44.1877  -33.1425 C.ar    1  UNL1        0.0170
     42 C         -60.2087  -43.5037  -33.7622 C.ar    1  UNL1        0.0015
     43 C         -61.4397  -43.3335  -33.0901 C.ar    1  UNL1        0.0001
     44 C         -61.6208  -43.8474  -31.7932 C.ar    1  UNL1        0.0012
     45 C         -60.5525  -44.5274  -31.2084 C.ar    1  UNL1        0.0131
     46 H         -57.4825  -45.5814  -31.3207 H       1  UNL1        0.1660
@<TRIPOS>BOND
     1     1     2    2
     2     2     3   am
     3     3    25    1
     4    25    36    1
     5    36    37    1
     6    37    38   ar
     7    38    39   ar
     8    39    40   ar
     9    40    41   ar
    10    41    42   ar
    11    42    43   ar
    12    43    44   ar
    13    44    45   ar
    14    25    26    1
    15    26    27    2
    16    26    28   am
    17    28    30    1
    18    30    31   ar
    19    31    32   ar
    20    32    33   ar
    21    33    34   ar
    22    34    35   ar
    23     2     5    1
    24     5     6   ar
    25     6     7   ar
    26     7     8   ar
    27     8    12    1
    28    12    13    1
    29    13    14    1
    30    14    15    1
    31    15    18    1
    32    18    19   ar
    33    19    20   ar
    34    20    21   ar
    35    21    22   ar
    36    22    23   ar
    37    23    24    1
    38    15    16    1
    39    16    17    1
    40     8     9   ar
    41     9    10   ar
    42    10    11    1
    43    45    37   ar
    44    35    30   ar
    45    10     5   ar
    46    45    40   ar
    47    17    12    1
    48    23    18   ar
    49     3     4    1
    50    39    46    1
    51    28    29    1
@<TRIPOS>MOLECULE
*****
 46 51 0 0 0
SMALL
GASTEIGER

@<TRIPOS>ATOM
      1 O         -59.3419  -45.3521  -22.7270 O.2     1  UNL1       -0.2701
      2 C         -60.4890  -44.9358  -23.0477 C.2     1  UNL1        0.2483
      3 N         -61.2899  -45.6931  -23.9691 N.am    1  UNL1       -0.2945
      4 H         -62.3108  -45.4801  -24.0411 H       1  UNL1        0.1501
      5 C         -61.0037  -43.6884  -22.4388 C.ar    1  UNL1        0.0808
      6 C         -61.6460  -43.7400  -21.1911 C.ar    1  UNL1        0.0080
      7 C         -62.1444  -42.5772  -20.5989 C.ar    1  UNL1        0.0148
      8 C         -62.0042  -41.3327  -21.2372 C.ar    1  UNL1        0.0502
      9 C         -61.3416  -41.2784  -22.4756 C.ar    1  UNL1        0.0443
     10 C         -60.8434  -42.4411  -23.0720 C.ar    1  UNL1        0.1457
     11 F         -60.1659  -42.3331  -24.2431 F       1  UNL1       -0.2040
     12 N         -62.5141  -40.1282  -20.6233 N.pl3   1  UNL1       -0.3040
     13 C         -62.4138  -38.8487  -21.3467 C.3     1  UNL1        0.1122
     14 C         -62.6144  -37.6558  -20.4094 C.3     1  UNL1        0.1123
     15 N         -63.8303  -37.8488  -19.6136 N.pl3   1  UNL1       -0.3034
     16 C         -64.1436  -39.1605  -19.0338 C.3     1  UNL1        0.1123
     17 C         -62.9919  -40.1531  -19.2313 C.3     1  UNL1        0.1122
     18 C         -64.7426  -36.7575  -19.4155 C.ar    1  UNL1        0.0586
     19 C         -66.0589  -36.8606  -19.8921 C.ar    1  UNL1        0.0154
     20 C         -66.9580  -35.8051  -19.7183 C.ar    1  UNL1        0.0013
     21 C         -66.5509  -34.6403  -19.0643 C.ar    1  UNL1        0.0009
     22 C         -65.2452  -34.5300  -18.5795 C.ar    1  UNL1        0.0126
     23 C         -64.3375  -35.5827  -18.7499 C.ar    1  UNL1        0.0709
     24 CL        -62.7205  -35.4217  -18.0784 Cl      1  UNL1       -0.0810
     25 C         -60.7629  -46.8667  -24.6711 C.3     1  UNL1        0.1535
     26 C         -60.9532  -48.0988  -23.8244 C.2     1  UNL1        0.2443
     27 O         -61.0124  -47.9875  -22.5692 O.2     1  UNL1       -0.2730
     28 N         -61.1695  -49.3712  -24.4560 N.am    1  UNL1       -0.2825
     29 H         -61.3527  -49.3795  -25.4851 H       1  UNL1        0.1549
     30 C         -61.3210  -50.6072  -23.7399 C.ar    1  UNL1        0.0535
     31 C         -62.5925  -51.1851  -23.6256 C.ar    1  UNL1        0.0353
     32 C         -62.7418  -52.3972  -22.9476 C.ar    1  UNL1        0.1002
     33 N         -61.6564  -53.0195  -22.4164 N.ar    1  UNL1       -0.2422
     34 C         -60.4082  -52.4926  -22.5276 C.ar    1  UNL1        0.1002
     35 C         -60.2148  -51.2813  -23.1965 C.ar    1  UNL1        0.0353
     36 C         -61.4610  -47.0274  -26.0342 C.3     1  UNL1        0.0569
     37 C         -60.9698  -46.0156  -27.0306 C.ar    1  UNL1       -0.0017
     38 C         -59.9585  -46.2016  -27.9690 C.ar    1  UNL1        0.0681
     39 N         -59.6976  -45.0439  -28.6179 N.ar    1  UNL1       -0.3523
     40 C         -60.5262  -44.1269  -28.0889 C.ar    1  UNL1        0.0563
     41 C         -60.6063  -42.7734  -28.4138 C.ar    1  UNL1        0.0170
     42 C         -61.5298  -41.9813  -27.7072 C.ar    1  UNL1        0.0015
     43 C         -62.3391  -42.5520  -26.6996 C.ar    1  UNL1        0.0001
     44 C         -62.2338  -43.9203  -26.3905 C.ar    1  UNL1        0.0012
     45 C         -61.3149  -44.6812  -27.1135 C.ar    1  UNL1        0.0131
     46 H         -58.9798  -44.8921  -29.3609 H       1  UNL1        0.1660
@<TRIPOS>BOND
     1     1     2    2
     2     2     3   am
     3     3    25    1
     4    25    36    1
     5    36    37    1
     6    37    38   ar
     7    38    39   ar
     8    39    40   ar
     9    40    41   ar
    10    41    42   ar
    11    42    43   ar
    12    43    44   ar
    13    44    45   ar
    14    25    26    1
    15    26    27    2
    16    26    28   am
    17    28    30    1
    18    30    31   ar
    19    31    32   ar
    20    32    33   ar
    21    33    34   ar
    22    34    35   ar
    23     2     5    1
    24     5     6   ar
    25     6     7   ar
    26     7     8   ar
    27     8    12    1
    28    12    13    1
    29    13    14    1
    30    14    15    1
    31    15    18    1
    32    18    19   ar
    33    19    20   ar
    34    20    21   ar
    35    21    22   ar
    36    22    23   ar
    37    23    24    1
    38    15    16    1
    39    16    17    1
    40     8     9   ar
    41     9    10   ar
    42    10    11    1
    43    45    37   ar
    44    35    30   ar
    45    10     5   ar
    46    45    40   ar
    47    17    12    1
    48    23    18   ar
    49     3     4    1
    50    39    46    1
    51    28    29    1
