@<TRIPOS>MOLECULE
*****
 52 58 0 0 0
SMALL
GASTEIGER

@<TRIPOS>ATOM
      1 C          60.0550   85.3082   10.9058 C.ar    1  UNL1        0.0486
      2 C          58.9044   84.6470   11.3609 C.ar    1  UNL1        0.0176
      3 C          58.9684   83.7901   12.4633 C.ar    1  UNL1        0.0382
      4 C          60.1918   83.5777   13.1274 C.ar    1  UNL1        0.1388
      5 C          61.3344   84.2508   12.6810 C.ar    1  UNL1        0.0382
      6 C          61.2706   85.1080   11.5794 C.ar    1  UNL1        0.0176
      7 N          59.4994   87.9824    7.7065 N.pl3   1  UNL1       -0.3035
      8 C          59.9206   88.5210    9.0032 C.3     1  UNL1        0.1123
      9 C          60.7067   87.4612    9.7732 C.3     1  UNL1        0.1128
     10 N          59.9839   86.1809    9.7623 N.pl3   1  UNL1       -0.2975
     11 C          59.4948   85.6509    8.4792 C.3     1  UNL1        0.1458
     12 I          61.1415   84.9098    7.3182 I       1  UNL1       -0.0513
     13 C          58.7334   86.7322    7.7062 C.3     1  UNL1        0.1215
     14 C          59.9197   90.3121    4.1633 C.ar    1  UNL1        0.0699
     15 C          61.0279   89.6452    4.7132 C.ar    1  UNL1        0.0190
     16 C          60.8918   88.8814    5.8756 C.ar    1  UNL1        0.0160
     17 C          59.6431   88.7625    6.5052 C.ar    1  UNL1        0.0481
     18 C          58.5340   89.4218    5.9549 C.ar    1  UNL1        0.0160
     19 C          58.6696   90.1878    4.7938 C.ar    1  UNL1        0.0190
     20 N          60.9029   92.2639    1.2673 N.ar    1  UNL1       -0.2024
     21 N          59.5931   92.1987    1.0752 N.ar    1  UNL1       -0.1442
     22 C          59.0919   91.4910    2.1111 C.ar    1  UNL1        0.2073
     23 N          60.0657   91.0955    2.9629 N.ar    1  UNL1       -0.2398
     24 C          61.1847   91.5872    2.3952 C.ar    1  UNL1        0.3522
     25 O          62.3512   91.4015    2.8360 O.2     1  UNL1       -0.2444
     26 C          61.8517   92.8830    0.3364 C.3     1  UNL1        0.1099
     27 C          61.0940   93.7658   -0.6642 C.3     1  UNL1        0.0265
     28 C          64.1761   91.9154   -0.1161 C.3     1  UNL1        0.0021
     29 C          62.6734   91.7822   -0.3629 C.3     1  UNL1        0.0245
     30 O          60.3190   82.7173   14.2300 O.3     1  UNL1       -0.4727
     31 C          60.8110   81.3774   14.1850 C.3     1  UNL1        0.2374
     32 C          60.3613   80.6786   12.8948 C.3     1  UNL1        0.1909
     33 C          60.7692   79.2349   12.8459 C.3     1  UNL1        0.1783
     34 O          61.0711   78.9678   11.5130 O.3     1  UNL1       -0.3266
     35 C          61.1800   80.2213   10.8649 C.3     1  UNL1        0.2314
     36 O          60.9643   81.2700   11.7901 O.3     1  UNL1       -0.3254
     37 C          60.1577   80.3030    9.7271 C.ar    1  UNL1        0.0410
     38 C          60.5647   80.7555    8.4518 C.ar    1  UNL1        0.0022
     39 C          59.6596   80.8269    7.3917 C.ar    1  UNL1        0.0113
     40 C          58.3353   80.4322    7.5728 C.ar    1  UNL1        0.0585
     41 CL         57.2018   80.5217    6.2368 Cl      1  UNL1       -0.0822
     42 C          57.9160   79.9536    8.8144 C.ar    1  UNL1        0.0226
     43 C          58.8115   79.8755    9.8885 C.ar    1  UNL1        0.0591
     44 CL         58.1906   79.2112   11.3990 Cl      1  UNL1       -0.0824
     45 C          62.5989   80.3781   10.2846 C.3     1  UNL1        0.1893
     46 N          63.3657   81.3677   11.0429 N.ar    1  UNL1       -0.2313
     47 N          63.7227   81.2091   12.3042 N.ar    1  UNL1       -0.1532
     48 C          64.4691   82.2886   12.6080 C.ar    1  UNL1        0.1604
     49 C          65.1394   82.4784   13.9257 C.3     1  UNL1        0.0756
     50 N          64.6263   83.1307   11.5629 N.ar    1  UNL1       -0.2146
     51 C          63.9117   82.5178   10.5982 C.ar    1  UNL1        0.1381
     52 C          63.7669   83.0610    9.2119 C.3     1  UNL1        0.0734
@<TRIPOS>BOND
     1    28    29    1
     2    29    26    1
     3    26    27    1
     4    26    20    1
     5    20    21   ar
     6    21    22   ar
     7    22    23   ar
     8    23    14    1
     9    14    15   ar
    10    15    16   ar
    11    16    17   ar
    12    17     7    1
    13     7     8    1
    14     8     9    1
    15     9    10    1
    16    10     1    1
    17     1     2   ar
    18     2     3   ar
    19     3     4   ar
    20     4    30    1
    21    30    31    1
    22    31    32    1
    23    32    33    1
    24    33    34    1
    25    34    35    1
    26    35    45    1
    27    45    46    1
    28    46    47   ar
    29    47    48   ar
    30    48    49    1
    31    48    50   ar
    32    50    51   ar
    33    51    52    1
    34    35    37    1
    35    37    38   ar
    36    38    39   ar
    37    39    40   ar
    38    40    41    1
    39    40    42   ar
    40    42    43   ar
    41    43    44    1
    42    35    36    1
    43     4     5   ar
    44     5     6   ar
    45    10    11    1
    46    11    12    1
    47    11    13    1
    48    17    18   ar
    49    18    19   ar
    50    23    24   ar
    51    24    25    2
    52    24    20   ar
    53    19    14   ar
    54    13     7    1
    55     6     1   ar
    56    36    32    1
    57    51    46   ar
    58    43    37   ar
@<TRIPOS>MOLECULE
*****
 52 58 0 0 0
SMALL
GASTEIGER

@<TRIPOS>ATOM
      1 C          60.8092   86.0885   11.5979 C.ar    1  UNL1        0.0486
      2 C          59.7129   85.6371   12.3480 C.ar    1  UNL1        0.0176
      3 C          59.9105   84.9300   13.5373 C.ar    1  UNL1        0.0382
      4 C          61.2147   84.6590   13.9940 C.ar    1  UNL1        0.1388
      5 C          62.3061   85.1243   13.2521 C.ar    1  UNL1        0.0382
      6 C          62.1089   85.8317   12.0634 C.ar    1  UNL1        0.0176
      7 N          59.8134   88.2203    8.1110 N.pl3   1  UNL1       -0.3035
      8 C          59.9620   88.9628    9.3662 C.3     1  UNL1        0.1123
      9 C          60.9405   88.2342   10.2858 C.3     1  UNL1        0.1128
     10 N          60.5982   86.8066   10.3675 N.pl3   1  UNL1       -0.2975
     11 C          60.3810   86.0546    9.1211 C.3     1  UNL1        0.1458
     12 I          62.2582   85.7084    8.1388 I       1  UNL1       -0.0513
     13 C          59.4205   86.8105    8.1977 C.3     1  UNL1        0.1215
     14 C          59.8942   90.2266    4.3524 C.ar    1  UNL1        0.0699
     15 C          58.6801   90.0434    5.0364 C.ar    1  UNL1        0.0190
     16 C          58.6519   89.3850    6.2687 C.ar    1  UNL1        0.0160
     17 C          59.8383   88.9051    6.8450 C.ar    1  UNL1        0.0481
     18 C          61.0523   89.0924    6.1676 C.ar    1  UNL1        0.0160
     19 C          61.0812   89.7486    4.9340 C.ar    1  UNL1        0.0190
     20 N          60.5757   91.9604    1.2392 N.ar    1  UNL1       -0.2024
     21 N          59.2603   91.8244    1.1513 N.ar    1  UNL1       -0.1442
     22 C          58.8679   91.1885    2.2767 C.ar    1  UNL1        0.2073
     23 N          59.9173   90.9090    3.0836 N.ar    1  UNL1       -0.2398
     24 C          60.9686   91.3960    2.3952 C.ar    1  UNL1        0.3522
     25 O          62.1709   91.2978    2.7618 O.2     1  UNL1       -0.2444
     26 C          61.4257   92.5359    0.1920 C.3     1  UNL1        0.1099
     27 C          60.5575   93.2938   -0.8210 C.3     1  UNL1        0.0265
     28 C          63.6775   91.8461   -0.8067 C.3     1  UNL1        0.0021
     29 C          62.2501   91.4145   -0.4703 C.3     1  UNL1        0.0245
     30 O          61.4736   83.9409   15.1727 O.3     1  UNL1       -0.4727
     31 C          62.4755   82.9353   15.3290 C.3     1  UNL1        0.2374
     32 C          62.1928   81.7416   14.4069 C.3     1  UNL1        0.1909
     33 C          63.4379   81.1903   13.7753 C.3     1  UNL1        0.1783
     34 O          63.0693   80.7827   12.4958 O.3     1  UNL1       -0.3266
     35 C          61.8007   81.3553   12.2396 C.3     1  UNL1        0.2314
     36 O          61.3829   82.1321   13.3461 O.3     1  UNL1       -0.3254
     37 C          60.7822   80.2460   11.9593 C.ar    1  UNL1        0.0410
     38 C          59.5819   80.1938   12.7030 C.ar    1  UNL1        0.0022
     39 C          58.6282   79.2038   12.4604 C.ar    1  UNL1        0.0113
     40 C          58.8403   78.2563   11.4606 C.ar    1  UNL1        0.0585
     41 CL         57.6379   77.0152   11.1579 Cl      1  UNL1       -0.0822
     42 C          60.0038   78.3044   10.6925 C.ar    1  UNL1        0.0226
     43 C          60.9707   79.2913   10.9229 C.ar    1  UNL1        0.0591
     44 CL         62.3803   79.2908    9.8639 Cl      1  UNL1       -0.0824
     45 C          61.8935   82.2813   11.0113 C.3     1  UNL1        0.1893
     46 N          60.5738   82.4864   10.4123 N.ar    1  UNL1       -0.2313
     47 N          59.5088   82.8630   11.0960 N.ar    1  UNL1       -0.1532
     48 C          58.5277   83.0127   10.1851 C.ar    1  UNL1        0.1604
     49 C          57.1611   83.5020   10.5238 C.3     1  UNL1        0.0756
     50 N          58.9406   82.7673    8.9220 N.ar    1  UNL1       -0.2146
     51 C          60.2331   82.4337    9.1086 C.ar    1  UNL1        0.1381
     52 C          61.1566   82.0654    7.9908 C.3     1  UNL1        0.0734
@<TRIPOS>BOND
     1    28    29    1
     2    29    26    1
     3    26    27    1
     4    26    20    1
     5    20    21   ar
     6    21    22   ar
     7    22    23   ar
     8    23    14    1
     9    14    15   ar
    10    15    16   ar
    11    16    17   ar
    12    17     7    1
    13     7     8    1
    14     8     9    1
    15     9    10    1
    16    10     1    1
    17     1     2   ar
    18     2     3   ar
    19     3     4   ar
    20     4    30    1
    21    30    31    1
    22    31    32    1
    23    32    33    1
    24    33    34    1
    25    34    35    1
    26    35    45    1
    27    45    46    1
    28    46    47   ar
    29    47    48   ar
    30    48    49    1
    31    48    50   ar
    32    50    51   ar
    33    51    52    1
    34    35    37    1
    35    37    38   ar
    36    38    39   ar
    37    39    40   ar
    38    40    41    1
    39    40    42   ar
    40    42    43   ar
    41    43    44    1
    42    35    36    1
    43     4     5   ar
    44     5     6   ar
    45    10    11    1
    46    11    12    1
    47    11    13    1
    48    17    18   ar
    49    18    19   ar
    50    23    24   ar
    51    24    25    2
    52    24    20   ar
    53    19    14   ar
    54    13     7    1
    55     6     1   ar
    56    36    32    1
    57    51    46   ar
    58    43    37   ar
@<TRIPOS>MOLECULE
*****
 52 58 0 0 0
SMALL
GASTEIGER

@<TRIPOS>ATOM
      1 C          60.0509   85.6242   10.6399 C.ar    1  UNL1        0.0486
      2 C          61.2706   85.4093   11.2990 C.ar    1  UNL1        0.0176
      3 C          61.3344   84.5736   12.4175 C.ar    1  UNL1        0.0382
      4 C          60.1721   83.9406   12.8982 C.ar    1  UNL1        0.1388
      5 C          58.9600   84.1442   12.2293 C.ar    1  UNL1        0.0382
      6 C          58.8960   84.9791   11.1107 C.ar    1  UNL1        0.0176
      7 N          59.5241   88.2931    7.4314 N.pl3   1  UNL1       -0.3035
      8 C          59.9263   88.8347    8.7329 C.3     1  UNL1        0.1123
      9 C          60.7073   87.7792    9.5139 C.3     1  UNL1        0.1128
     10 N          59.9905   86.4955    9.4948 N.pl3   1  UNL1       -0.2975
     11 C          59.5203   85.9623    8.2061 C.3     1  UNL1        0.1458
     12 I          61.1851   85.2277    7.0669 I       1  UNL1       -0.0513
     13 C          58.7639   87.0394    7.4224 C.3     1  UNL1        0.1215
     14 C          59.9809   90.6218    3.8920 C.ar    1  UNL1        0.0699
     15 C          61.0639   89.8895    4.4078 C.ar    1  UNL1        0.0190
     16 C          60.9159   89.1259    5.5689 C.ar    1  UNL1        0.0160
     17 C          59.6797   89.0728    6.2313 C.ar    1  UNL1        0.0481
     18 C          58.5953   89.7976    5.7150 C.ar    1  UNL1        0.0160
     19 C          58.7430   90.5634    4.5553 C.ar    1  UNL1        0.0190
     20 N          60.4795   92.0405    0.5903 N.ar    1  UNL1       -0.2024
     21 N          60.2032   93.1379    1.2801 N.ar    1  UNL1       -0.1442
     22 C          60.0015   92.7438    2.5565 C.ar    1  UNL1        0.2073
     23 N          60.1389   91.4048    2.6929 N.ar    1  UNL1       -0.2398
     24 C          60.4255   90.9991    1.4400 C.ar    1  UNL1        0.3522
     25 O          60.5796   89.7961    1.0955 O.2     1  UNL1       -0.2444
     26 C          60.6957   92.0000   -0.8595 C.3     1  UNL1        0.1099
     27 C          61.9402   92.8219   -1.2204 C.3     1  UNL1        0.0265
     28 C          58.2815   91.5033   -1.5443 C.3     1  UNL1        0.0021
     29 C          59.4314   92.5100   -1.5789 C.3     1  UNL1        0.0245
     30 O          60.1733   83.1030   14.0254 O.3     1  UNL1       -0.4727
     31 C          60.6708   81.7650   14.0648 C.3     1  UNL1        0.2374
     32 C          60.2231   80.9842   12.8219 C.3     1  UNL1        0.1909
     33 C          60.5664   79.5250   12.9001 C.3     1  UNL1        0.1783
     34 O          60.8899   79.1382   11.6021 O.3     1  UNL1       -0.3266
     35 C          61.0719   80.3292   10.8596 C.3     1  UNL1        0.2314
     36 O          60.8803   81.4576   11.6916 O.3     1  UNL1       -0.3254
     37 C          60.0838   80.3626    9.6896 C.ar    1  UNL1        0.0410
     38 C          60.4967   80.8755    8.4393 C.ar    1  UNL1        0.0022
     39 C          59.6237   80.9053    7.3507 C.ar    1  UNL1        0.0113
     40 C          58.3276   80.4088    7.4777 C.ar    1  UNL1        0.0585
     41 CL         57.2346   80.4465    6.1060 Cl      1  UNL1       -0.0822
     42 C          57.9055   79.8699    8.6933 C.ar    1  UNL1        0.0226
     43 C          58.7690   79.8322    9.7954 C.ar    1  UNL1        0.0591
     44 CL         58.1512   79.0866   11.2688 Cl      1  UNL1       -0.0824
     45 C          62.5109   80.3773   10.3102 C.3     1  UNL1        0.1893
     46 N          63.3055   81.3826   11.0175 N.ar    1  UNL1       -0.2313
     47 N          63.7030   81.2546   12.2702 N.ar    1  UNL1       -0.1532
     48 C          64.4626   82.3383   12.5217 C.ar    1  UNL1        0.1604
     49 C          65.1763   82.5587   13.8116 C.3     1  UNL1        0.0756
     50 N          64.5885   83.1528   11.4508 N.ar    1  UNL1       -0.2146
     51 C          63.8406   82.5187   10.5260 C.ar    1  UNL1        0.1381
     52 C          63.6525   83.0270    9.1317 C.3     1  UNL1        0.0734
@<TRIPOS>BOND
     1    28    29    1
     2    29    26    1
     3    26    27    1
     4    26    20    1
     5    20    21   ar
     6    21    22   ar
     7    22    23   ar
     8    23    14    1
     9    14    15   ar
    10    15    16   ar
    11    16    17   ar
    12    17     7    1
    13     7     8    1
    14     8     9    1
    15     9    10    1
    16    10     1    1
    17     1     2   ar
    18     2     3   ar
    19     3     4   ar
    20     4    30    1
    21    30    31    1
    22    31    32    1
    23    32    33    1
    24    33    34    1
    25    34    35    1
    26    35    45    1
    27    45    46    1
    28    46    47   ar
    29    47    48   ar
    30    48    49    1
    31    48    50   ar
    32    50    51   ar
    33    51    52    1
    34    35    37    1
    35    37    38   ar
    36    38    39   ar
    37    39    40   ar
    38    40    41    1
    39    40    42   ar
    40    42    43   ar
    41    43    44    1
    42    35    36    1
    43     4     5   ar
    44     5     6   ar
    45    10    11    1
    46    11    12    1
    47    11    13    1
    48    17    18   ar
    49    18    19   ar
    50    23    24   ar
    51    24    25    2
    52    24    20   ar
    53    19    14   ar
    54    13     7    1
    55     6     1   ar
    56    36    32    1
    57    51    46   ar
    58    43    37   ar
@<TRIPOS>MOLECULE
*****
 52 58 0 0 0
SMALL
GASTEIGER

@<TRIPOS>ATOM
      1 C          58.4892   83.5160   10.4806 C.ar    1  UNL1        0.0486
      2 C          58.4035   82.1959   10.0133 C.ar    1  UNL1        0.0176
      3 C          58.2123   81.1385   10.9070 C.ar    1  UNL1        0.0382
      4 C          58.1076   81.3870   12.2891 C.ar    1  UNL1        0.1388
      5 C          58.1776   82.7061   12.7507 C.ar    1  UNL1        0.0382
      6 C          58.3681   83.7635   11.8575 C.ar    1  UNL1        0.0176
      7 N          58.7504   86.8260    7.8977 N.pl3   1  UNL1       -0.3035
      8 C          59.0308   87.0268    9.3225 C.3     1  UNL1        0.1123
      9 C          59.5582   85.7300    9.9341 C.3     1  UNL1        0.1128
     10 N          58.6977   84.5996    9.5550 N.pl3   1  UNL1       -0.2975
     11 C          58.3497   84.4145    8.1370 C.3     1  UNL1        0.1458
     12 I          60.0534   83.6827    7.0549 I       1  UNL1       -0.0513
     13 C          57.8495   85.7291    7.5303 C.3     1  UNL1        0.1215
     14 C          59.9933   89.6893    4.9968 C.ar    1  UNL1        0.0699
     15 C          58.6285   89.5064    5.2783 C.ar    1  UNL1        0.0190
     16 C          58.2193   88.5672    6.2288 C.ar    1  UNL1        0.0160
     17 C          59.1674   87.7994    6.9226 C.ar    1  UNL1        0.0481
     18 C          60.5306   87.9845    6.6483 C.ar    1  UNL1        0.0160
     19 C          60.9406   88.9218    5.6962 C.ar    1  UNL1        0.0190
     20 N          61.6041   91.8618    2.5785 N.ar    1  UNL1       -0.2024
     21 N          60.3646   92.3281    2.5268 N.ar    1  UNL1       -0.1442
     22 C          59.6463   91.5964    3.4065 C.ar    1  UNL1        0.2073
     23 N          60.4092   90.6613    4.0180 N.ar    1  UNL1       -0.2398
     24 C          61.6237   90.8505    3.4652 C.ar    1  UNL1        0.3522
     25 O          62.6390   90.1445    3.7108 O.2     1  UNL1       -0.2444
     26 C          62.7046   92.3245    1.7270 C.3     1  UNL1        0.1099
     27 C          62.6200   93.8468    1.5536 C.3     1  UNL1        0.0265
     28 C          63.9380   91.7403   -0.4367 C.3     1  UNL1        0.0021
     29 C          62.6544   91.5803    0.3781 C.3     1  UNL1        0.0245
     30 O          57.9301   80.3636   13.2343 O.3     1  UNL1       -0.4727
     31 C          58.9521   79.4873   13.7107 C.3     1  UNL1        0.2374
     32 C          60.3019   79.8281   13.0650 C.3     1  UNL1        0.1909
     33 C          61.4291   78.9983   13.6071 C.3     1  UNL1        0.1783
     34 O          62.5418   79.8350   13.6330 O.3     1  UNL1       -0.3266
     35 C          62.0592   81.1539   13.4576 C.3     1  UNL1        0.2314
     36 O          60.6492   81.1463   13.3393 O.3     1  UNL1       -0.3254
     37 C          62.6903   81.7708   12.2055 C.ar    1  UNL1        0.0410
     38 C          61.8718   82.4332   11.2632 C.ar    1  UNL1        0.0022
     39 C          62.4197   83.0180   10.1204 C.ar    1  UNL1        0.0113
     40 C          63.7951   82.9721    9.9001 C.ar    1  UNL1        0.0585
     41 CL         64.4793   83.7103    8.4633 Cl      1  UNL1       -0.0822
     42 C          64.6279   82.3499   10.8305 C.ar    1  UNL1        0.0226
     43 C          64.0943   81.7584   11.9825 C.ar    1  UNL1        0.0591
     44 CL         65.2393   81.0419   13.1157 Cl      1  UNL1       -0.0824
     45 C          62.4328   82.0053   14.6864 C.3     1  UNL1        0.1893
     46 N          62.1262   83.4177   14.4547 N.ar    1  UNL1       -0.2313
     47 N          60.8991   83.8941   14.3513 N.ar    1  UNL1       -0.1532
     48 C          61.0380   85.2277   14.2210 C.ar    1  UNL1        0.1604
     49 C          59.8851   86.1694   14.1456 C.3     1  UNL1        0.0756
     50 N          62.3276   85.6292   14.2647 N.ar    1  UNL1       -0.2146
     51 C          62.9815   84.4592   14.4071 C.ar    1  UNL1        0.1381
     52 C          64.4705   84.3568   14.5084 C.3     1  UNL1        0.0734
@<TRIPOS>BOND
     1    28    29    1
     2    29    26    1
     3    26    27    1
     4    26    20    1
     5    20    21   ar
     6    21    22   ar
     7    22    23   ar
     8    23    14    1
     9    14    15   ar
    10    15    16   ar
    11    16    17   ar
    12    17     7    1
    13     7     8    1
    14     8     9    1
    15     9    10    1
    16    10     1    1
    17     1     2   ar
    18     2     3   ar
    19     3     4   ar
    20     4    30    1
    21    30    31    1
    22    31    32    1
    23    32    33    1
    24    33    34    1
    25    34    35    1
    26    35    45    1
    27    45    46    1
    28    46    47   ar
    29    47    48   ar
    30    48    49    1
    31    48    50   ar
    32    50    51   ar
    33    51    52    1
    34    35    37    1
    35    37    38   ar
    36    38    39   ar
    37    39    40   ar
    38    40    41    1
    39    40    42   ar
    40    42    43   ar
    41    43    44    1
    42    35    36    1
    43     4     5   ar
    44     5     6   ar
    45    10    11    1
    46    11    12    1
    47    11    13    1
    48    17    18   ar
    49    18    19   ar
    50    23    24   ar
    51    24    25    2
    52    24    20   ar
    53    19    14   ar
    54    13     7    1
    55     6     1   ar
    56    36    32    1
    57    51    46   ar
    58    43    37   ar
@<TRIPOS>MOLECULE
*****
 52 58 0 0 0
SMALL
GASTEIGER

@<TRIPOS>ATOM
      1 C          60.2944   84.5463    9.7266 C.ar    1  UNL1        0.0486
      2 C          59.2716   84.2961   10.6538 C.ar    1  UNL1        0.0176
      3 C          59.3806   83.2389   11.5615 C.ar    1  UNL1        0.0382
      4 C          60.5185   82.4094   11.5522 C.ar    1  UNL1        0.1388
      5 C          61.5441   82.6712   10.6370 C.ar    1  UNL1        0.0382
      6 C          61.4357   83.7284    9.7298 C.ar    1  UNL1        0.0176
      7 N          59.6578   87.8658    7.2224 N.pl3   1  UNL1       -0.3035
      8 C          60.4546   88.0501    8.4390 C.3     1  UNL1        0.1123
      9 C          61.1387   86.7364    8.8137 C.3     1  UNL1        0.1128
     10 N          60.1702   85.6304    8.7867 N.pl3   1  UNL1       -0.2975
     11 C          59.3136   85.4636    7.6015 C.3     1  UNL1        0.1458
     12 I          60.4711   84.6967    5.9642 I       1  UNL1       -0.0513
     13 C          58.6571   86.7943    7.2212 C.3     1  UNL1        0.1215
     14 C          59.8038   90.7166    4.0585 C.ar    1  UNL1        0.0699
     15 C          58.6063   90.4894    4.7582 C.ar    1  UNL1        0.0190
     16 C          58.5566   89.5542    5.7955 C.ar    1  UNL1        0.0160
     17 C          59.7057   88.8349    6.1590 C.ar    1  UNL1        0.0481
     18 C          60.9039   89.0644    5.4666 C.ar    1  UNL1        0.0160
     19 C          60.9539   89.9977    4.4275 C.ar    1  UNL1        0.0190
     20 N          59.9479   92.6524    0.9934 N.ar    1  UNL1       -0.2024
     21 N          59.8318   93.6273    1.8838 N.ar    1  UNL1       -0.1442
     22 C          59.7765   93.0312    3.0949 C.ar    1  UNL1        0.2073
     23 N          59.8495   91.6842    2.9919 N.ar    1  UNL1       -0.2398
     24 C          59.9435   91.4854    1.6622 C.ar    1  UNL1        0.3522
     25 O          59.9778   90.3529    1.1092 O.2     1  UNL1       -0.2444
     26 C          59.9685   92.8492   -0.4595 C.3     1  UNL1        0.1099
     27 C          61.0944   93.8219   -0.8343 C.3     1  UNL1        0.0265
     28 C          57.5548   92.2259   -1.0339 C.3     1  UNL1        0.0021
     29 C          58.5870   93.3484   -0.9269 C.3     1  UNL1        0.0245
     30 O          60.6756   81.3245   12.4299 O.3     1  UNL1       -0.4727
     31 C          61.6153   81.2542   13.5029 C.3     1  UNL1        0.2374
     32 C          62.3327   82.5987   13.6833 C.3     1  UNL1        0.1909
     33 C          63.1768   82.6428   14.9237 C.3     1  UNL1        0.1783
     34 O          63.0814   83.9459   15.4051 O.3     1  UNL1       -0.3266
     35 C          61.9978   84.5496   14.7235 C.3     1  UNL1        0.2314
     36 O          61.4057   83.6246   13.8314 O.3     1  UNL1       -0.3254
     37 C          62.4931   85.7794   13.9563 C.ar    1  UNL1        0.0410
     38 C          62.1528   85.9383   12.5941 C.ar    1  UNL1        0.0022
     39 C          62.5767   87.0555   11.8727 C.ar    1  UNL1        0.0113
     40 C          63.3325   88.0469   12.4959 C.ar    1  UNL1        0.0585
     41 CL         63.8613   89.4502   11.5857 Cl      1  UNL1       -0.0822
     42 C          63.6563   87.9278   13.8477 C.ar    1  UNL1        0.0226
     43 C          63.2386   86.8133   14.5860 C.ar    1  UNL1        0.0591
     44 CL         63.6606   86.7855   16.2976 Cl      1  UNL1       -0.0824
     45 C          60.9276   84.9846   15.7434 C.3     1  UNL1        0.1893
     46 N          59.8341   85.6961   15.0800 N.ar    1  UNL1       -0.2313
     47 N          58.8788   85.0961   14.3935 N.ar    1  UNL1       -0.1532
     48 C          58.0358   86.0757   14.0136 C.ar    1  UNL1        0.1604
     49 C          56.7685   85.8251   13.2700 C.3     1  UNL1        0.0756
     50 N          58.4093   87.2947   14.4617 N.ar    1  UNL1       -0.2146
     51 C          59.5492   87.0134   15.1239 C.ar    1  UNL1        0.1381
     52 C          60.3715   88.0501   15.8217 C.3     1  UNL1        0.0734
@<TRIPOS>BOND
     1    28    29    1
     2    29    26    1
     3    26    27    1
     4    26    20    1
     5    20    21   ar
     6    21    22   ar
     7    22    23   ar
     8    23    14    1
     9    14    15   ar
    10    15    16   ar
    11    16    17   ar
    12    17     7    1
    13     7     8    1
    14     8     9    1
    15     9    10    1
    16    10     1    1
    17     1     2   ar
    18     2     3   ar
    19     3     4   ar
    20     4    30    1
    21    30    31    1
    22    31    32    1
    23    32    33    1
    24    33    34    1
    25    34    35    1
    26    35    45    1
    27    45    46    1
    28    46    47   ar
    29    47    48   ar
    30    48    49    1
    31    48    50   ar
    32    50    51   ar
    33    51    52    1
    34    35    37    1
    35    37    38   ar
    36    38    39   ar
    37    39    40   ar
    38    40    41    1
    39    40    42   ar
    40    42    43   ar
    41    43    44    1
    42    35    36    1
    43     4     5   ar
    44     5     6   ar
    45    10    11    1
    46    11    12    1
    47    11    13    1
    48    17    18   ar
    49    18    19   ar
    50    23    24   ar
    51    24    25    2
    52    24    20   ar
    53    19    14   ar
    54    13     7    1
    55     6     1   ar
    56    36    32    1
    57    51    46   ar
    58    43    37   ar
@<TRIPOS>MOLECULE
*****
 52 58 0 0 0
SMALL
GASTEIGER

@<TRIPOS>ATOM
      1 C          60.7691   86.5334   11.1973 C.ar    1  UNL1        0.0486
      2 C          62.0487   86.2178   11.6782 C.ar    1  UNL1        0.0176
      3 C          62.2041   85.5639   12.9036 C.ar    1  UNL1        0.0382
      4 C          61.0759   85.2179   13.6720 C.ar    1  UNL1        0.1388
      5 C          59.8003   85.5198   13.1823 C.ar    1  UNL1        0.0382
      6 C          59.6446   86.1730   11.9570 C.ar    1  UNL1        0.0176
      7 N          60.2011   88.1875    7.3714 N.pl3   1  UNL1       -0.3035
      8 C          59.0235   87.9429    8.2095 C.3     1  UNL1        0.1123
      9 C          59.4126   88.0219    9.6848 C.3     1  UNL1        0.1128
     10 N          60.6169   87.2176    9.9391 N.pl3   1  UNL1       -0.2975
     11 C          61.7907   87.3998    9.0700 C.3     1  UNL1        0.1458
     12 I          62.7520   89.2658    9.5203 I       1  UNL1       -0.0513
     13 C          61.3810   87.3464    7.5950 C.3     1  UNL1        0.1215
     14 C          59.9680   90.8082    4.0194 C.ar    1  UNL1        0.0699
     15 C          61.1693   90.1452    4.3233 C.ar    1  UNL1        0.0190
     16 C          61.2476   89.2860    5.4227 C.ar    1  UNL1        0.0160
     17 C          60.1235   89.0663    6.2340 C.ar    1  UNL1        0.0481
     18 C          58.9213   89.7218    5.9291 C.ar    1  UNL1        0.0160
     19 C          58.8428   90.5830    4.8313 C.ar    1  UNL1        0.0190
     20 N          59.7800   92.5014    0.8162 N.ar    1  UNL1       -0.2024
     21 N          59.7322   93.5411    1.6367 N.ar    1  UNL1       -0.1442
     22 C          59.8050   93.0405    2.8893 C.ar    1  UNL1        0.2073
     23 N          59.8926   91.6904    2.8828 N.ar    1  UNL1       -0.2398
     24 C          59.8617   91.3899    1.5694 C.ar    1  UNL1        0.3522
     25 O          59.8634   90.2182    1.1036 O.2     1  UNL1       -0.2444
     26 C          59.6566   92.5847   -0.6426 C.3     1  UNL1        0.1099
     27 C          60.5797   93.6874   -1.1779 C.3     1  UNL1        0.0265
     28 C          57.3898   91.5290   -1.1821 C.3     1  UNL1        0.0021
     29 C          58.1811   92.8265   -1.0174 C.3     1  UNL1        0.0245
     30 O          61.1719   84.5740   14.9163 O.3     1  UNL1       -0.4727
     31 C          62.1282   83.5708   15.2602 C.3     1  UNL1        0.2374
     32 C          61.8848   82.2904   14.4500 C.3     1  UNL1        0.1909
     33 C          63.1405   81.4987   14.2272 C.3     1  UNL1        0.1783
     34 O          63.0216   80.9430   12.9559 O.3     1  UNL1       -0.3266
     35 C          61.9539   81.6187   12.3183 C.3     1  UNL1        0.2314
     36 O          61.4167   82.6050   13.1790 O.3     1  UNL1       -0.3254
     37 C          60.8679   80.6117   11.9271 C.ar    1  UNL1        0.0410
     38 C          59.6052   80.6635   12.5591 C.ar    1  UNL1        0.0022
     39 C          58.5909   79.7691   12.2134 C.ar    1  UNL1        0.0113
     40 C          58.8053   78.8164   11.2190 C.ar    1  UNL1        0.0585
     41 CL         57.5269   77.6957   10.7865 Cl      1  UNL1       -0.0822
     42 C          60.0334   78.7643   10.5593 C.ar    1  UNL1        0.0226
     43 C          61.0616   79.6546   10.8939 C.ar    1  UNL1        0.0591
     44 CL         62.5557   79.5342    9.9657 Cl      1  UNL1       -0.0824
     45 C          62.4752   82.3215   11.0498 C.3     1  UNL1        0.1893
     46 N          61.3665   82.8510   10.2544 N.ar    1  UNL1       -0.2313
     47 N          60.1056   82.8255   10.6458 N.ar    1  UNL1       -0.1532
     48 C          59.4148   83.4683    9.6844 C.ar    1  UNL1        0.1604
     49 C          57.9498   83.7316    9.7633 C.3     1  UNL1        0.0756
     50 N          60.2041   83.9338    8.6911 N.ar    1  UNL1       -0.2146
     51 C          61.4248   83.5195    9.0848 C.ar    1  UNL1        0.1381
     52 C          62.6745   83.7902    8.3082 C.3     1  UNL1        0.0734
@<TRIPOS>BOND
     1    28    29    1
     2    29    26    1
     3    26    27    1
     4    26    20    1
     5    20    21   ar
     6    21    22   ar
     7    22    23   ar
     8    23    14    1
     9    14    15   ar
    10    15    16   ar
    11    16    17   ar
    12    17     7    1
    13     7     8    1
    14     8     9    1
    15     9    10    1
    16    10     1    1
    17     1     2   ar
    18     2     3   ar
    19     3     4   ar
    20     4    30    1
    21    30    31    1
    22    31    32    1
    23    32    33    1
    24    33    34    1
    25    34    35    1
    26    35    45    1
    27    45    46    1
    28    46    47   ar
    29    47    48   ar
    30    48    49    1
    31    48    50   ar
    32    50    51   ar
    33    51    52    1
    34    35    37    1
    35    37    38   ar
    36    38    39   ar
    37    39    40   ar
    38    40    41    1
    39    40    42   ar
    40    42    43   ar
    41    43    44    1
    42    35    36    1
    43     4     5   ar
    44     5     6   ar
    45    10    11    1
    46    11    12    1
    47    11    13    1
    48    17    18   ar
    49    18    19   ar
    50    23    24   ar
    51    24    25    2
    52    24    20   ar
    53    19    14   ar
    54    13     7    1
    55     6     1   ar
    56    36    32    1
    57    51    46   ar
    58    43    37   ar
@<TRIPOS>MOLECULE
*****
 52 58 0 0 0
SMALL
GASTEIGER

@<TRIPOS>ATOM
      1 C          60.4505   85.8350   10.7130 C.ar    1  UNL1        0.0486
      2 C          61.7020   85.5877   11.2968 C.ar    1  UNL1        0.0176
      3 C          61.8041   84.8044   12.4498 C.ar    1  UNL1        0.0382
      4 C          60.6491   84.2575   13.0414 C.ar    1  UNL1        0.1388
      5 C          59.4040   84.4927   12.4478 C.ar    1  UNL1        0.0382
      6 C          59.3016   85.2752   11.2947 C.ar    1  UNL1        0.0176
      7 N          60.0925   87.8895    7.0598 N.pl3   1  UNL1       -0.3035
      8 C          58.8706   87.4291    7.7259 C.3     1  UNL1        0.1123
      9 C          59.0979   87.3612    9.2351 C.3     1  UNL1        0.1128
     10 N          60.3516   86.6524    9.5314 N.pl3   1  UNL1       -0.2975
     11 C          61.5798   87.0547    8.8272 C.3     1  UNL1        0.1458
     12 I          62.2795   88.9347    9.5921 I       1  UNL1       -0.0513
     13 C          61.3293   87.1459    7.3188 C.3     1  UNL1        0.1215
     14 C          59.9212   90.8380    3.9880 C.ar    1  UNL1        0.0699
     15 C          58.8005   90.5869    4.7980 C.ar    1  UNL1        0.0190
     16 C          58.8549   89.6198    5.8053 C.ar    1  UNL1        0.0160
     17 C          60.0338   88.8915    6.0278 C.ar    1  UNL1        0.0481
     18 C          61.1560   89.1446    5.2251 C.ar    1  UNL1        0.0160
     19 C          61.1018   90.1100    4.2160 C.ar    1  UNL1        0.0190
     20 N          59.6335   92.8760    1.0002 N.ar    1  UNL1       -0.2024
     21 N          59.8716   93.8147    1.9050 N.ar    1  UNL1       -0.1442
     22 C          60.0117   93.1762    3.0873 C.ar    1  UNL1        0.2073
     23 N          59.8600   91.8386    2.9531 N.ar    1  UNL1       -0.2398
     24 C          59.6128   91.6910    1.6364 C.ar    1  UNL1        0.3522
     25 O          59.3511   90.5920    1.0767 O.2     1  UNL1       -0.2444
     26 C          59.3451   93.1357   -0.4139 C.3     1  UNL1        0.1099
     27 C          57.9293   92.6496   -0.7512 C.3     1  UNL1        0.0265
     28 C          61.8053   93.0750   -1.1125 C.3     1  UNL1        0.0021
     29 C          60.4184   92.4562   -1.2871 C.3     1  UNL1        0.0245
     30 O          60.6894   83.4760   14.2075 O.3     1  UNL1       -0.4727
     31 C          61.1450   82.1249   14.2859 C.3     1  UNL1        0.2374
     32 C          60.5392   81.2828   13.1550 C.3     1  UNL1        0.1909
     33 C          60.6962   79.8076   13.3836 C.3     1  UNL1        0.1783
     34 O          60.9020   79.2456   12.1263 O.3     1  UNL1       -0.3266
     35 C          61.1976   80.3162   11.2491 C.3     1  UNL1        0.2314
     36 O          61.1941   81.5420   11.9560 O.3     1  UNL1       -0.3254
     37 C          60.1645   80.3561   10.1189 C.ar    1  UNL1        0.0410
     38 C          60.5228   80.8928    8.8618 C.ar    1  UNL1        0.0022
     39 C          59.6079   80.9291    7.8083 C.ar    1  UNL1        0.0113
     40 C          58.3233   80.4157    7.9775 C.ar    1  UNL1        0.0585
     41 CL         57.1775   80.4617    6.6500 Cl      1  UNL1       -0.0822
     42 C          57.9547   79.8533    9.1999 C.ar    1  UNL1        0.0226
     43 C          58.8607   79.8088   10.2671 C.ar    1  UNL1        0.0591
     44 CL         58.3089   79.0335   11.7513 Cl      1  UNL1       -0.0824
     45 C          62.6015   80.1141   10.6466 C.3     1  UNL1        0.1893
     46 N          63.1913   81.3961   10.2579 N.ar    1  UNL1       -0.2313
     47 N          62.8929   82.0314    9.1395 N.ar    1  UNL1       -0.1532
     48 C          63.5764   83.1912    9.1882 C.ar    1  UNL1        0.1604
     49 C          63.4696   84.2510    8.1456 C.3     1  UNL1        0.0756
     50 N          64.2907   83.3337   10.3265 N.ar    1  UNL1       -0.2146
     51 C          64.0258   82.1797   10.9707 C.ar    1  UNL1        0.1381
     52 C          64.5912   81.8394   12.3133 C.3     1  UNL1        0.0734
@<TRIPOS>BOND
     1    28    29    1
     2    29    26    1
     3    26    27    1
     4    26    20    1
     5    20    21   ar
     6    21    22   ar
     7    22    23   ar
     8    23    14    1
     9    14    15   ar
    10    15    16   ar
    11    16    17   ar
    12    17     7    1
    13     7     8    1
    14     8     9    1
    15     9    10    1
    16    10     1    1
    17     1     2   ar
    18     2     3   ar
    19     3     4   ar
    20     4    30    1
    21    30    31    1
    22    31    32    1
    23    32    33    1
    24    33    34    1
    25    34    35    1
    26    35    45    1
    27    45    46    1
    28    46    47   ar
    29    47    48   ar
    30    48    49    1
    31    48    50   ar
    32    50    51   ar
    33    51    52    1
    34    35    37    1
    35    37    38   ar
    36    38    39   ar
    37    39    40   ar
    38    40    41    1
    39    40    42   ar
    40    42    43   ar
    41    43    44    1
    42    35    36    1
    43     4     5   ar
    44     5     6   ar
    45    10    11    1
    46    11    12    1
    47    11    13    1
    48    17    18   ar
    49    18    19   ar
    50    23    24   ar
    51    24    25    2
    52    24    20   ar
    53    19    14   ar
    54    13     7    1
    55     6     1   ar
    56    36    32    1
    57    51    46   ar
    58    43    37   ar
