@<TRIPOS>MOLECULE
*****
 48 53 0 0 0
SMALL
GASTEIGER

@<TRIPOS>ATOM
      1 O          -8.6287  -11.8107   32.1344 O.2     1  UNL1       -0.2701
      2 C          -9.2516  -11.7329   31.0404 C.2     1  UNL1        0.2484
      3 N         -10.3826  -10.8531   30.9200 N.am    1  UNL1       -0.2945
      4 H         -10.8490  -10.7807   29.9918 H       1  UNL1        0.1501
      5 C          -8.7512  -12.4865   29.8686 C.ar    1  UNL1        0.0831
      6 C          -9.5942  -13.4197   29.2430 C.ar    1  UNL1        0.0082
      7 C          -9.1213  -14.2137   28.1968 C.ar    1  UNL1        0.0171
      8 C          -7.8018  -14.0767   27.7435 C.ar    1  UNL1        0.0780
      9 C          -6.9650  -13.1207   28.3400 C.ar    1  UNL1        0.1807
     10 F          -5.6813  -12.9801   27.9224 F       1  UNL1       -0.2005
     11 C          -7.4362  -12.3248   29.3899 C.ar    1  UNL1        0.1729
     12 F          -6.6157  -11.3771   29.9083 F       1  UNL1       -0.2016
     13 N          -7.3063  -14.9166   26.6871 N.pl3   1  UNL1       -0.3023
     14 C          -6.1253  -15.7588   26.9068 C.3     1  UNL1        0.1123
     15 C          -5.2647  -15.7908   25.6429 C.3     1  UNL1        0.1123
     16 N          -6.1041  -16.0501   24.4701 N.pl3   1  UNL1       -0.3034
     17 C          -7.2940  -15.2228   24.2540 C.3     1  UNL1        0.1123
     18 C          -8.1490  -15.2014   25.5206 C.3     1  UNL1        0.1123
     19 C          -5.5839  -16.8347   23.3897 C.ar    1  UNL1        0.0587
     20 C          -4.2163  -16.7690   23.0928 C.ar    1  UNL1        0.0162
     21 C          -3.6860  -17.5249   22.0438 C.ar    1  UNL1        0.0127
     22 C          -4.5201  -18.3514   21.2846 C.ar    1  UNL1        0.0586
     23 CL         -3.8533  -19.2996   19.9682 Cl      1  UNL1       -0.0822
     24 C          -5.8869  -18.4215   21.5755 C.ar    1  UNL1        0.0240
     25 C          -6.4239  -17.6665   22.6253 C.ar    1  UNL1        0.0718
     26 CL         -8.1459  -17.7778   22.9621 Cl      1  UNL1       -0.0809
     27 C         -10.6773   -9.8121   31.9109 C.3     1  UNL1        0.1535
     28 C         -11.1446   -8.5253   31.2520 C.2     1  UNL1        0.2443
     29 O         -12.3162   -8.4661   30.7917 O.2     1  UNL1       -0.2730
     30 N         -10.3780   -7.3131   31.3301 N.am    1  UNL1       -0.2825
     31 H         -10.8298   -6.4879   31.7845 H       1  UNL1        0.1549
     32 C          -9.0623   -7.1490   30.7757 C.ar    1  UNL1        0.0535
     33 C          -8.4421   -5.8936   30.8249 C.ar    1  UNL1        0.0353
     34 C          -7.1477   -5.7423   30.3208 C.ar    1  UNL1        0.1002
     35 N          -6.5044   -6.8029   29.7649 N.ar    1  UNL1       -0.2422
     36 C          -7.0934   -8.0246   29.6746 C.ar    1  UNL1        0.1002
     37 C          -8.3864   -8.2168   30.1659 C.ar    1  UNL1        0.0353
     38 C         -11.6632  -10.3362   32.9808 C.3     1  UNL1        0.0569
     39 C         -12.3682  -11.6071   32.5892 C.ar    1  UNL1       -0.0017
     40 C         -13.2661  -11.7657   31.5366 C.ar    1  UNL1        0.0681
     41 N         -13.6702  -13.0533   31.4490 N.ar    1  UNL1       -0.3523
     42 C         -13.0401  -13.7088   32.4386 C.ar    1  UNL1        0.0563
     43 C         -13.1301  -15.0664   32.7427 C.ar    1  UNL1        0.0170
     44 C         -12.3757  -15.5488   33.8277 C.ar    1  UNL1        0.0015
     45 C         -11.5615  -14.6728   34.5787 C.ar    1  UNL1        0.0001
     46 C         -11.4917  -13.3071   34.2499 C.ar    1  UNL1        0.0012
     47 C         -12.2420  -12.8593   33.1617 C.ar    1  UNL1        0.0131
     48 H         -14.3325  -13.4540   30.7483 H       1  UNL1        0.1660
@<TRIPOS>BOND
     1     1     2    2
     2     2     3   am
     3     3    27    1
     4    27    38    1
     5    38    39    1
     6    39    40   ar
     7    40    41   ar
     8    41    42   ar
     9    42    43   ar
    10    43    44   ar
    11    44    45   ar
    12    45    46   ar
    13    46    47   ar
    14    27    28    1
    15    28    29    2
    16    28    30   am
    17    30    32    1
    18    32    33   ar
    19    33    34   ar
    20    34    35   ar
    21    35    36   ar
    22    36    37   ar
    23     2     5    1
    24     5     6   ar
    25     6     7   ar
    26     7     8   ar
    27     8    13    1
    28    13    14    1
    29    14    15    1
    30    15    16    1
    31    16    19    1
    32    19    20   ar
    33    20    21   ar
    34    21    22   ar
    35    22    23    1
    36    22    24   ar
    37    24    25   ar
    38    25    26    1
    39    16    17    1
    40    17    18    1
    41     8     9   ar
    42     9    10    1
    43     9    11   ar
    44    11    12    1
    45    47    39   ar
    46    37    32   ar
    47    11     5   ar
    48    47    42   ar
    49    18    13    1
    50    25    19   ar
    51     3     4    1
    52    41    48    1
    53    30    31    1
@<TRIPOS>MOLECULE
*****
 48 53 0 0 0
SMALL
GASTEIGER

@<TRIPOS>ATOM
      1 O          -7.5880  -10.5993   31.5414 O.2     1  UNL1       -0.2701
      2 C          -8.4770  -11.2795   30.9600 C.2     1  UNL1        0.2484
      3 N          -9.8648  -11.0524   31.2604 N.am    1  UNL1       -0.2945
      4 H         -10.5753  -11.6012   30.7328 H       1  UNL1        0.1501
      5 C          -8.0782  -12.2433   29.9095 C.ar    1  UNL1        0.0831
      6 C          -6.7835  -12.1717   29.3697 C.ar    1  UNL1        0.0082
      7 C          -6.4083  -13.0030   28.3128 C.ar    1  UNL1        0.0171
      8 C          -7.3146  -13.9348   27.7878 C.ar    1  UNL1        0.0780
      9 C          -8.5981  -14.0367   28.3466 C.ar    1  UNL1        0.1807
     10 F          -9.4933  -14.9253   27.8456 F       1  UNL1       -0.2005
     11 C          -8.9770  -13.2035   29.4048 C.ar    1  UNL1        0.1729
     12 F         -10.2074  -13.3645   29.9528 F       1  UNL1       -0.2016
     13 N          -6.9377  -14.7686   26.6789 N.pl3   1  UNL1       -0.3023
     14 C          -5.7663  -15.6461   26.7805 C.3     1  UNL1        0.1123
     15 C          -5.0212  -15.6786   25.4452 C.3     1  UNL1        0.1123
     16 N          -5.9674  -15.8940   24.3472 N.pl3   1  UNL1       -0.3034
     17 C          -7.1477  -15.0312   24.2497 C.3     1  UNL1        0.1123
     18 C          -7.8873  -15.0096   25.5870 C.3     1  UNL1        0.1123
     19 C          -5.5664  -16.6727   23.2131 C.ar    1  UNL1        0.0587
     20 C          -4.2420  -16.5947   22.7629 C.ar    1  UNL1        0.0162
     21 C          -3.8277  -17.3446   21.6589 C.ar    1  UNL1        0.0127
     22 C          -4.7355  -18.1776   20.9975 C.ar    1  UNL1        0.0586
     23 CL         -4.2143  -19.1184   19.6119 Cl      1  UNL1       -0.0822
     24 C          -6.0597  -18.2600   21.4415 C.ar    1  UNL1        0.0240
     25 C          -6.4806  -17.5111   22.5471 C.ar    1  UNL1        0.0718
     26 CL         -8.1521  -17.6379   23.0770 Cl      1  UNL1       -0.0809
     27 C         -10.3272   -9.8656   31.9886 C.3     1  UNL1        0.1535
     28 C         -10.6183   -8.7078   31.0490 C.2     1  UNL1        0.2443
     29 O         -11.5613   -8.8168   30.2202 O.2     1  UNL1       -0.2730
     30 N         -10.0020   -7.4215   31.2191 N.am    1  UNL1       -0.2825
     31 H         -10.6329   -6.6051   31.3842 H       1  UNL1        0.1549
     32 C          -8.5888   -7.1802   31.1195 C.ar    1  UNL1        0.0535
     33 C          -7.8954   -7.5920   29.9737 C.ar    1  UNL1        0.0353
     34 C          -6.5290   -7.3233   29.8594 C.ar    1  UNL1        0.1002
     35 N          -5.8729   -6.6867   30.8654 N.ar    1  UNL1       -0.2422
     36 C          -6.5129   -6.3042   32.0020 C.ar    1  UNL1        0.1002
     37 C          -7.8781   -6.5552   32.1553 C.ar    1  UNL1        0.0353
     38 C         -11.5223  -10.2154   32.9054 C.3     1  UNL1        0.0569
     39 C         -12.2234  -11.4938   32.5313 C.ar    1  UNL1       -0.0017
     40 C         -13.1048  -11.6747   31.4684 C.ar    1  UNL1        0.0681
     41 N         -13.5099  -12.9634   31.4034 N.ar    1  UNL1       -0.3523
     42 C         -12.8968  -13.5974   32.4175 C.ar    1  UNL1        0.0563
     43 C         -12.9942  -14.9477   32.7506 C.ar    1  UNL1        0.0170
     44 C         -12.2581  -15.4066   33.8580 C.ar    1  UNL1        0.0015
     45 C         -11.4542  -14.5151   34.6020 C.ar    1  UNL1        0.0001
     46 C         -11.3767  -13.1572   34.2437 C.ar    1  UNL1        0.0012
     47 C         -12.1087  -12.7330   33.1339 C.ar    1  UNL1        0.0131
     48 H         -14.1617  -13.3788   30.7015 H       1  UNL1        0.1660
@<TRIPOS>BOND
     1     1     2    2
     2     2     3   am
     3     3    27    1
     4    27    38    1
     5    38    39    1
     6    39    40   ar
     7    40    41   ar
     8    41    42   ar
     9    42    43   ar
    10    43    44   ar
    11    44    45   ar
    12    45    46   ar
    13    46    47   ar
    14    27    28    1
    15    28    29    2
    16    28    30   am
    17    30    32    1
    18    32    33   ar
    19    33    34   ar
    20    34    35   ar
    21    35    36   ar
    22    36    37   ar
    23     2     5    1
    24     5     6   ar
    25     6     7   ar
    26     7     8   ar
    27     8    13    1
    28    13    14    1
    29    14    15    1
    30    15    16    1
    31    16    19    1
    32    19    20   ar
    33    20    21   ar
    34    21    22   ar
    35    22    23    1
    36    22    24   ar
    37    24    25   ar
    38    25    26    1
    39    16    17    1
    40    17    18    1
    41     8     9   ar
    42     9    10    1
    43     9    11   ar
    44    11    12    1
    45    47    39   ar
    46    37    32   ar
    47    11     5   ar
    48    47    42   ar
    49    18    13    1
    50    25    19   ar
    51     3     4    1
    52    41    48    1
    53    30    31    1
@<TRIPOS>MOLECULE
*****
 48 53 0 0 0
SMALL
GASTEIGER

@<TRIPOS>ATOM
      1 O          -7.4032  -10.9043   31.3054 O.2     1  UNL1       -0.2701
      2 C          -8.2672  -11.4163   30.5423 C.2     1  UNL1        0.2484
      3 N          -9.6329  -10.9702   30.6035 N.am    1  UNL1       -0.2945
      4 H         -10.3126  -11.3831   29.9315 H       1  UNL1        0.1501
      5 C          -7.8407  -12.4102   29.5315 C.ar    1  UNL1        0.0831
      6 C          -6.5389  -12.3404   29.0085 C.ar    1  UNL1        0.0082
      7 C          -6.1376  -13.2024   27.9864 C.ar    1  UNL1        0.0171
      8 C          -7.0242  -14.1633   27.4806 C.ar    1  UNL1        0.0780
      9 C          -8.3146  -14.2626   28.0238 C.ar    1  UNL1        0.1807
     10 F          -9.1910  -15.1794   27.5406 F       1  UNL1       -0.2005
     11 C          -8.7198  -13.3987   29.0471 C.ar    1  UNL1        0.1729
     12 F          -9.9562  -13.5568   29.5822 F       1  UNL1       -0.2016
     13 N          -6.6203  -15.0295   26.4067 N.pl3   1  UNL1       -0.3023
     14 C          -5.7358  -16.1697   26.6716 C.3     1  UNL1        0.1123
     15 C          -4.7473  -16.3426   25.5174 C.3     1  UNL1        0.1123
     16 N          -5.4563  -16.2862   24.2362 N.pl3   1  UNL1       -0.3034
     17 C          -6.3536  -15.1582   23.9723 C.3     1  UNL1        0.1123
     18 C          -7.3398  -14.9973   25.1287 C.3     1  UNL1        0.1123
     19 C          -5.0113  -17.1042   23.1471 C.ar    1  UNL1        0.0587
     20 C          -3.6446  -17.1554   22.8435 C.ar    1  UNL1        0.0162
     21 C          -3.1869  -17.9460   21.7859 C.ar    1  UNL1        0.0127
     22 C          -4.0933  -18.6905   21.0246 C.ar    1  UNL1        0.0586
     23 CL         -3.5176  -19.6824   19.6975 Cl      1  UNL1       -0.0822
     24 C          -5.4596  -18.6437   21.3222 C.ar    1  UNL1        0.0240
     25 C          -5.9241  -17.8535   22.3806 C.ar    1  UNL1        0.0718
     26 CL         -7.6476  -17.8172   22.7255 Cl      1  UNL1       -0.0809
     27 C         -10.0269   -9.7391   31.2976 C.3     1  UNL1        0.1535
     28 C         -10.5033   -8.6735   30.3250 C.2     1  UNL1        0.2443
     29 O         -11.4292   -8.9544   29.5177 O.2     1  UNL1       -0.2730
     30 N         -10.0884   -7.3033   30.4405 N.am    1  UNL1       -0.2825
     31 H         -10.8342   -6.5869   30.5895 H       1  UNL1        0.1549
     32 C          -8.7299   -6.8536   30.3072 C.ar    1  UNL1        0.0535
     33 C          -8.4237   -5.5032   30.5207 C.ar    1  UNL1        0.0353
     34 C          -7.0975   -5.0728   30.4291 C.ar    1  UNL1        0.1002
     35 N          -6.1145   -5.9562   30.1114 N.ar    1  UNL1       -0.2422
     36 C          -6.3862   -7.2656   29.8677 C.ar    1  UNL1        0.1002
     37 C          -7.6990   -7.7352   29.9482 C.ar    1  UNL1        0.0353
     38 C         -11.0544  -10.0427   32.4127 C.3     1  UNL1        0.0569
     39 C         -10.7279  -11.2670   33.2250 C.ar    1  UNL1       -0.0017
     40 C          -9.6182  -11.4437   34.0477 C.ar    1  UNL1        0.0681
     41 N          -9.6694  -12.6487   34.6594 N.ar    1  UNL1       -0.3523
     42 C         -10.7981  -13.2371   34.2279 C.ar    1  UNL1        0.0563
     43 C         -11.2882  -14.4907   34.5909 C.ar    1  UNL1        0.0170
     44 C         -12.5012  -14.9138   34.0175 C.ar    1  UNL1        0.0015
     45 C         -13.1865  -14.0862   33.1011 C.ar    1  UNL1        0.0001
     46 C         -12.6670  -12.8267   32.7520 C.ar    1  UNL1        0.0012
     47 C         -11.4681  -12.4287   33.3453 C.ar    1  UNL1        0.0131
     48 H          -8.9741  -13.0366   35.3349 H       1  UNL1        0.1660
@<TRIPOS>BOND
     1     1     2    2
     2     2     3   am
     3     3    27    1
     4    27    38    1
     5    38    39    1
     6    39    40   ar
     7    40    41   ar
     8    41    42   ar
     9    42    43   ar
    10    43    44   ar
    11    44    45   ar
    12    45    46   ar
    13    46    47   ar
    14    27    28    1
    15    28    29    2
    16    28    30   am
    17    30    32    1
    18    32    33   ar
    19    33    34   ar
    20    34    35   ar
    21    35    36   ar
    22    36    37   ar
    23     2     5    1
    24     5     6   ar
    25     6     7   ar
    26     7     8   ar
    27     8    13    1
    28    13    14    1
    29    14    15    1
    30    15    16    1
    31    16    19    1
    32    19    20   ar
    33    20    21   ar
    34    21    22   ar
    35    22    23    1
    36    22    24   ar
    37    24    25   ar
    38    25    26    1
    39    16    17    1
    40    17    18    1
    41     8     9   ar
    42     9    10    1
    43     9    11   ar
    44    11    12    1
    45    47    39   ar
    46    37    32   ar
    47    11     5   ar
    48    47    42   ar
    49    18    13    1
    50    25    19   ar
    51     3     4    1
    52    41    48    1
    53    30    31    1
@<TRIPOS>MOLECULE
*****
 48 53 0 0 0
SMALL
GASTEIGER

@<TRIPOS>ATOM
      1 O          -9.1880  -10.9003   30.1403 O.2     1  UNL1       -0.2701
      2 C          -8.2434  -11.6964   30.3955 C.2     1  UNL1        0.2484
      3 N          -7.6526  -11.7116   31.7064 N.am    1  UNL1       -0.2945
      4 H          -6.9034  -12.4092   31.8968 H       1  UNL1        0.1501
      5 C          -7.8166  -12.6665   29.3620 C.ar    1  UNL1        0.0831
      6 C          -6.5134  -12.5871   28.8440 C.ar    1  UNL1        0.0082
      7 C          -6.1115  -13.4251   27.8024 C.ar    1  UNL1        0.0171
      8 C          -6.9990  -14.3714   27.2713 C.ar    1  UNL1        0.0780
      9 C          -8.2911  -14.4807   27.8087 C.ar    1  UNL1        0.1807
     10 F          -9.1684  -15.3835   27.3013 F       1  UNL1       -0.2005
     11 C          -8.6968  -13.6409   28.8516 C.ar    1  UNL1        0.1729
     12 F          -9.9349  -13.8090   29.3797 F       1  UNL1       -0.2016
     13 N          -6.5945  -15.2123   26.1777 N.pl3   1  UNL1       -0.3023
     14 C          -5.6521  -16.3139   26.4037 C.3     1  UNL1        0.1123
     15 C          -4.6971  -16.4358   25.2153 C.3     1  UNL1        0.1123
     16 N          -5.4514  -16.4030   23.9594 N.pl3   1  UNL1       -0.3034
     17 C          -6.4059  -15.3142   23.7347 C.3     1  UNL1        0.1123
     18 C          -7.3581  -15.2041   24.9252 C.3     1  UNL1        0.1123
     19 C          -5.0084  -17.1939   22.8496 C.ar    1  UNL1        0.0587
     20 C          -3.6524  -17.1806   22.4977 C.ar    1  UNL1        0.0162
     21 C          -3.1969  -17.9436   21.4192 C.ar    1  UNL1        0.0127
     22 C          -4.0948  -18.7249   20.6851 C.ar    1  UNL1        0.0586
     23 CL         -3.5218  -19.6822   19.3316 Cl      1  UNL1       -0.0822
     24 C          -5.4503  -18.7425   21.0309 C.ar    1  UNL1        0.0240
     25 C          -5.9126  -17.9802   22.1105 C.ar    1  UNL1        0.0718
     26 CL         -7.6227  -18.0249   22.5162 Cl      1  UNL1       -0.0809
     27 C          -8.2831  -11.0604   32.8600 C.3     1  UNL1        0.1535
     28 C          -7.8908   -9.5962   32.9626 C.2     1  UNL1        0.2443
     29 O          -8.6813   -8.7906   33.5231 O.2     1  UNL1       -0.2730
     30 N          -6.5665   -9.1429   32.6404 N.am    1  UNL1       -0.2825
     31 H          -6.0204   -8.6774   33.3999 H       1  UNL1        0.1549
     32 C          -5.9728   -9.2367   31.3349 C.ar    1  UNL1        0.0535
     33 C          -4.9155  -10.1301   31.1180 C.ar    1  UNL1        0.0353
     34 C          -4.3636  -10.2498   29.8399 C.ar    1  UNL1        0.1002
     35 N          -4.8353   -9.4859   28.8193 N.ar    1  UNL1       -0.2422
     36 C          -5.8383   -8.5880   29.0075 C.ar    1  UNL1        0.1002
     37 C          -6.4160   -8.4377   30.2701 C.ar    1  UNL1        0.0353
     38 C          -9.8142  -11.2763   32.8430 C.3     1  UNL1        0.0569
     39 C         -10.2729  -12.4521   33.6631 C.ar    1  UNL1       -0.0017
     40 C          -9.7377  -12.8741   34.8776 C.ar    1  UNL1        0.0681
     41 N         -10.4251  -13.9368   35.3541 N.ar    1  UNL1       -0.3523
     42 C         -11.3864  -14.1933   34.4505 C.ar    1  UNL1        0.0563
     43 C         -12.3558  -15.1934   34.5105 C.ar    1  UNL1        0.0170
     44 C         -13.2756  -15.2822   33.4498 C.ar    1  UNL1        0.0015
     45 C         -13.2036  -14.3831   32.3631 C.ar    1  UNL1        0.0001
     46 C         -12.2133  -13.3850   32.3286 C.ar    1  UNL1        0.0012
     47 C         -11.3219  -13.3136   33.4001 C.ar    1  UNL1        0.0131
     48 H         -10.2462  -14.4473   36.2472 H       1  UNL1        0.1660
@<TRIPOS>BOND
     1     1     2    2
     2     2     3   am
     3     3    27    1
     4    27    38    1
     5    38    39    1
     6    39    40   ar
     7    40    41   ar
     8    41    42   ar
     9    42    43   ar
    10    43    44   ar
    11    44    45   ar
    12    45    46   ar
    13    46    47   ar
    14    27    28    1
    15    28    29    2
    16    28    30   am
    17    30    32    1
    18    32    33   ar
    19    33    34   ar
    20    34    35   ar
    21    35    36   ar
    22    36    37   ar
    23     2     5    1
    24     5     6   ar
    25     6     7   ar
    26     7     8   ar
    27     8    13    1
    28    13    14    1
    29    14    15    1
    30    15    16    1
    31    16    19    1
    32    19    20   ar
    33    20    21   ar
    34    21    22   ar
    35    22    23    1
    36    22    24   ar
    37    24    25   ar
    38    25    26    1
    39    16    17    1
    40    17    18    1
    41     8     9   ar
    42     9    10    1
    43     9    11   ar
    44    11    12    1
    45    47    39   ar
    46    37    32   ar
    47    11     5   ar
    48    47    42   ar
    49    18    13    1
    50    25    19   ar
    51     3     4    1
    52    41    48    1
    53    30    31    1
@<TRIPOS>MOLECULE
*****
 48 53 0 0 0
SMALL
GASTEIGER

@<TRIPOS>ATOM
      1 O          -9.6648  -11.1922   30.5839 O.2     1  UNL1       -0.2701
      2 C          -8.4505  -11.5330   30.5611 C.2     1  UNL1        0.2484
      3 N          -7.5499  -11.0463   31.5710 N.am    1  UNL1       -0.2945
      4 H          -6.5637  -11.3796   31.5481 H       1  UNL1        0.1501
      5 C          -7.9910  -12.5026   29.5413 C.ar    1  UNL1        0.0831
      6 C          -6.6865  -12.3948   29.0318 C.ar    1  UNL1        0.0082
      7 C          -6.2551  -13.2330   28.0022 C.ar    1  UNL1        0.0171
      8 C          -7.1138  -14.2078   27.4751 C.ar    1  UNL1        0.0780
      9 C          -8.4065  -14.3451   28.0044 C.ar    1  UNL1        0.1807
     10 F          -9.2562  -15.2758   27.5006 F       1  UNL1       -0.2005
     11 C          -8.8416  -13.5050   29.0352 C.ar    1  UNL1        0.1729
     12 F         -10.0789  -13.6998   29.5563 F       1  UNL1       -0.2016
     13 N          -6.6793  -15.0495   26.3936 N.pl3   1  UNL1       -0.3023
     14 C          -5.7290  -16.1391   26.6428 C.3     1  UNL1        0.1123
     15 C          -4.7506  -16.2560   25.4731 C.3     1  UNL1        0.1123
     16 N          -5.4816  -16.2380   24.2032 N.pl3   1  UNL1       -0.3034
     17 C          -6.4439  -15.1613   23.9552 C.3     1  UNL1        0.1123
     18 C          -7.4194  -15.0561   25.1270 C.3     1  UNL1        0.1123
     19 C          -5.0090  -17.0293   23.1059 C.ar    1  UNL1        0.0587
     20 C          -3.6455  -17.0088   22.7846 C.ar    1  UNL1        0.0162
     21 C          -3.1613  -17.7721   21.7189 C.ar    1  UNL1        0.0127
     22 C          -4.0377  -18.5608   20.9671 C.ar    1  UNL1        0.0586
     23 CL         -3.4287  -19.5183   19.6296 Cl      1  UNL1       -0.0822
     24 C          -5.4006  -18.5856   21.2823 C.ar    1  UNL1        0.0240
     25 C          -5.8916  -17.8230   22.3490 C.ar    1  UNL1        0.0718
     26 CL         -7.6101  -17.8769   22.7162 Cl      1  UNL1       -0.0809
     27 C          -8.0232  -10.4104   32.8055 C.3     1  UNL1        0.1535
     28 C          -7.6663   -8.9343   32.8499 C.2     1  UNL1        0.2443
     29 O          -7.1280   -8.4677   33.8893 O.2     1  UNL1       -0.2730
     30 N          -7.7212   -8.1066   31.6772 N.am    1  UNL1       -0.2825
     31 H          -6.8323   -7.6526   31.3682 H       1  UNL1        0.1549
     32 C          -8.9228   -7.8200   30.9428 C.ar    1  UNL1        0.0535
     33 C          -9.1181   -8.3990   29.6820 C.ar    1  UNL1        0.0353
     34 C         -10.3032   -8.1515   28.9844 C.ar    1  UNL1        0.1002
     35 N         -11.2501   -7.3345   29.5172 N.ar    1  UNL1       -0.2422
     36 C         -11.0741   -6.7338   30.7238 C.ar    1  UNL1        0.1002
     37 C          -9.9031   -6.9549   31.4520 C.ar    1  UNL1        0.0353
     38 C          -9.5325  -10.6740   33.0148 C.3     1  UNL1        0.0569
     39 C          -9.8292  -11.9141   33.8145 C.ar    1  UNL1       -0.0017
     40 C          -9.1393  -12.3592   34.9394 C.ar    1  UNL1        0.0681
     41 N          -9.7076  -13.4845   35.4288 N.ar    1  UNL1       -0.3523
     42 C         -10.7470  -13.7575   34.6216 C.ar    1  UNL1        0.0563
     43 C         -11.6449  -14.8183   34.7314 C.ar    1  UNL1        0.0170
     44 C         -12.6701  -14.9139   33.7729 C.ar    1  UNL1        0.0015
     45 C         -12.7707  -13.9612   32.7353 C.ar    1  UNL1        0.0001
     46 C         -11.8492  -12.9023   32.6485 C.ar    1  UNL1        0.0012
     47 C         -10.8499  -12.8263   33.6197 C.ar    1  UNL1        0.0131
     48 H          -9.4018  -14.0248   36.2683 H       1  UNL1        0.1660
@<TRIPOS>BOND
     1     1     2    2
     2     2     3   am
     3     3    27    1
     4    27    38    1
     5    38    39    1
     6    39    40   ar
     7    40    41   ar
     8    41    42   ar
     9    42    43   ar
    10    43    44   ar
    11    44    45   ar
    12    45    46   ar
    13    46    47   ar
    14    27    28    1
    15    28    29    2
    16    28    30   am
    17    30    32    1
    18    32    33   ar
    19    33    34   ar
    20    34    35   ar
    21    35    36   ar
    22    36    37   ar
    23     2     5    1
    24     5     6   ar
    25     6     7   ar
    26     7     8   ar
    27     8    13    1
    28    13    14    1
    29    14    15    1
    30    15    16    1
    31    16    19    1
    32    19    20   ar
    33    20    21   ar
    34    21    22   ar
    35    22    23    1
    36    22    24   ar
    37    24    25   ar
    38    25    26    1
    39    16    17    1
    40    17    18    1
    41     8     9   ar
    42     9    10    1
    43     9    11   ar
    44    11    12    1
    45    47    39   ar
    46    37    32   ar
    47    11     5   ar
    48    47    42   ar
    49    18    13    1
    50    25    19   ar
    51     3     4    1
    52    41    48    1
    53    30    31    1
@<TRIPOS>MOLECULE
*****
 48 53 0 0 0
SMALL
GASTEIGER

@<TRIPOS>ATOM
      1 O          -9.3245  -10.5012   30.2532 O.2     1  UNL1       -0.2701
      2 C          -8.2839  -11.1701   30.4998 C.2     1  UNL1        0.2484
      3 N          -7.5805  -10.9719   31.7382 N.am    1  UNL1       -0.2945
      4 H          -6.7494  -11.5693   31.9293 H       1  UNL1        0.1501
      5 C          -7.8529  -12.2149   29.5437 C.ar    1  UNL1        0.0831
      6 C          -6.5440  -12.1807   29.0353 C.ar    1  UNL1        0.0082
      7 C          -6.1369  -13.0941   28.0613 C.ar    1  UNL1        0.0171
      8 C          -7.0250  -14.0712   27.5905 C.ar    1  UNL1        0.0780
      9 C          -8.3232  -14.1340   28.1206 C.ar    1  UNL1        0.1807
     10 F          -9.2011  -15.0660   27.6705 F       1  UNL1       -0.2005
     11 C          -8.7341  -13.2186   29.0957 C.ar    1  UNL1        0.1729
     12 F          -9.9786  -13.3410   29.6214 F       1  UNL1       -0.2016
     13 N          -6.6148  -14.9914   26.5650 N.pl3   1  UNL1       -0.3023
     14 C          -5.8357  -16.1848   26.9134 C.3     1  UNL1        0.1123
     15 C          -4.7877  -16.4575   25.8334 C.3     1  UNL1        0.1123
     16 N          -5.4035  -16.3833   24.5058 N.pl3   1  UNL1       -0.3034
     17 C          -6.1962  -15.2012   24.1578 C.3     1  UNL1        0.1123
     18 C          -7.2430  -14.9405   25.2403 C.3     1  UNL1        0.1123
     19 C          -4.9478  -17.2588   23.4669 C.ar    1  UNL1        0.0587
     20 C          -3.5750  -17.5030   23.3309 C.ar    1  UNL1        0.0162
     21 C          -3.1068  -18.3530   22.3252 C.ar    1  UNL1        0.0127
     22 C          -4.0086  -18.9641   21.4486 C.ar    1  UNL1        0.0586
     23 CL         -3.4197  -20.0308   20.1868 Cl      1  UNL1       -0.0822
     24 C          -5.3809  -18.7243   21.5786 C.ar    1  UNL1        0.0240
     25 C          -5.8559  -17.8738   22.5842 C.ar    1  UNL1        0.0718
     26 CL         -7.5864  -17.5938   22.7177 Cl      1  UNL1       -0.0809
     27 C          -8.1697  -10.2465   32.8692 C.3     1  UNL1        0.1535
     28 C          -8.7199  -11.1956   33.9203 C.2     1  UNL1        0.2443
     29 O          -7.9208  -11.7417   34.7272 O.2     1  UNL1       -0.2730
     30 N         -10.1300  -11.3213   34.1629 N.am    1  UNL1       -0.2825
     31 H         -10.4750  -11.0865   35.1208 H       1  UNL1        0.1549
     32 C         -11.0792  -11.8011   33.1964 C.ar    1  UNL1        0.0535
     33 C         -11.1977  -13.1783   32.9672 C.ar    1  UNL1        0.0353
     34 C         -12.1472  -13.6477   32.0559 C.ar    1  UNL1        0.1002
     35 N         -12.9345  -12.7703   31.3791 N.ar    1  UNL1       -0.2422
     36 C         -12.8199  -11.4277   31.5574 C.ar    1  UNL1        0.1002
     37 C         -11.8824  -10.9184   32.4585 C.ar    1  UNL1        0.0353
     38 C          -7.1662   -9.2212   33.4462 C.3     1  UNL1        0.0569
     39 C          -6.6334   -8.2502   32.4271 C.ar    1  UNL1       -0.0017
     40 C          -5.3213   -8.1685   31.9674 C.ar    1  UNL1        0.0681
     41 N          -5.2103   -7.2095   31.0204 N.ar    1  UNL1       -0.3523
     42 C          -6.4381   -6.6812   30.8805 C.ar    1  UNL1        0.0563
     43 C          -6.8250   -5.6642   30.0089 C.ar    1  UNL1        0.0170
     44 C          -8.1732   -5.2632   30.0233 C.ar    1  UNL1        0.0015
     45 C          -9.0930   -5.8771   30.9018 C.ar    1  UNL1        0.0001
     46 C          -8.6737   -6.8996   31.7716 C.ar    1  UNL1        0.0012
     47 C          -7.3330   -7.2845   31.7271 C.ar    1  UNL1        0.0131
     48 H          -4.3451   -6.9417   30.5007 H       1  UNL1        0.1660
@<TRIPOS>BOND
     1     1     2    2
     2     2     3   am
     3     3    27    1
     4    27    38    1
     5    38    39    1
     6    39    40   ar
     7    40    41   ar
     8    41    42   ar
     9    42    43   ar
    10    43    44   ar
    11    44    45   ar
    12    45    46   ar
    13    46    47   ar
    14    27    28    1
    15    28    29    2
    16    28    30   am
    17    30    32    1
    18    32    33   ar
    19    33    34   ar
    20    34    35   ar
    21    35    36   ar
    22    36    37   ar
    23     2     5    1
    24     5     6   ar
    25     6     7   ar
    26     7     8   ar
    27     8    13    1
    28    13    14    1
    29    14    15    1
    30    15    16    1
    31    16    19    1
    32    19    20   ar
    33    20    21   ar
    34    21    22   ar
    35    22    23    1
    36    22    24   ar
    37    24    25   ar
    38    25    26    1
    39    16    17    1
    40    17    18    1
    41     8     9   ar
    42     9    10    1
    43     9    11   ar
    44    11    12    1
    45    47    39   ar
    46    37    32   ar
    47    11     5   ar
    48    47    42   ar
    49    18    13    1
    50    25    19   ar
    51     3     4    1
    52    41    48    1
    53    30    31    1
@<TRIPOS>MOLECULE
*****
 48 53 0 0 0
SMALL
GASTEIGER

@<TRIPOS>ATOM
      1 O         -10.3789  -12.2545   30.3493 O.2     1  UNL1       -0.2701
      2 C          -9.1255  -12.3285   30.2289 C.2     1  UNL1        0.2484
      3 N          -8.2733  -11.7635   31.2400 N.am    1  UNL1       -0.2945
      4 H          -7.2440  -11.8782   31.1317 H       1  UNL1        0.1501
      5 C          -8.5519  -13.0761   29.0872 C.ar    1  UNL1        0.0831
      6 C          -9.3320  -14.0524   28.4460 C.ar    1  UNL1        0.0082
      7 C          -8.7886  -14.8399   27.4294 C.ar    1  UNL1        0.0171
      8 C          -7.4604  -14.6535   27.0216 C.ar    1  UNL1        0.0780
      9 C          -6.6864  -13.6550   27.6332 C.ar    1  UNL1        0.1807
     10 F          -5.3954  -13.4660   27.2597 F       1  UNL1       -0.2005
     11 C          -7.2282  -12.8656   28.6535 C.ar    1  UNL1        0.1729
     12 F          -6.4673  -11.8771   29.1865 F       1  UNL1       -0.2016
     13 N          -6.8922  -15.4859   25.9964 N.pl3   1  UNL1       -0.3023
     14 C          -5.4622  -15.8127   26.0199 C.3     1  UNL1        0.1123
     15 C          -4.9066  -15.8273   24.5950 C.3     1  UNL1        0.1123
     16 N          -5.7901  -16.6020   23.7194 N.pl3   1  UNL1       -0.3034
     17 C          -7.2219  -16.2911   23.7036 C.3     1  UNL1        0.1123
     18 C          -7.7678  -16.2838   25.1311 C.3     1  UNL1        0.1123
     19 C          -5.2249  -17.3807   22.6575 C.ar    1  UNL1        0.0587
     20 C          -4.8330  -18.7016   22.9112 C.ar    1  UNL1        0.0162
     21 C          -4.2793  -19.4804   21.8916 C.ar    1  UNL1        0.0127
     22 C          -4.1135  -18.9432   20.6113 C.ar    1  UNL1        0.0586
     23 CL         -3.4183  -19.9218   19.3323 Cl      1  UNL1       -0.0822
     24 C          -4.5024  -17.6246   20.3511 C.ar    1  UNL1        0.0240
     25 C          -5.0578  -16.8395   21.3686 C.ar    1  UNL1        0.0718
     26 CL         -5.5340  -15.1862   21.0068 Cl      1  UNL1       -0.0809
     27 C          -8.7769  -11.3642   32.5588 C.3     1  UNL1        0.1535
     28 C          -8.3542   -9.9495   32.9171 C.2     1  UNL1        0.2443
     29 O          -8.0019   -9.6994   34.1008 O.2     1  UNL1       -0.2730
     30 N          -8.1358   -8.9472   31.9117 N.am    1  UNL1       -0.2825
     31 H          -7.1803   -8.5289   31.8507 H       1  UNL1        0.1549
     32 C          -9.1553   -8.4468   31.0310 C.ar    1  UNL1        0.0535
     33 C         -10.0274   -7.4461   31.4798 C.ar    1  UNL1        0.0353
     34 C         -10.9938   -6.9318   30.6115 C.ar    1  UNL1        0.1002
     35 N         -11.1012   -7.4174   29.3464 N.ar    1  UNL1       -0.2422
     36 C         -10.2901   -8.4100   28.8941 C.ar    1  UNL1        0.1002
     37 C          -9.3120   -8.9513   29.7312 C.ar    1  UNL1        0.0353
     38 C         -10.3053  -11.5802   32.6510 C.3     1  UNL1        0.0569
     39 C         -10.7062  -12.7247   33.5427 C.ar    1  UNL1       -0.0017
     40 C         -10.1099  -13.0831   34.7491 C.ar    1  UNL1        0.0681
     41 N         -10.7567  -14.1336   35.3032 N.ar    1  UNL1       -0.3523
     42 C         -11.7529  -14.4453   34.4567 C.ar    1  UNL1        0.0563
     43 C         -12.7012  -15.4564   34.6052 C.ar    1  UNL1        0.0170
     44 C         -13.6659  -15.6072   33.5926 C.ar    1  UNL1        0.0015
     45 C         -13.6584  -14.7571   32.4649 C.ar    1  UNL1        0.0001
     46 C         -12.6881  -13.7465   32.3409 C.ar    1  UNL1        0.0012
     47 C         -11.7509  -13.6131   33.3663 C.ar    1  UNL1        0.0131
     48 H         -10.5290  -14.6003   36.2090 H       1  UNL1        0.1660
@<TRIPOS>BOND
     1     1     2    2
     2     2     3   am
     3     3    27    1
     4    27    38    1
     5    38    39    1
     6    39    40   ar
     7    40    41   ar
     8    41    42   ar
     9    42    43   ar
    10    43    44   ar
    11    44    45   ar
    12    45    46   ar
    13    46    47   ar
    14    27    28    1
    15    28    29    2
    16    28    30   am
    17    30    32    1
    18    32    33   ar
    19    33    34   ar
    20    34    35   ar
    21    35    36   ar
    22    36    37   ar
    23     2     5    1
    24     5     6   ar
    25     6     7   ar
    26     7     8   ar
    27     8    13    1
    28    13    14    1
    29    14    15    1
    30    15    16    1
    31    16    19    1
    32    19    20   ar
    33    20    21   ar
    34    21    22   ar
    35    22    23    1
    36    22    24   ar
    37    24    25   ar
    38    25    26    1
    39    16    17    1
    40    17    18    1
    41     8     9   ar
    42     9    10    1
    43     9    11   ar
    44    11    12    1
    45    47    39   ar
    46    37    32   ar
    47    11     5   ar
    48    47    42   ar
    49    18    13    1
    50    25    19   ar
    51     3     4    1
    52    41    48    1
    53    30    31    1
@<TRIPOS>MOLECULE
*****
 48 53 0 0 0
SMALL
GASTEIGER

@<TRIPOS>ATOM
      1 O          -8.2830  -11.5730   31.8226 O.2     1  UNL1       -0.2701
      2 C          -9.1085  -11.8909   30.9234 C.2     1  UNL1        0.2484
      3 N         -10.4755  -11.4546   31.0181 N.am    1  UNL1       -0.2945
      4 H         -11.1215  -11.6984   30.2387 H       1  UNL1        0.1501
      5 C          -8.6330  -12.6370   29.7366 C.ar    1  UNL1        0.0831
      6 C          -9.4903  -13.5638   29.1209 C.ar    1  UNL1        0.0082
      7 C          -9.0398  -14.3512   28.0599 C.ar    1  UNL1        0.0171
      8 C          -7.7292  -14.2137   27.5818 C.ar    1  UNL1        0.0780
      9 C          -6.8786  -13.2639   28.1687 C.ar    1  UNL1        0.1807
     10 F          -5.6031  -13.1230   27.7269 F       1  UNL1       -0.2005
     11 C          -7.3273  -12.4747   29.2333 C.ar    1  UNL1        0.1729
     12 F          -6.4946  -11.5325   29.7423 F       1  UNL1       -0.2016
     13 N          -7.2565  -15.0470   26.5099 N.pl3   1  UNL1       -0.3023
     14 C          -6.0523  -15.8660   26.6882 C.3     1  UNL1        0.1123
     15 C          -5.2378  -15.8852   25.3939 C.3     1  UNL1        0.1123
     16 N          -6.1142  -16.1636   24.2530 N.pl3   1  UNL1       -0.3034
     17 C          -7.3267  -15.3597   24.0786 C.3     1  UNL1        0.1123
     18 C          -8.1354  -15.3510   25.3754 C.3     1  UNL1        0.1123
     19 C          -5.6187  -16.9412   23.1560 C.ar    1  UNL1        0.0587
     20 C          -4.2807  -16.7992   22.7658 C.ar    1  UNL1        0.0162
     21 C          -3.7748  -17.5467   21.6989 C.ar    1  UNL1        0.0127
     22 C          -4.6040  -18.4411   21.0149 C.ar    1  UNL1        0.0586
     23 CL         -3.9679  -19.3788   19.6760 Cl      1  UNL1       -0.0822
     24 C          -5.9413  -18.5876   21.3992 C.ar    1  UNL1        0.0240
     25 C          -6.4538  -17.8414   22.4674 C.ar    1  UNL1        0.0718
     26 CL         -8.1392  -18.0496   22.9224 Cl      1  UNL1       -0.0809
     27 C         -10.9029  -10.4065   31.9515 C.3     1  UNL1        0.1535
     28 C         -10.9419  -10.9115   33.3839 C.2     1  UNL1        0.2443
     29 O         -10.1354  -10.4287   34.2232 O.2     1  UNL1       -0.2730
     30 N         -12.0024  -11.7549   33.8606 N.am    1  UNL1       -0.2825
     31 H         -12.5829  -11.3954   34.6514 H       1  UNL1        0.1549
     32 C         -12.2753  -13.0746   33.3612 C.ar    1  UNL1        0.0535
     33 C         -13.0153  -13.2288   32.1814 C.ar    1  UNL1        0.0353
     34 C         -13.2480  -14.5099   31.6745 C.ar    1  UNL1        0.1002
     35 N         -12.7785  -15.6005   32.3362 N.ar    1  UNL1       -0.2422
     36 C         -12.0851  -15.4830   33.4995 C.ar    1  UNL1        0.1002
     37 C         -11.8323  -14.2201   34.0395 C.ar    1  UNL1        0.0353
     38 C         -10.0393   -9.1351   31.7820 C.3     1  UNL1        0.0569
     39 C         -10.7872   -7.9628   31.2060 C.ar    1  UNL1       -0.0017
     40 C         -12.1704   -7.8198   31.1285 C.ar    1  UNL1        0.0681
     41 N         -12.4930   -6.6207   30.5929 N.ar    1  UNL1       -0.3523
     42 C         -11.3276   -6.0065   30.3271 C.ar    1  UNL1        0.0563
     43 C         -11.1483   -4.7381   29.7769 C.ar    1  UNL1        0.0170
     44 C          -9.8305   -4.2845   29.5855 C.ar    1  UNL1        0.0015
     45 C          -8.7342   -5.1013   29.9395 C.ar    1  UNL1        0.0001
     46 C          -8.9454   -6.3777   30.4910 C.ar    1  UNL1        0.0012
     47 C         -10.2632   -6.7964   30.6800 C.ar    1  UNL1        0.0131
     48 H         -13.4545   -6.2485   30.4277 H       1  UNL1        0.1660
@<TRIPOS>BOND
     1     1     2    2
     2     2     3   am
     3     3    27    1
     4    27    38    1
     5    38    39    1
     6    39    40   ar
     7    40    41   ar
     8    41    42   ar
     9    42    43   ar
    10    43    44   ar
    11    44    45   ar
    12    45    46   ar
    13    46    47   ar
    14    27    28    1
    15    28    29    2
    16    28    30   am
    17    30    32    1
    18    32    33   ar
    19    33    34   ar
    20    34    35   ar
    21    35    36   ar
    22    36    37   ar
    23     2     5    1
    24     5     6   ar
    25     6     7   ar
    26     7     8   ar
    27     8    13    1
    28    13    14    1
    29    14    15    1
    30    15    16    1
    31    16    19    1
    32    19    20   ar
    33    20    21   ar
    34    21    22   ar
    35    22    23    1
    36    22    24   ar
    37    24    25   ar
    38    25    26    1
    39    16    17    1
    40    17    18    1
    41     8     9   ar
    42     9    10    1
    43     9    11   ar
    44    11    12    1
    45    47    39   ar
    46    37    32   ar
    47    11     5   ar
    48    47    42   ar
    49    18    13    1
    50    25    19   ar
    51     3     4    1
    52    41    48    1
    53    30    31    1
@<TRIPOS>MOLECULE
*****
 48 53 0 0 0
SMALL
GASTEIGER

@<TRIPOS>ATOM
      1 O          -6.0923  -11.5719   31.2539 O.2     1  UNL1       -0.2701
      2 C          -7.0375  -11.4602   30.4262 C.2     1  UNL1        0.2484
      3 N          -7.8714  -10.2888   30.4435 N.am    1  UNL1       -0.2945
      4 H          -8.6163  -10.2083   29.7203 H       1  UNL1        0.1501
      5 C          -7.2176  -12.5018   29.3897 C.ar    1  UNL1        0.0831
      6 C          -6.1174  -12.8855   28.6054 C.ar    1  UNL1        0.0082
      7 C          -6.2753  -13.7946   27.5578 C.ar    1  UNL1        0.0171
      8 C          -7.5327  -14.3519   27.2864 C.ar    1  UNL1        0.0780
      9 C          -8.6290  -14.0004   28.0893 C.ar    1  UNL1        0.1807
     10 F          -9.8566  -14.5210   27.8361 F       1  UNL1       -0.2005
     11 C          -8.4736  -13.0882   29.1388 C.ar    1  UNL1        0.1729
     12 F          -9.5437  -12.8108   29.9250 F       1  UNL1       -0.2016
     13 N          -7.7006  -15.2638   26.1879 N.pl3   1  UNL1       -0.3023
     14 C          -6.9737  -15.0476   24.9320 C.3     1  UNL1        0.1123
     15 C          -7.8645  -15.4134   23.7437 C.3     1  UNL1        0.1123
     16 N          -8.4990  -16.7142   23.9733 N.pl3   1  UNL1       -0.3034
     17 C          -9.2126  -16.9417   25.2326 C.3     1  UNL1        0.1123
     18 C          -8.3126  -16.5779   26.4130 C.3     1  UNL1        0.1123
     19 C          -8.7233  -17.5950   22.8654 C.ar    1  UNL1        0.0587
     20 C          -7.7027  -18.4687   22.4682 C.ar    1  UNL1        0.0162
     21 C          -7.8981  -19.3368   21.3907 C.ar    1  UNL1        0.0127
     22 C          -9.1157  -19.3366   20.7030 C.ar    1  UNL1        0.0586
     23 CL         -9.3597  -20.4267   19.3506 Cl      1  UNL1       -0.0822
     24 C         -10.1390  -18.4664   21.0941 C.ar    1  UNL1        0.0240
     25 C          -9.9491  -17.5944   22.1730 C.ar    1  UNL1        0.0718
     26 CL        -11.2559  -16.5135   22.6365 Cl      1  UNL1       -0.0809
     27 C          -7.5030   -9.0728   31.1771 C.3     1  UNL1        0.1535
     28 C          -7.5504   -7.8430   30.2862 C.2     1  UNL1        0.2443
     29 O          -6.4765   -7.2384   30.0233 O.2     1  UNL1       -0.2730
     30 N          -8.7363   -7.4774   29.5630 N.am    1  UNL1       -0.2825
     31 H          -8.6700   -7.4379   28.5210 H       1  UNL1        0.1549
     32 C          -9.9810   -7.1095   30.1801 C.ar    1  UNL1        0.0535
     33 C         -10.0785   -5.8943   30.8708 C.ar    1  UNL1        0.0353
     34 C         -11.2989   -5.5182   31.4378 C.ar    1  UNL1        0.1002
     35 N         -12.3782   -6.3387   31.3392 N.ar    1  UNL1       -0.2422
     36 C         -12.3046   -7.5377   30.7029 C.ar    1  UNL1        0.1002
     37 C         -11.1027   -7.9505   30.1236 C.ar    1  UNL1        0.0353
     38 C          -8.3567   -8.9248   32.4579 C.3     1  UNL1        0.0569
     39 C          -8.8108  -10.2354   33.0423 C.ar    1  UNL1       -0.0017
     40 C          -8.1449  -10.9873   34.0070 C.ar    1  UNL1        0.0681
     41 N          -8.8641  -12.0859   34.3306 N.ar    1  UNL1       -0.3523
     42 C          -9.9756  -12.0381   33.5766 C.ar    1  UNL1        0.0563
     43 C         -11.0290  -12.9513   33.5673 C.ar    1  UNL1        0.0170
     44 C         -12.1053  -12.7047   32.6958 C.ar    1  UNL1        0.0015
     45 C         -12.1026  -11.5668   31.8594 C.ar    1  UNL1        0.0001
     46 C         -11.0250  -10.6634   31.8889 C.ar    1  UNL1        0.0012
     47 C          -9.9768  -10.9276   32.7715 C.ar    1  UNL1        0.0131
     48 H          -8.6073  -12.8171   35.0304 H       1  UNL1        0.1660
@<TRIPOS>BOND
     1     1     2    2
     2     2     3   am
     3     3    27    1
     4    27    38    1
     5    38    39    1
     6    39    40   ar
     7    40    41   ar
     8    41    42   ar
     9    42    43   ar
    10    43    44   ar
    11    44    45   ar
    12    45    46   ar
    13    46    47   ar
    14    27    28    1
    15    28    29    2
    16    28    30   am
    17    30    32    1
    18    32    33   ar
    19    33    34   ar
    20    34    35   ar
    21    35    36   ar
    22    36    37   ar
    23     2     5    1
    24     5     6   ar
    25     6     7   ar
    26     7     8   ar
    27     8    13    1
    28    13    14    1
    29    14    15    1
    30    15    16    1
    31    16    19    1
    32    19    20   ar
    33    20    21   ar
    34    21    22   ar
    35    22    23    1
    36    22    24   ar
    37    24    25   ar
    38    25    26    1
    39    16    17    1
    40    17    18    1
    41     8     9   ar
    42     9    10    1
    43     9    11   ar
    44    11    12    1
    45    47    39   ar
    46    37    32   ar
    47    11     5   ar
    48    47    42   ar
    49    18    13    1
    50    25    19   ar
    51     3     4    1
    52    41    48    1
    53    30    31    1
