@<TRIPOS>MOLECULE
*****
 48 53 0 0 0
SMALL
GASTEIGER

@<TRIPOS>ATOM
      1 C          60.9122   87.5106    8.6517 C.ar    1  UNL1        0.0702
      2 C          60.6928   86.1469    8.8777 C.ar    1  UNL1        0.0191
      3 C          60.7538   85.6283   10.1718 C.ar    1  UNL1        0.0356
      4 C          61.0576   86.4802   11.2478 C.ar    1  UNL1        0.1318
      5 N          61.2873   87.8004   10.9996 N.ar    1  UNL1       -0.2279
      6 C          61.2285   88.3280    9.7483 C.ar    1  UNL1        0.1149
      7 N          61.1277   85.9844   12.6025 N.pl3   1  UNL1       -0.2932
      8 C          60.4355   86.6853   13.6982 C.3     1  UNL1        0.0923
      9 C          60.1288   85.7313   14.8590 C.3     1  UNL1        0.0252
     10 C          61.3917   85.0023   15.3833 C.3     1  UNL1        0.0472
     11 C          62.4543   84.7684   14.2787 C.3     1  UNL1        0.0252
     12 C          61.8362   84.7254   12.8794 C.3     1  UNL1        0.0923
     13 C          62.0040   85.7560   16.5823 C.3     1  UNL1        0.2054
     14 O          63.2330   86.3900   16.2219 O.3     1  UNL1       -0.4755
     15 C          63.3592   87.6537   15.6213 C.ar    1  UNL1        0.1390
     16 C          63.0227   88.7768   16.3837 C.ar    1  UNL1        0.0433
     17 C          63.1208   90.0711   15.8466 C.ar    1  UNL1        0.0787
     18 C          63.5851   90.2291   14.5298 C.ar    1  UNL1        0.0131
     19 C          63.9325   89.1133   13.7489 C.ar    1  UNL1        0.0787
     20 C          63.8166   87.8276   14.3019 C.ar    1  UNL1        0.0433
     21 C          62.7639   91.2632   16.6543 C.2     1  UNL1        0.3381
     22 O          61.5632   91.4609   16.9806 O.2     1  UNL1       -0.2451
     23 O          63.7278   92.1755   17.0823 O.3     1  UNL1       -0.4771
     24 H          64.7190   92.0248   16.9473 H       1  UNL1        0.2954
     25 C          64.4151   89.2868   12.3597 C.2     1  UNL1        0.3381
     26 O          63.8112   88.7358   11.3997 O.2     1  UNL1       -0.2451
     27 O          65.5430   90.0610   12.0992 O.3     1  UNL1       -0.4771
     28 H          65.8815   90.1857   11.1525 H       1  UNL1        0.2954
     29 C          59.8153   88.8640    6.8047 C.2     1  UNL1        0.2839
     30 O          58.7366   88.9840    7.4455 O.2     1  UNL1       -0.2665
     31 N          60.8676   88.0261    7.3100 N.am    1  UNL1       -0.2766
     32 H          61.6012   87.7023    6.6394 H       1  UNL1        0.1553
     33 C          57.5076   90.1604    4.9973 C.3     1  UNL1        0.0345
     34 C          58.9802   90.1207    4.7194 C.ar    1  UNL1        0.0202
     35 C          59.9846   89.5527    5.5112 C.ar    1  UNL1        0.1946
     36 O          61.1620   89.7179    4.9348 O.2     1  UNL1       -0.4492
     37 C          60.9729   90.3632    3.8098 C.ar    1  UNL1        0.1452
     38 C          61.9377   90.7493    2.8861 C.ar    1  UNL1        0.0375
     39 C          61.5133   91.4401    1.7379 C.ar    1  UNL1        0.0031
     40 C          60.1382   91.7332    1.5307 C.ar    1  UNL1        0.0002
     41 C          59.1879   91.3217    2.4959 C.ar    1  UNL1        0.0028
     42 C          59.6446   90.6378    3.6236 C.ar    1  UNL1        0.0337
     43 C          59.7016   92.4639    0.3139 C.ar    1  UNL1        0.0000
     44 C          60.6379   93.1479   -0.4849 C.ar    1  UNL1        0.0000
     45 C          60.2239   93.8351   -1.6302 C.ar    1  UNL1        0.0000
     46 C          58.8749   93.8468   -1.9914 C.ar    1  UNL1        0.0000
     47 C          57.9365   93.1717   -1.2079 C.ar    1  UNL1        0.0000
     48 C          58.3446   92.4837   -0.0610 C.ar    1  UNL1        0.0000
@<TRIPOS>BOND
     1    33    34    1
     2    34    35   ar
     3    35    29    1
     4    29    30    2
     5    29    31   am
     6    31     1    1
     7     1     2   ar
     8     2     3   ar
     9     3     4   ar
    10     4     7    1
    11     7     8    1
    12     8     9    1
    13     9    10    1
    14    10    13    1
    15    13    14    1
    16    14    15    1
    17    15    16   ar
    18    16    17   ar
    19    17    21    1
    20    21    22    2
    21    21    23    1
    22    17    18   ar
    23    18    19   ar
    24    19    25    1
    25    25    26    2
    26    25    27    1
    27    19    20   ar
    28    10    11    1
    29    11    12    1
    30     4     5   ar
    31     5     6   ar
    32    35    36   ar
    33    36    37   ar
    34    37    38   ar
    35    38    39   ar
    36    39    40   ar
    37    40    43    1
    38    43    44   ar
    39    44    45   ar
    40    45    46   ar
    41    46    47   ar
    42    47    48   ar
    43    40    41   ar
    44    41    42   ar
    45    42    34   ar
    46     6     1   ar
    47    42    37   ar
    48    12     7    1
    49    48    43   ar
    50    20    15   ar
    51    31    32    1
    52    23    24    1
    53    27    28    1
@<TRIPOS>MOLECULE
*****
 48 53 0 0 0
SMALL
GASTEIGER

@<TRIPOS>ATOM
      1 C          60.7418   86.6596    8.3956 C.ar    1  UNL1        0.0702
      2 C          59.8509   85.6642    8.8132 C.ar    1  UNL1        0.0191
      3 C          60.0682   84.9813   10.0107 C.ar    1  UNL1        0.0356
      4 C          61.1999   85.2839   10.7873 C.ar    1  UNL1        0.1318
      5 N          62.0636   86.2428   10.3492 N.ar    1  UNL1       -0.2279
      6 C          61.8694   86.9238    9.1891 C.ar    1  UNL1        0.1149
      7 N          61.4602   84.6027   12.0339 N.pl3   1  UNL1       -0.2932
      8 C          62.7992   84.0665   12.3344 C.3     1  UNL1        0.0923
      9 C          63.0216   83.9485   13.8472 C.3     1  UNL1        0.0252
     10 C          61.9233   83.1108   14.5493 C.3     1  UNL1        0.0472
     11 C          60.5461   83.2111   13.8440 C.3     1  UNL1        0.0252
     12 C          60.3966   84.5082   13.0458 C.3     1  UNL1        0.0923
     13 C          62.3608   81.6379   14.6908 C.3     1  UNL1        0.2054
     14 O          62.6028   81.0452   13.4131 O.3     1  UNL1       -0.4755
     15 C          61.6211   80.5459   12.5410 C.ar    1  UNL1        0.1390
     16 C          61.5516   81.0896   11.2544 C.ar    1  UNL1        0.0433
     17 C          60.5927   80.6413   10.3309 C.ar    1  UNL1        0.0787
     18 C          59.7092   79.6162   10.7093 C.ar    1  UNL1        0.0131
     19 C          59.7660   79.0538   11.9961 C.ar    1  UNL1        0.0787
     20 C          60.7253   79.5244   12.9074 C.ar    1  UNL1        0.0433
     21 C          60.5178   81.2175    8.9659 C.2     1  UNL1        0.3381
     22 O          59.6912   80.7537    8.1358 O.2     1  UNL1       -0.2451
     23 O          61.3318   82.2787    8.5711 O.3     1  UNL1       -0.4771
     24 H          61.9411   82.7670    9.2144 H       1  UNL1        0.2954
     25 C          58.8276   77.9782   12.3903 C.2     1  UNL1        0.3381
     26 O          58.5998   77.7433   13.6081 O.2     1  UNL1       -0.2451
     27 O          58.1867   77.2138   11.4185 O.3     1  UNL1       -0.4771
     28 H          57.5432   76.4755   11.6778 H       1  UNL1        0.2954
     29 C          60.0613   88.6982    7.0439 C.2     1  UNL1        0.2839
     30 O          59.5897   89.2890    8.0525 O.2     1  UNL1       -0.2665
     31 N          60.5163   87.3392    7.1485 N.am    1  UNL1       -0.2766
     32 H          60.6085   86.7838    6.2678 H       1  UNL1        0.1553
     33 C          57.5663   89.7549    5.3319 C.3     1  UNL1        0.0345
     34 C          59.0228   89.8520    4.9908 C.ar    1  UNL1        0.0202
     35 C          60.1094   89.3884    5.7410 C.ar    1  UNL1        0.1946
     36 O          61.2402   89.6590    5.1135 O.2     1  UNL1       -0.4492
     37 C          60.9431   90.2737    3.9948 C.ar    1  UNL1        0.1452
     38 C          61.8267   90.7411    3.0283 C.ar    1  UNL1        0.0375
     39 C          61.2902   91.3785    1.8963 C.ar    1  UNL1        0.0031
     40 C          59.8860   91.5386    1.7474 C.ar    1  UNL1        0.0002
     41 C          59.0209   91.0477    2.7547 C.ar    1  UNL1        0.0028
     42 C          59.5880   90.4199    3.8649 C.ar    1  UNL1        0.0337
     43 C          59.3307   92.2141    0.5471 C.ar    1  UNL1        0.0000
     44 C          60.0681   93.2123   -0.1179 C.ar    1  UNL1        0.0000
     45 C          59.5427   93.8466   -1.2479 C.ar    1  UNL1        0.0000
     46 C          58.2795   93.4926   -1.7268 C.ar    1  UNL1        0.0000
     47 C          57.5384   92.5035   -1.0765 C.ar    1  UNL1        0.0000
     48 C          58.0583   91.8665    0.0545 C.ar    1  UNL1        0.0000
@<TRIPOS>BOND
     1    33    34    1
     2    34    35   ar
     3    35    29    1
     4    29    30    2
     5    29    31   am
     6    31     1    1
     7     1     2   ar
     8     2     3   ar
     9     3     4   ar
    10     4     7    1
    11     7     8    1
    12     8     9    1
    13     9    10    1
    14    10    13    1
    15    13    14    1
    16    14    15    1
    17    15    16   ar
    18    16    17   ar
    19    17    21    1
    20    21    22    2
    21    21    23    1
    22    17    18   ar
    23    18    19   ar
    24    19    25    1
    25    25    26    2
    26    25    27    1
    27    19    20   ar
    28    10    11    1
    29    11    12    1
    30     4     5   ar
    31     5     6   ar
    32    35    36   ar
    33    36    37   ar
    34    37    38   ar
    35    38    39   ar
    36    39    40   ar
    37    40    43    1
    38    43    44   ar
    39    44    45   ar
    40    45    46   ar
    41    46    47   ar
    42    47    48   ar
    43    40    41   ar
    44    41    42   ar
    45    42    34   ar
    46     6     1   ar
    47    42    37   ar
    48    12     7    1
    49    48    43   ar
    50    20    15   ar
    51    31    32    1
    52    23    24    1
    53    27    28    1
@<TRIPOS>MOLECULE
*****
 48 53 0 0 0
SMALL
GASTEIGER

@<TRIPOS>ATOM
      1 C          61.2019   87.8403    8.7813 C.ar    1  UNL1        0.0702
      2 C          61.7689   88.6353    9.7840 C.ar    1  UNL1        0.0191
      3 C          61.7926   88.1907   11.1066 C.ar    1  UNL1        0.0356
      4 C          61.2247   86.9468   11.4315 C.ar    1  UNL1        0.1318
      5 N          60.6603   86.2002   10.4408 N.ar    1  UNL1       -0.2279
      6 C          60.6303   86.6110    9.1455 C.ar    1  UNL1        0.1149
      7 N          61.2309   86.4486   12.7871 N.pl3   1  UNL1       -0.2932
      8 C          62.5002   86.1824   13.4863 C.3     1  UNL1        0.0923
      9 C          62.3204   86.2566   15.0075 C.3     1  UNL1        0.0252
     10 C          61.2007   85.3179   15.5235 C.3     1  UNL1        0.0472
     11 C          60.0648   85.1098   14.4889 C.3     1  UNL1        0.0252
     12 C          59.9576   86.2755   13.5031 C.3     1  UNL1        0.0923
     13 C          61.7839   83.9634   15.9774 C.3     1  UNL1        0.2054
     14 O          62.8118   83.5192   15.0895 O.3     1  UNL1       -0.4755
     15 C          62.6301   82.6774   13.9795 C.ar    1  UNL1        0.1390
     16 C          61.7899   81.5696   14.1294 C.ar    1  UNL1        0.0433
     17 C          61.5652   80.6830   13.0632 C.ar    1  UNL1        0.0787
     18 C          62.1822   80.9347   11.8260 C.ar    1  UNL1        0.0131
     19 C          63.0264   82.0452   11.6540 C.ar    1  UNL1        0.0787
     20 C          63.2460   82.9127   12.7363 C.ar    1  UNL1        0.0433
     21 C          60.6744   79.5073   13.2210 C.2     1  UNL1        0.3381
     22 O          59.6749   79.5780   13.9848 O.2     1  UNL1       -0.2451
     23 O          60.9011   78.3165   12.5316 O.3     1  UNL1       -0.4771
     24 H          61.6197   78.2236   11.8257 H       1  UNL1        0.2954
     25 C          63.6785   82.3009   10.3493 C.2     1  UNL1        0.3381
     26 O          64.6803   81.6238    9.9918 O.2     1  UNL1       -0.2451
     27 O          63.1913   83.2937    9.5029 O.3     1  UNL1       -0.4771
     28 H          63.6304   83.4768    8.6084 H       1  UNL1        0.2954
     29 C          59.9898   88.8528    6.7934 C.2     1  UNL1        0.2839
     30 O          58.8562   88.6879    7.3190 O.2     1  UNL1       -0.2665
     31 N          61.1652   88.3217    7.4267 N.am    1  UNL1       -0.2766
     32 H          62.0238   88.1994    6.8432 H       1  UNL1        0.1553
     33 C          57.5971   90.0377    5.0202 C.3     1  UNL1        0.0345
     34 C          59.0666   90.0772    4.7261 C.ar    1  UNL1        0.0202
     35 C          60.1083   89.5576    5.5029 C.ar    1  UNL1        0.1946
     36 O          61.2688   89.7881    4.9149 O.2     1  UNL1       -0.4492
     37 C          61.0335   90.4298    3.7966 C.ar    1  UNL1        0.1452
     38 C          61.9663   90.8719    2.8651 C.ar    1  UNL1        0.0375
     39 C          61.4934   91.5467    1.7264 C.ar    1  UNL1        0.0031
     40 C          60.1026   91.7685    1.5361 C.ar    1  UNL1        0.0002
     41 C          59.1861   91.3016    2.5088 C.ar    1  UNL1        0.0028
     42 C          59.6907   90.6354    3.6267 C.ar    1  UNL1        0.0337
     43 C          59.6147   92.4829    0.3293 C.ar    1  UNL1        0.0000
     44 C          60.5134   93.1741   -0.5057 C.ar    1  UNL1        0.0000
     45 C          60.0511   93.8459   -1.6415 C.ar    1  UNL1        0.0000
     46 C          58.6907   93.8352   -1.9572 C.ar    1  UNL1        0.0000
     47 C          57.7892   93.1528   -1.1375 C.ar    1  UNL1        0.0000
     48 C          58.2457   92.4800    0.0002 C.ar    1  UNL1        0.0000
@<TRIPOS>BOND
     1    33    34    1
     2    34    35   ar
     3    35    29    1
     4    29    30    2
     5    29    31   am
     6    31     1    1
     7     1     2   ar
     8     2     3   ar
     9     3     4   ar
    10     4     7    1
    11     7     8    1
    12     8     9    1
    13     9    10    1
    14    10    13    1
    15    13    14    1
    16    14    15    1
    17    15    16   ar
    18    16    17   ar
    19    17    21    1
    20    21    22    2
    21    21    23    1
    22    17    18   ar
    23    18    19   ar
    24    19    25    1
    25    25    26    2
    26    25    27    1
    27    19    20   ar
    28    10    11    1
    29    11    12    1
    30     4     5   ar
    31     5     6   ar
    32    35    36   ar
    33    36    37   ar
    34    37    38   ar
    35    38    39   ar
    36    39    40   ar
    37    40    43    1
    38    43    44   ar
    39    44    45   ar
    40    45    46   ar
    41    46    47   ar
    42    47    48   ar
    43    40    41   ar
    44    41    42   ar
    45    42    34   ar
    46     6     1   ar
    47    42    37   ar
    48    12     7    1
    49    48    43   ar
    50    20    15   ar
    51    31    32    1
    52    23    24    1
    53    27    28    1
@<TRIPOS>MOLECULE
*****
 48 53 0 0 0
SMALL
GASTEIGER

@<TRIPOS>ATOM
      1 C          60.9379   87.4947    8.6543 C.ar    1  UNL1        0.0702
      2 C          60.7009   86.1323    8.8702 C.ar    1  UNL1        0.0191
      3 C          60.7434   85.6057   10.1619 C.ar    1  UNL1        0.0356
      4 C          61.0462   86.4479   11.2456 C.ar    1  UNL1        0.1318
      5 N          61.2933   87.7668   11.0074 N.ar    1  UNL1       -0.2279
      6 C          61.2527   88.3021    9.7587 C.ar    1  UNL1        0.1149
      7 N          61.0973   85.9436   12.5980 N.pl3   1  UNL1       -0.2932
      8 C          60.5236   86.7173   13.7130 C.3     1  UNL1        0.0923
      9 C          60.1417   85.8023   14.8830 C.3     1  UNL1        0.0252
     10 C          61.3258   84.9298   15.3707 C.3     1  UNL1        0.0472
     11 C          62.3214   84.5767   14.2357 C.3     1  UNL1        0.0252
     12 C          61.6621   84.6099   12.8550 C.3     1  UNL1        0.0923
     13 C          62.0563   85.6038   16.5508 C.3     1  UNL1        0.2054
     14 O          63.2400   86.2736   16.1120 O.3     1  UNL1       -0.4755
     15 C          63.3215   87.6177   15.7113 C.ar    1  UNL1        0.1390
     16 C          64.0226   87.9086   14.5368 C.ar    1  UNL1        0.0433
     17 C          64.1479   89.2305   14.0782 C.ar    1  UNL1        0.0787
     18 C          63.5378   90.2654   14.8070 C.ar    1  UNL1        0.0131
     19 C          62.8251   89.9929   15.9874 C.ar    1  UNL1        0.0787
     20 C          62.7213   88.6655   16.4338 C.ar    1  UNL1        0.0433
     21 C          64.8917   89.5405   12.8325 C.2     1  UNL1        0.3381
     22 O          64.4086   89.2096   11.7169 O.2     1  UNL1       -0.2451
     23 O          66.1159   90.2078   12.8551 O.3     1  UNL1       -0.4771
     24 H          66.5107   90.5941   13.7027 H       1  UNL1        0.2954
     25 C          62.1899   91.0892   16.7540 C.2     1  UNL1        0.3381
     26 O          61.0726   90.9152   17.3119 O.2     1  UNL1       -0.2451
     27 O          62.8210   92.3256   16.8662 O.3     1  UNL1       -0.4771
     28 H          62.3948   93.0821   17.3881 H       1  UNL1        0.2954
     29 C          59.8622   88.8510    6.7971 C.2     1  UNL1        0.2839
     30 O          58.7717   88.9584    7.4198 O.2     1  UNL1       -0.2665
     31 N          60.9124   88.0183    7.3152 N.am    1  UNL1       -0.2766
     32 H          61.6600   87.7046    6.6555 H       1  UNL1        0.1553
     33 C          57.5713   90.0968    4.9336 C.3     1  UNL1        0.0345
     34 C          59.0512   90.0952    4.6949 C.ar    1  UNL1        0.0202
     35 C          60.0484   89.5492    5.5109 C.ar    1  UNL1        0.1946
     36 O          61.2360   89.7463    4.9666 O.2     1  UNL1       -0.4492
     37 C          61.0606   90.3915    3.8394 C.ar    1  UNL1        0.1452
     38 C          62.0395   90.8056    2.9429 C.ar    1  UNL1        0.0375
     39 C          61.6283   91.4904    1.7864 C.ar    1  UNL1        0.0031
     40 C          60.2522   91.7498    1.5437 C.ar    1  UNL1        0.0002
     41 C          59.2874   91.3105    2.4819 C.ar    1  UNL1        0.0028
     42 C          59.7312   90.6334    3.6190 C.ar    1  UNL1        0.0337
     43 C          59.8297   92.4744    0.3184 C.ar    1  UNL1        0.0000
     44 C          58.4638   92.6345    0.0166 C.ar    1  UNL1        0.0000
     45 C          58.0688   93.3173   -1.1380 C.ar    1  UNL1        0.0000
     46 C          59.0293   93.8478   -2.0018 C.ar    1  UNL1        0.0000
     47 C          60.3874   93.6964   -1.7134 C.ar    1  UNL1        0.0000
     48 C          60.7882   93.0137   -0.5608 C.ar    1  UNL1        0.0000
@<TRIPOS>BOND
     1    33    34    1
     2    34    35   ar
     3    35    29    1
     4    29    30    2
     5    29    31   am
     6    31     1    1
     7     1     2   ar
     8     2     3   ar
     9     3     4   ar
    10     4     7    1
    11     7     8    1
    12     8     9    1
    13     9    10    1
    14    10    13    1
    15    13    14    1
    16    14    15    1
    17    15    16   ar
    18    16    17   ar
    19    17    21    1
    20    21    22    2
    21    21    23    1
    22    17    18   ar
    23    18    19   ar
    24    19    25    1
    25    25    26    2
    26    25    27    1
    27    19    20   ar
    28    10    11    1
    29    11    12    1
    30     4     5   ar
    31     5     6   ar
    32    35    36   ar
    33    36    37   ar
    34    37    38   ar
    35    38    39   ar
    36    39    40   ar
    37    40    43    1
    38    43    44   ar
    39    44    45   ar
    40    45    46   ar
    41    46    47   ar
    42    47    48   ar
    43    40    41   ar
    44    41    42   ar
    45    42    34   ar
    46     6     1   ar
    47    42    37   ar
    48    12     7    1
    49    48    43   ar
    50    20    15   ar
    51    31    32    1
    52    23    24    1
    53    27    28    1
@<TRIPOS>MOLECULE
*****
 48 53 0 0 0
SMALL
GASTEIGER

@<TRIPOS>ATOM
      1 C          60.8050   86.8325    8.2246 C.ar    1  UNL1        0.0702
      2 C          59.7488   86.0947    8.7714 C.ar    1  UNL1        0.0191
      3 C          59.9108   85.4258    9.9854 C.ar    1  UNL1        0.0356
      4 C          61.1491   85.4796   10.6482 C.ar    1  UNL1        0.1318
      5 N          62.1685   86.1876   10.0853 N.ar    1  UNL1       -0.2279
      6 C          62.0319   86.8506    8.9067 C.ar    1  UNL1        0.1149
      7 N          61.3576   84.8041   11.9076 N.pl3   1  UNL1       -0.2932
      8 C          62.6481   84.1624   12.2140 C.3     1  UNL1        0.0923
      9 C          62.8681   84.0566   13.7280 C.3     1  UNL1        0.0252
     10 C          61.7066   83.3294   14.4513 C.3     1  UNL1        0.0472
     11 C          60.3390   83.5318   13.7493 C.3     1  UNL1        0.0252
     12 C          60.2955   84.8205   12.9251 C.3     1  UNL1        0.0923
     13 C          62.0187   81.8279   14.6214 C.3     1  UNL1        0.2054
     14 O          62.3866   81.2316   13.3759 O.3     1  UNL1       -0.4755
     15 C          61.4971   80.8085   12.3742 C.ar    1  UNL1        0.1390
     16 C          60.5986   79.7838   12.6876 C.ar    1  UNL1        0.0433
     17 C          59.6833   79.3080   11.7340 C.ar    1  UNL1        0.0787
     18 C          59.6651   79.8922   10.4561 C.ar    1  UNL1        0.0131
     19 C          60.5570   80.9262   10.1232 C.ar    1  UNL1        0.0787
     20 C          61.4711   81.3793   11.0882 C.ar    1  UNL1        0.0433
     21 C          58.7298   78.2208   12.0652 C.2     1  UNL1        0.3381
     22 O          58.5663   77.8766   13.2660 O.2     1  UNL1       -0.2451
     23 O          57.9880   77.5695   11.0802 O.3     1  UNL1       -0.4771
     24 H          57.9904   77.8635   10.1122 H       1  UNL1        0.2954
     25 C          60.5365   81.5330    8.7725 C.2     1  UNL1        0.3381
     26 O          61.1566   82.6070    8.5448 O.2     1  UNL1       -0.2451
     27 O          59.8307   80.9227    7.7386 O.3     1  UNL1       -0.4771
     28 H          59.8101   81.3299    6.8112 H       1  UNL1        0.2954
     29 C          59.9841   88.7726    6.8075 C.2     1  UNL1        0.2839
     30 O          59.3068   89.2596    7.7522 O.2     1  UNL1       -0.2665
     31 N          60.6297   87.4982    6.9620 N.am    1  UNL1       -0.2766
     32 H          60.9141   86.9845    6.0972 H       1  UNL1        0.1553
     33 C          57.5608   89.9449    5.0677 C.3     1  UNL1        0.0345
     34 C          59.0270   90.0064    4.7613 C.ar    1  UNL1        0.0202
     35 C          60.0821   89.4923    5.5235 C.ar    1  UNL1        0.1946
     36 O          61.2344   89.7439    4.9279 O.2     1  UNL1       -0.4492
     37 C          60.9810   90.3941    3.8185 C.ar    1  UNL1        0.1452
     38 C          61.8998   90.8579    2.8836 C.ar    1  UNL1        0.0375
     39 C          61.4081   91.5384    1.7563 C.ar    1  UNL1        0.0031
     40 C          60.0130   91.7442    1.5805 C.ar    1  UNL1        0.0002
     41 C          59.1112   91.2553    2.5561 C.ar    1  UNL1        0.0028
     42 C          59.6341   90.5840    3.6625 C.ar    1  UNL1        0.0337
     43 C          59.5053   92.4648    0.3855 C.ar    1  UNL1        0.0000
     44 C          58.1318   92.4582    0.0756 C.ar    1  UNL1        0.0000
     45 C          57.6565   93.1377   -1.0503 C.ar    1  UNL1        0.0000
     46 C          58.5434   93.8305   -1.8772 C.ar    1  UNL1        0.0000
     47 C          59.9080   93.8452   -1.5803 C.ar    1  UNL1        0.0000
     48 C          60.3891   93.1668   -0.4563 C.ar    1  UNL1        0.0000
@<TRIPOS>BOND
     1    33    34    1
     2    34    35   ar
     3    35    29    1
     4    29    30    2
     5    29    31   am
     6    31     1    1
     7     1     2   ar
     8     2     3   ar
     9     3     4   ar
    10     4     7    1
    11     7     8    1
    12     8     9    1
    13     9    10    1
    14    10    13    1
    15    13    14    1
    16    14    15    1
    17    15    16   ar
    18    16    17   ar
    19    17    21    1
    20    21    22    2
    21    21    23    1
    22    17    18   ar
    23    18    19   ar
    24    19    25    1
    25    25    26    2
    26    25    27    1
    27    19    20   ar
    28    10    11    1
    29    11    12    1
    30     4     5   ar
    31     5     6   ar
    32    35    36   ar
    33    36    37   ar
    34    37    38   ar
    35    38    39   ar
    36    39    40   ar
    37    40    43    1
    38    43    44   ar
    39    44    45   ar
    40    45    46   ar
    41    46    47   ar
    42    47    48   ar
    43    40    41   ar
    44    41    42   ar
    45    42    34   ar
    46     6     1   ar
    47    42    37   ar
    48    12     7    1
    49    48    43   ar
    50    20    15   ar
    51    31    32    1
    52    23    24    1
    53    27    28    1
@<TRIPOS>MOLECULE
*****
 48 53 0 0 0
SMALL
GASTEIGER

@<TRIPOS>ATOM
      1 C          61.8601   88.2978    8.8408 C.ar    1  UNL1        0.0702
      2 C          62.6030   89.1051    9.7099 C.ar    1  UNL1        0.0191
      3 C          62.7649   88.7385   11.0467 C.ar    1  UNL1        0.0356
      4 C          62.1598   87.5625   11.5226 C.ar    1  UNL1        0.1318
      5 N          61.4243   86.8040   10.6618 N.ar    1  UNL1       -0.2279
      6 C          61.2573   87.1390    9.3551 C.ar    1  UNL1        0.1149
      7 N          62.3050   87.1460   12.8978 N.pl3   1  UNL1       -0.2932
      8 C          62.5895   85.7398   13.2332 C.3     1  UNL1        0.0923
      9 C          63.2809   85.6250   14.5973 C.3     1  UNL1        0.0252
     10 C          62.4798   86.3102   15.7330 C.3     1  UNL1        0.0472
     11 C          61.6534   87.5255   15.2387 C.3     1  UNL1        0.0252
     12 C          62.2416   88.1497   13.9713 C.3     1  UNL1        0.0923
     13 C          61.5767   85.2925   16.4607 C.3     1  UNL1        0.2054
     14 O          61.1969   84.2237   15.5914 O.3     1  UNL1       -0.4755
     15 C          60.1702   84.2703   14.6337 C.ar    1  UNL1        0.1390
     16 C          60.0619   83.2015   13.7383 C.ar    1  UNL1        0.0433
     17 C          59.0617   83.1831   12.7521 C.ar    1  UNL1        0.0787
     18 C          58.1490   84.2495   12.6870 C.ar    1  UNL1        0.0131
     19 C          58.2384   85.3306   13.5807 C.ar    1  UNL1        0.0787
     20 C          59.2526   85.3341   14.5520 C.ar    1  UNL1        0.0433
     21 C          58.9460   82.0500   11.8014 C.2     1  UNL1        0.3381
     22 O          59.7016   81.9987   10.7946 O.2     1  UNL1       -0.2451
     23 O          58.0272   81.0191   11.9962 O.3     1  UNL1       -0.4771
     24 H          57.4645   80.9413   12.8333 H       1  UNL1        0.2954
     25 C          57.2770   86.4543   13.5024 C.2     1  UNL1        0.3381
     26 O          57.6343   87.6237   13.8101 O.2     1  UNL1       -0.2451
     27 O          55.9665   86.2302   13.0879 O.3     1  UNL1       -0.4771
     28 H          55.3011   86.9920   13.0312 H       1  UNL1        0.2954
     29 C          60.4089   88.9942    6.8773 C.2     1  UNL1        0.2839
     30 O          59.3437   88.6661    7.4656 O.2     1  UNL1       -0.2665
     31 N          61.6838   88.7001    7.4715 N.am    1  UNL1       -0.2766
     32 H          62.5248   88.6963    6.8508 H       1  UNL1        0.1553
     33 C          57.7731   89.8804    5.2836 C.3     1  UNL1        0.0345
     34 C          59.2017   90.0350    4.8563 C.ar    1  UNL1        0.0202
     35 C          60.3500   89.6457    5.5550 C.ar    1  UNL1        0.1946
     36 O          61.4292   89.9495    4.8559 O.2     1  UNL1       -0.4492
     37 C          61.0400   90.5151    3.7395 C.ar    1  UNL1        0.1452
     38 C          61.8441   90.9935    2.7109 C.ar    1  UNL1        0.0375
     39 C          61.2143   91.5703    1.5945 C.ar    1  UNL1        0.0031
     40 C          59.7979   91.6600    1.5226 C.ar    1  UNL1        0.0002
     41 C          59.0158   91.1603    2.5916 C.ar    1  UNL1        0.0028
     42 C          59.6743   90.5939    3.6841 C.ar    1  UNL1        0.0337
     43 C          59.1437   92.2717    0.3381 C.ar    1  UNL1        0.0000
     44 C          59.7988   93.2731   -0.4039 C.ar    1  UNL1        0.0000
     45 C          59.1804   93.8473   -1.5188 C.ar    1  UNL1        0.0000
     46 C          57.9053   93.4296   -1.9059 C.ar    1  UNL1        0.0000
     47 C          57.2452   92.4367   -1.1787 C.ar    1  UNL1        0.0000
     48 C          57.8583   91.8596   -0.0624 C.ar    1  UNL1        0.0000
@<TRIPOS>BOND
     1    33    34    1
     2    34    35   ar
     3    35    29    1
     4    29    30    2
     5    29    31   am
     6    31     1    1
     7     1     2   ar
     8     2     3   ar
     9     3     4   ar
    10     4     7    1
    11     7     8    1
    12     8     9    1
    13     9    10    1
    14    10    13    1
    15    13    14    1
    16    14    15    1
    17    15    16   ar
    18    16    17   ar
    19    17    21    1
    20    21    22    2
    21    21    23    1
    22    17    18   ar
    23    18    19   ar
    24    19    25    1
    25    25    26    2
    26    25    27    1
    27    19    20   ar
    28    10    11    1
    29    11    12    1
    30     4     5   ar
    31     5     6   ar
    32    35    36   ar
    33    36    37   ar
    34    37    38   ar
    35    38    39   ar
    36    39    40   ar
    37    40    43    1
    38    43    44   ar
    39    44    45   ar
    40    45    46   ar
    41    46    47   ar
    42    47    48   ar
    43    40    41   ar
    44    41    42   ar
    45    42    34   ar
    46     6     1   ar
    47    42    37   ar
    48    12     7    1
    49    48    43   ar
    50    20    15   ar
    51    31    32    1
    52    23    24    1
    53    27    28    1
@<TRIPOS>MOLECULE
*****
 48 53 0 0 0
SMALL
GASTEIGER

@<TRIPOS>ATOM
      1 C          58.9328   85.5393    8.0512 C.ar    1  UNL1        0.0702
      2 C          57.8991   84.5959    8.0324 C.ar    1  UNL1        0.0191
      3 C          57.8367   83.5995    9.0076 C.ar    1  UNL1        0.0356
      4 C          58.8305   83.5351    9.9994 C.ar    1  UNL1        0.1318
      5 N          59.8381   84.4527    9.9843 N.ar    1  UNL1       -0.2279
      6 C          59.9162   85.4343    9.0474 C.ar    1  UNL1        0.1149
      7 N          58.8013   82.5219   11.0281 N.pl3   1  UNL1       -0.2932
      8 C          59.3777   82.7822   12.3589 C.3     1  UNL1        0.0923
      9 C          58.7364   81.8855   13.4250 C.3     1  UNL1        0.0252
     10 C          58.8259   80.3794   13.0718 C.3     1  UNL1        0.0472
     11 C          58.8119   80.1172   11.5437 C.3     1  UNL1        0.0252
     12 C          58.1231   81.2426   10.7685 C.3     1  UNL1        0.0923
     13 C          60.0639   79.7330   13.7277 C.3     1  UNL1        0.2054
     14 O          61.1685   79.6947   12.8219 O.3     1  UNL1       -0.4755
     15 C          61.9963   80.7805   12.4908 C.ar    1  UNL1        0.1390
     16 C          62.7560   81.3591   13.5124 C.ar    1  UNL1        0.0433
     17 C          63.6026   82.4500   13.2547 C.ar    1  UNL1        0.0787
     18 C          63.6955   82.9456   11.9431 C.ar    1  UNL1        0.0131
     19 C          62.9435   82.3749   10.9017 C.ar    1  UNL1        0.0787
     20 C          62.0952   81.2918   11.1836 C.ar    1  UNL1        0.0433
     21 C          64.4088   83.0649   14.3377 C.2     1  UNL1        0.3381
     22 O          64.3138   84.3008   14.5634 O.2     1  UNL1       -0.2451
     23 O          65.2677   82.3080   15.1339 O.3     1  UNL1       -0.4771
     24 H          65.3150   81.2989   15.0784 H       1  UNL1        0.2954
     25 C          63.0415   82.9062    9.5230 C.2     1  UNL1        0.3381
     26 O          64.1343   83.3625    9.0900 O.2     1  UNL1       -0.2451
     27 O          61.9258   82.9077    8.6895 O.3     1  UNL1       -0.4771
     28 H          61.9822   83.2692    7.7448 H       1  UNL1        0.2954
     29 C          59.6209   87.8292    7.1974 C.2     1  UNL1        0.2839
     30 O          59.9280   88.2373    8.3496 O.2     1  UNL1       -0.2665
     31 N          58.9959   86.5466    7.0268 N.am    1  UNL1       -0.2766
     32 H          58.4830   86.3659    6.1341 H       1  UNL1        0.1553
     33 C          57.4133   89.2176    5.3341 C.3     1  UNL1        0.0345
     34 C          58.9050   89.2954    5.2067 C.ar    1  UNL1        0.0202
     35 C          59.8656   88.6867    6.0222 C.ar    1  UNL1        0.1946
     36 O          61.0786   88.9895    5.5948 O.2     1  UNL1       -0.4492
     37 C          60.9542   89.7626    4.5438 C.ar    1  UNL1        0.1452
     38 C          61.9742   90.3170    3.7786 C.ar    1  UNL1        0.0375
     39 C          61.6152   91.1251    2.6860 C.ar    1  UNL1        0.0031
     40 C          60.2495   91.3659    2.3756 C.ar    1  UNL1        0.0002
     41 C          59.2416   90.7819    3.1802 C.ar    1  UNL1        0.0028
     42 C          59.6342   89.9849    4.2567 C.ar    1  UNL1        0.0337
     43 C          59.8822   92.2216    1.2189 C.ar    1  UNL1        0.0000
     44 C          58.5648   92.2267    0.7220 C.ar    1  UNL1        0.0000
     45 C          58.2219   93.0334   -0.3674 C.ar    1  UNL1        0.0000
     46 C          59.1863   93.8431   -0.9712 C.ar    1  UNL1        0.0000
     47 C          60.4963   93.8477   -0.4873 C.ar    1  UNL1        0.0000
     48 C          60.8453   93.0422    0.6011 C.ar    1  UNL1        0.0000
@<TRIPOS>BOND
     1    33    34    1
     2    34    35   ar
     3    35    29    1
     4    29    30    2
     5    29    31   am
     6    31     1    1
     7     1     2   ar
     8     2     3   ar
     9     3     4   ar
    10     4     7    1
    11     7     8    1
    12     8     9    1
    13     9    10    1
    14    10    13    1
    15    13    14    1
    16    14    15    1
    17    15    16   ar
    18    16    17   ar
    19    17    21    1
    20    21    22    2
    21    21    23    1
    22    17    18   ar
    23    18    19   ar
    24    19    25    1
    25    25    26    2
    26    25    27    1
    27    19    20   ar
    28    10    11    1
    29    11    12    1
    30     4     5   ar
    31     5     6   ar
    32    35    36   ar
    33    36    37   ar
    34    37    38   ar
    35    38    39   ar
    36    39    40   ar
    37    40    43    1
    38    43    44   ar
    39    44    45   ar
    40    45    46   ar
    41    46    47   ar
    42    47    48   ar
    43    40    41   ar
    44    41    42   ar
    45    42    34   ar
    46     6     1   ar
    47    42    37   ar
    48    12     7    1
    49    48    43   ar
    50    20    15   ar
    51    31    32    1
    52    23    24    1
    53    27    28    1
