@<TRIPOS>MOLECULE
*****
 45 50 0 0 0
SMALL
GASTEIGER

@<TRIPOS>ATOM
      1 C          11.8107   80.5696   25.1611 C.ar    1  UNL1        0.0702
      2 C          13.2095   80.5359   25.0456 C.ar    1  UNL1        0.0191
      3 C          13.9127   81.6939   24.7099 C.ar    1  UNL1        0.0356
      4 C          13.2114   82.8843   24.4680 C.ar    1  UNL1        0.1318
      5 N          11.8535   82.8910   24.5758 N.ar    1  UNL1       -0.2279
      6 C          11.1479   81.7760   24.9018 C.ar    1  UNL1        0.1149
      7 N          13.9095   84.0978   24.1321 N.pl3   1  UNL1       -0.2932
      8 C          13.9063   85.2356   25.0618 C.3     1  UNL1        0.0923
      9 C          13.8883   86.5538   24.2838 C.3     1  UNL1        0.0252
     10 C          15.0342   86.5988   23.2554 C.3     1  UNL1        0.0472
     11 C          14.9407   85.3878   22.3059 C.3     1  UNL1        0.0252
     12 C          14.9433   84.0717   23.0902 C.3     1  UNL1        0.0923
     13 C          14.9949   87.9178   22.4699 C.3     1  UNL1        0.2054
     14 O          13.8674   87.9298   21.5964 O.3     1  UNL1       -0.4755
     15 C          13.9454   87.9932   20.1973 C.ar    1  UNL1        0.1388
     16 C          13.8596   89.2461   19.5869 C.ar    1  UNL1        0.0373
     17 C          13.9336   89.3642   18.1990 C.ar    1  UNL1        0.0091
     18 C          14.0914   88.2299   17.3955 C.ar    1  UNL1        0.0365
     19 I          14.2831   88.5567   15.3053 I       1  UNL1       -0.0423
     20 C          14.1747   86.9517   17.9947 C.ar    1  UNL1        0.0838
     21 C          14.1037   86.8470   19.3960 C.ar    1  UNL1        0.0438
     22 C          14.3196   85.7163   17.1919 C.2     1  UNL1        0.3385
     23 O          15.0967   85.6898   16.2018 O.2     1  UNL1       -0.2451
     24 O          13.5779   84.5760   17.4942 O.3     1  UNL1       -0.4771
     25 H          12.9753   84.5314   18.3070 H       1  UNL1        0.2954
     26 C           9.9553   78.9027   24.6869 C.2     1  UNL1        0.2839
     27 O           9.7718   79.3414   23.5196 O.2     1  UNL1       -0.2665
     28 N          11.0481   79.3930   25.4806 N.am    1  UNL1       -0.2766
     29 H          11.3623   78.8150   26.2927 H       1  UNL1        0.1553
     30 C           8.3599   78.9698   27.4660 C.3     1  UNL1        0.0345
     31 C           8.3736   77.8773   26.4396 C.ar    1  UNL1        0.0202
     32 C           9.0714   77.8522   25.2269 C.ar    1  UNL1        0.1946
     33 O           8.8345   76.7177   24.5925 O.2     1  UNL1       -0.4492
     34 C           8.0182   76.0061   25.3308 C.ar    1  UNL1        0.1452
     35 C           7.5053   74.7454   25.0465 C.ar    1  UNL1        0.0375
     36 C           6.6374   74.1591   25.9839 C.ar    1  UNL1        0.0031
     37 C           6.2967   74.8375   27.1853 C.ar    1  UNL1        0.0002
     38 C           6.8416   76.1198   27.4364 C.ar    1  UNL1        0.0028
     39 C           7.6999   76.6716   26.4840 C.ar    1  UNL1        0.0337
     40 C           5.3787   74.2082   28.1683 C.ar    1  UNL1        0.0000
     41 C           4.8906   74.9440   29.2649 C.ar    1  UNL1        0.0000
     42 C           4.0270   74.3485   30.1894 C.ar    1  UNL1        0.0000
     43 C           3.6408   73.0158   30.0305 C.ar    1  UNL1        0.0000
     44 C           4.1177   72.2753   28.9467 C.ar    1  UNL1        0.0000
     45 C           4.9822   72.8653   28.0196 C.ar    1  UNL1        0.0000
@<TRIPOS>BOND
     1    30    31    1
     2    31    32   ar
     3    32    26    1
     4    26    27    2
     5    26    28   am
     6    28     1    1
     7     1     2   ar
     8     2     3   ar
     9     3     4   ar
    10     4     7    1
    11     7     8    1
    12     8     9    1
    13     9    10    1
    14    10    13    1
    15    13    14    1
    16    14    15    1
    17    15    16   ar
    18    16    17   ar
    19    17    18   ar
    20    18    19    1
    21    18    20   ar
    22    20    22    1
    23    22    23    2
    24    22    24    1
    25    20    21   ar
    26    10    11    1
    27    11    12    1
    28     4     5   ar
    29     5     6   ar
    30    32    33   ar
    31    33    34   ar
    32    34    35   ar
    33    35    36   ar
    34    36    37   ar
    35    37    40    1
    36    40    41   ar
    37    41    42   ar
    38    42    43   ar
    39    43    44   ar
    40    44    45   ar
    41    37    38   ar
    42    38    39   ar
    43    39    31   ar
    44     6     1   ar
    45    39    34   ar
    46    12     7    1
    47    45    40   ar
    48    21    15   ar
    49    28    29    1
    50    24    25    1
@<TRIPOS>MOLECULE
*****
 45 50 0 0 0
SMALL
GASTEIGER

@<TRIPOS>ATOM
      1 C          11.7586   80.4819   25.0954 C.ar    1  UNL1        0.0702
      2 C          13.1623   80.4773   25.0707 C.ar    1  UNL1        0.0191
      3 C          13.8604   81.6315   24.7121 C.ar    1  UNL1        0.0356
      4 C          13.1503   82.7877   24.3561 C.ar    1  UNL1        0.1318
      5 N          11.7885   82.7659   24.3773 N.ar    1  UNL1       -0.2279
      6 C          11.0878   81.6539   24.7236 C.ar    1  UNL1        0.1149
      7 N          13.8421   83.9972   23.9937 N.pl3   1  UNL1       -0.2932
      8 C          13.5522   85.2549   24.6957 C.3     1  UNL1        0.0923
      9 C          13.6516   86.4360   23.7270 C.3     1  UNL1        0.0252
     10 C          15.0082   86.4336   22.9974 C.3     1  UNL1        0.0472
     11 C          15.2132   85.0919   22.2663 C.3     1  UNL1        0.0252
     12 C          15.0973   83.9125   23.2371 C.3     1  UNL1        0.0923
     13 C          15.0888   87.6124   22.0164 C.3     1  UNL1        0.2054
     14 O          14.0490   87.5086   21.0456 O.3     1  UNL1       -0.4755
     15 C          14.2164   86.9910   19.7527 C.ar    1  UNL1        0.1388
     16 C          13.8778   87.8018   18.6674 C.ar    1  UNL1        0.0373
     17 C          14.0274   87.3356   17.3613 C.ar    1  UNL1        0.0091
     18 C          14.5154   86.0475   17.1168 C.ar    1  UNL1        0.0365
     19 I          14.7822   85.4951   15.0830 I       1  UNL1       -0.0423
     20 C          14.8585   85.2093   18.2028 C.ar    1  UNL1        0.0838
     21 C          14.7076   85.6936   19.5151 C.ar    1  UNL1        0.0438
     22 C          15.3583   83.8302   18.0028 C.2     1  UNL1        0.3385
     23 O          16.5890   83.5813   18.0944 O.2     1  UNL1       -0.2451
     24 O          14.4858   82.7935   17.6778 O.3     1  UNL1       -0.4771
     25 H          13.4833   82.9324   17.6385 H       1  UNL1        0.2954
     26 C           9.9302   78.7812   24.6364 C.2     1  UNL1        0.2839
     27 O           9.7638   79.1836   23.4535 O.2     1  UNL1       -0.2665
     28 N          11.0027   79.3066   25.4353 N.am    1  UNL1       -0.2766
     29 H          11.3079   78.7561   26.2696 H       1  UNL1        0.1553
     30 C           8.3436   78.8795   27.4196 C.3     1  UNL1        0.0345
     31 C           8.3537   77.7757   26.4052 C.ar    1  UNL1        0.0202
     32 C           9.0476   77.7370   25.1907 C.ar    1  UNL1        0.1946
     33 O           8.8084   76.5957   24.5696 O.2     1  UNL1       -0.4492
     34 C           7.9942   75.8926   25.3182 C.ar    1  UNL1        0.1452
     35 C           7.4799   74.6290   25.0495 C.ar    1  UNL1        0.0375
     36 C           6.6147   74.0534   25.9960 C.ar    1  UNL1        0.0031
     37 C           6.2781   74.7451   27.1909 C.ar    1  UNL1        0.0002
     38 C           6.8242   76.0300   27.4261 C.ar    1  UNL1        0.0028
     39 C           7.6796   76.5709   26.4650 C.ar    1  UNL1        0.0337
     40 C           5.3629   74.1270   28.1836 C.ar    1  UNL1        0.0000
     41 C           4.9172   74.8602   29.2999 C.ar    1  UNL1        0.0000
     42 C           4.0562   74.2752   30.2336 C.ar    1  UNL1        0.0000
     43 C           3.6304   72.9559   30.0643 C.ar    1  UNL1        0.0000
     44 C           4.0651   72.2182   28.9610 C.ar    1  UNL1        0.0000
     45 C           4.9269   72.7977   28.0246 C.ar    1  UNL1        0.0000
@<TRIPOS>BOND
     1    30    31    1
     2    31    32   ar
     3    32    26    1
     4    26    27    2
     5    26    28   am
     6    28     1    1
     7     1     2   ar
     8     2     3   ar
     9     3     4   ar
    10     4     7    1
    11     7     8    1
    12     8     9    1
    13     9    10    1
    14    10    13    1
    15    13    14    1
    16    14    15    1
    17    15    16   ar
    18    16    17   ar
    19    17    18   ar
    20    18    19    1
    21    18    20   ar
    22    20    22    1
    23    22    23    2
    24    22    24    1
    25    20    21   ar
    26    10    11    1
    27    11    12    1
    28     4     5   ar
    29     5     6   ar
    30    32    33   ar
    31    33    34   ar
    32    34    35   ar
    33    35    36   ar
    34    36    37   ar
    35    37    40    1
    36    40    41   ar
    37    41    42   ar
    38    42    43   ar
    39    43    44   ar
    40    44    45   ar
    41    37    38   ar
    42    38    39   ar
    43    39    31   ar
    44     6     1   ar
    45    39    34   ar
    46    12     7    1
    47    45    40   ar
    48    21    15   ar
    49    28    29    1
    50    24    25    1
@<TRIPOS>MOLECULE
*****
 45 50 0 0 0
SMALL
GASTEIGER

@<TRIPOS>ATOM
      1 C          10.5907   81.0034   24.7074 C.ar    1  UNL1        0.0702
      2 C           9.9737   80.0848   23.8433 C.ar    1  UNL1        0.0191
      3 C           9.1713   79.0666   24.3607 C.ar    1  UNL1        0.0356
      4 C           9.0037   78.9547   25.7488 C.ar    1  UNL1        0.1318
      5 N           9.6204   79.8509   26.5685 N.ar    1  UNL1       -0.2279
      6 C          10.4057   80.8506   26.0874 C.ar    1  UNL1        0.1149
      7 N           8.1723   77.9228   26.3117 N.pl3   1  UNL1       -0.2932
      8 C           8.3308   76.5270   25.8811 C.3     1  UNL1        0.0923
      9 C           6.9725   75.8213   25.8651 C.3     1  UNL1        0.0252
     10 C           6.2603   75.9726   27.2225 C.3     1  UNL1        0.0472
     11 C           6.1109   77.4653   27.5780 C.3     1  UNL1        0.0252
     12 C           7.4711   78.1703   27.5774 C.3     1  UNL1        0.0923
     13 C           4.8922   75.2759   27.1881 C.3     1  UNL1        0.2054
     14 O           3.8549   76.2476   27.0690 O.3     1  UNL1       -0.4755
     15 C           3.3604   76.7382   25.8514 C.ar    1  UNL1        0.1388
     16 C           2.6170   77.9201   25.8684 C.ar    1  UNL1        0.0373
     17 C           2.1045   78.4513   24.6848 C.ar    1  UNL1        0.0091
     18 C           2.3232   77.8076   23.4622 C.ar    1  UNL1        0.0365
     19 I           1.5681   78.7697   21.7253 I       1  UNL1       -0.0423
     20 C           3.0689   76.6066   23.4252 C.ar    1  UNL1        0.0838
     21 C           3.5846   76.0842   24.6255 C.ar    1  UNL1        0.0438
     22 C           3.3120   75.8721   22.1630 C.2     1  UNL1        0.3385
     23 O           4.4769   75.7838   21.6940 O.2     1  UNL1       -0.2451
     24 O           2.2580   75.2966   21.4562 O.3     1  UNL1       -0.4771
     25 H           1.3107   75.2995   21.8146 H       1  UNL1        0.2954
     26 C          12.7993   82.2542   24.6481 C.2     1  UNL1        0.2839
     27 O          13.3982   81.3578   25.3014 O.2     1  UNL1       -0.2665
     28 N          11.4443   82.0510   24.2155 N.am    1  UNL1       -0.2766
     29 H          11.0837   82.6472   23.4364 H       1  UNL1        0.1553
     30 C          15.6364   82.5066   23.1784 C.3     1  UNL1        0.0345
     31 C          14.7424   83.6144   23.6484 C.ar    1  UNL1        0.0202
     32 C          13.5038   83.4998   24.2894 C.ar    1  UNL1        0.1946
     33 O          13.0172   84.7001   24.5506 O.2     1  UNL1       -0.4492
     34 C          13.8759   85.5873   24.1110 C.ar    1  UNL1        0.1452
     35 C          13.7663   86.9719   24.1755 C.ar    1  UNL1        0.0375
     36 C          14.8110   87.7426   23.6368 C.ar    1  UNL1        0.0031
     37 C          15.9441   87.1217   23.0448 C.ar    1  UNL1        0.0002
     38 C          16.0165   85.7085   23.0001 C.ar    1  UNL1        0.0028
     39 C          14.9614   84.9748   23.5445 C.ar    1  UNL1        0.0337
     40 C          17.0417   87.9463   22.4789 C.ar    1  UNL1        0.0000
     41 C          16.9458   88.4678   21.1745 C.ar    1  UNL1        0.0000
     42 C          17.9813   89.2431   20.6438 C.ar    1  UNL1        0.0000
     43 C          19.1211   89.5072   21.4065 C.ar    1  UNL1        0.0000
     44 C          19.2281   88.9960   22.7018 C.ar    1  UNL1        0.0000
     45 C          18.1961   88.2193   23.2373 C.ar    1  UNL1        0.0000
@<TRIPOS>BOND
     1    30    31    1
     2    31    32   ar
     3    32    26    1
     4    26    27    2
     5    26    28   am
     6    28     1    1
     7     1     2   ar
     8     2     3   ar
     9     3     4   ar
    10     4     7    1
    11     7     8    1
    12     8     9    1
    13     9    10    1
    14    10    13    1
    15    13    14    1
    16    14    15    1
    17    15    16   ar
    18    16    17   ar
    19    17    18   ar
    20    18    19    1
    21    18    20   ar
    22    20    22    1
    23    22    23    2
    24    22    24    1
    25    20    21   ar
    26    10    11    1
    27    11    12    1
    28     4     5   ar
    29     5     6   ar
    30    32    33   ar
    31    33    34   ar
    32    34    35   ar
    33    35    36   ar
    34    36    37   ar
    35    37    40    1
    36    40    41   ar
    37    41    42   ar
    38    42    43   ar
    39    43    44   ar
    40    44    45   ar
    41    37    38   ar
    42    38    39   ar
    43    39    31   ar
    44     6     1   ar
    45    39    34   ar
    46    12     7    1
    47    45    40   ar
    48    21    15   ar
    49    28    29    1
    50    24    25    1
@<TRIPOS>MOLECULE
*****
 45 50 0 0 0
SMALL
GASTEIGER

@<TRIPOS>ATOM
      1 C          11.6107   81.1373   25.4285 C.ar    1  UNL1        0.0702
      2 C          12.5912   81.7712   26.2081 C.ar    1  UNL1        0.0191
      3 C          13.3521   82.8094   25.6683 C.ar    1  UNL1        0.0356
      4 C          13.1455   83.1996   24.3369 C.ar    1  UNL1        0.1318
      5 N          12.1958   82.5634   23.5962 N.ar    1  UNL1       -0.2279
      6 C          11.4428   81.5505   24.1007 C.ar    1  UNL1        0.1149
      7 N          13.9059   84.2753   23.7559 N.pl3   1  UNL1       -0.2932
      8 C          13.7965   85.6366   24.2978 C.3     1  UNL1        0.0923
      9 C          13.9104   86.6652   23.1699 C.3     1  UNL1        0.0252
     10 C          15.1873   86.4304   22.3410 C.3     1  UNL1        0.0472
     11 C          15.2023   84.9910   21.7889 C.3     1  UNL1        0.0252
     12 C          15.0724   83.9660   22.9200 C.3     1  UNL1        0.0923
     13 C          15.2812   87.4570   21.2028 C.3     1  UNL1        0.2054
     14 O          14.1802   87.2953   20.3105 O.3     1  UNL1       -0.4755
     15 C          14.2983   86.9579   18.9541 C.ar    1  UNL1        0.1388
     16 C          14.5046   85.6172   18.6223 C.ar    1  UNL1        0.0373
     17 C          14.6266   85.2287   17.2882 C.ar    1  UNL1        0.0091
     18 C          14.5481   86.1751   16.2611 C.ar    1  UNL1        0.0365
     19 I          14.6571   85.4395   14.2713 I       1  UNL1       -0.0423
     20 C          14.3452   87.5384   16.5773 C.ar    1  UNL1        0.0838
     21 C          14.2187   87.9164   17.9266 C.ar    1  UNL1        0.0438
     22 C          14.2765   88.5849   15.5323 C.2     1  UNL1        0.3385
     23 O          15.3178   89.1965   15.1766 O.2     1  UNL1       -0.2451
     24 O          13.0599   88.9349   14.9497 O.3     1  UNL1       -0.4771
     25 H          12.2027   88.4413   15.1672 H       1  UNL1        0.2954
     26 C          10.8492   78.7154   25.4027 C.2     1  UNL1        0.2839
     27 O          11.7647   78.3688   24.6086 O.2     1  UNL1       -0.2665
     28 N          10.8233   80.0479   25.9397 N.am    1  UNL1       -0.2766
     29 H          10.2628   80.2168   26.8055 H       1  UNL1        0.1553
     30 C           9.2659   78.6496   28.1886 C.3     1  UNL1        0.0345
     31 C           9.1304   77.7064   27.0313 C.ar    1  UNL1        0.0202
     32 C           9.8235   77.7390   25.8161 C.ar    1  UNL1        0.1946
     33 O           9.4321   76.7397   25.0456 O.2     1  UNL1       -0.4492
     34 C           8.5201   76.0611   25.6980 C.ar    1  UNL1        0.1452
     35 C           7.8359   74.9318   25.2623 C.ar    1  UNL1        0.0375
     36 C           6.8895   74.3581   26.1288 C.ar    1  UNL1        0.0031
     37 C           6.6421   74.9182   27.4113 C.ar    1  UNL1        0.0002
     38 C           7.3611   76.0686   27.8164 C.ar    1  UNL1        0.0028
     39 C           8.2932   76.6117   26.9307 C.ar    1  UNL1        0.0337
     40 C           5.6398   74.3035   28.3182 C.ar    1  UNL1        0.0000
     41 C           5.1084   73.0297   28.0395 C.ar    1  UNL1        0.0000
     42 C           4.1640   72.4537   28.8948 C.ar    1  UNL1        0.0000
     43 C           3.7406   73.1396   30.0353 C.ar    1  UNL1        0.0000
     44 C           4.2604   74.4035   30.3230 C.ar    1  UNL1        0.0000
     45 C           5.2044   74.9848   29.4708 C.ar    1  UNL1        0.0000
@<TRIPOS>BOND
     1    30    31    1
     2    31    32   ar
     3    32    26    1
     4    26    27    2
     5    26    28   am
     6    28     1    1
     7     1     2   ar
     8     2     3   ar
     9     3     4   ar
    10     4     7    1
    11     7     8    1
    12     8     9    1
    13     9    10    1
    14    10    13    1
    15    13    14    1
    16    14    15    1
    17    15    16   ar
    18    16    17   ar
    19    17    18   ar
    20    18    19    1
    21    18    20   ar
    22    20    22    1
    23    22    23    2
    24    22    24    1
    25    20    21   ar
    26    10    11    1
    27    11    12    1
    28     4     5   ar
    29     5     6   ar
    30    32    33   ar
    31    33    34   ar
    32    34    35   ar
    33    35    36   ar
    34    36    37   ar
    35    37    40    1
    36    40    41   ar
    37    41    42   ar
    38    42    43   ar
    39    43    44   ar
    40    44    45   ar
    41    37    38   ar
    42    38    39   ar
    43    39    31   ar
    44     6     1   ar
    45    39    34   ar
    46    12     7    1
    47    45    40   ar
    48    21    15   ar
    49    28    29    1
    50    24    25    1
@<TRIPOS>MOLECULE
*****
 45 50 0 0 0
SMALL
GASTEIGER

@<TRIPOS>ATOM
      1 C          11.1569   81.1137   24.5671 C.ar    1  UNL1        0.0702
      2 C          10.4460   80.3690   23.6125 C.ar    1  UNL1        0.0191
      3 C           9.5344   79.3943   24.0216 C.ar    1  UNL1        0.0356
      4 C           9.3500   79.1496   25.3904 C.ar    1  UNL1        0.1318
      5 N          10.0582   79.8772   26.2984 N.ar    1  UNL1       -0.2279
      6 C          10.9507   80.8314   25.9234 C.ar    1  UNL1        0.1149
      7 N           8.4079   78.1596   25.8434 N.pl3   1  UNL1       -0.2932
      8 C           8.5295   76.7641   25.4002 C.3     1  UNL1        0.0923
      9 C           7.1418   76.1403   25.2314 C.3     1  UNL1        0.0252
     10 C           6.3046   76.3113   26.5130 C.3     1  UNL1        0.0472
     11 C           6.2052   77.8043   26.8846 C.3     1  UNL1        0.0252
     12 C           7.5964   78.4276   27.0370 C.3     1  UNL1        0.0923
     13 C           4.9095   75.6974   26.3252 C.3     1  UNL1        0.2054
     14 O           4.0511   76.6317   25.6737 O.3     1  UNL1       -0.4755
     15 C           3.7069   76.5824   24.3148 C.ar    1  UNL1        0.1388
     16 C           4.4529   75.7540   23.4739 C.ar    1  UNL1        0.0373
     17 C           4.1504   75.6673   22.1150 C.ar    1  UNL1        0.0091
     18 C           3.0977   76.4111   21.5712 C.ar    1  UNL1        0.0365
     19 I           2.6837   76.1175   19.5085 I       1  UNL1       -0.0423
     20 C           2.3342   77.2601   22.4055 C.ar    1  UNL1        0.0838
     21 C           2.6465   77.3344   23.7754 C.ar    1  UNL1        0.0438
     22 C           1.2239   78.0862   21.8796 C.2     1  UNL1        0.3385
     23 O           1.3979   79.3116   21.6497 O.2     1  UNL1       -0.2451
     24 O          -0.0371   77.5344   21.6621 O.3     1  UNL1       -0.4771
     25 H          -0.2154   76.5453   21.7869 H       1  UNL1        0.2954
     26 C          12.9200   82.8548   25.1201 C.2     1  UNL1        0.2839
     27 O          12.9964   82.4887   26.3238 O.2     1  UNL1       -0.2665
     28 N          12.1225   82.1089   24.1862 N.am    1  UNL1       -0.2766
     29 H          12.3140   82.2362   23.1666 H       1  UNL1        0.1553
     30 C          15.3463   82.8683   23.0258 C.3     1  UNL1        0.0345
     31 C          14.7443   84.0387   23.7434 C.ar    1  UNL1        0.0202
     32 C          13.6843   84.0286   24.6569 C.ar    1  UNL1        0.1946
     33 O          13.4390   85.2565   25.0783 O.2     1  UNL1       -0.4492
     34 C          14.2845   86.0628   24.4843 C.ar    1  UNL1        0.1452
     35 C          14.3816   87.4419   24.6326 C.ar    1  UNL1        0.0375
     36 C          15.3676   88.1175   23.8929 C.ar    1  UNL1        0.0031
     37 C          16.2375   87.4089   23.0206 C.ar    1  UNL1        0.0002
     38 C          16.1053   86.0046   22.8992 C.ar    1  UNL1        0.0028
     39 C          15.1157   85.3664   23.6486 C.ar    1  UNL1        0.0337
     40 C          17.2753   88.1334   22.2442 C.ar    1  UNL1        0.0000
     41 C          16.9819   88.6550   20.9697 C.ar    1  UNL1        0.0000
     42 C          17.9614   89.3360   20.2404 C.ar    1  UNL1        0.0000
     43 C          19.2414   89.5048   20.7730 C.ar    1  UNL1        0.0000
     44 C          19.5449   88.9924   22.0363 C.ar    1  UNL1        0.0000
     45 C          18.5696   88.3098   22.7697 C.ar    1  UNL1        0.0000
@<TRIPOS>BOND
     1    30    31    1
     2    31    32   ar
     3    32    26    1
     4    26    27    2
     5    26    28   am
     6    28     1    1
     7     1     2   ar
     8     2     3   ar
     9     3     4   ar
    10     4     7    1
    11     7     8    1
    12     8     9    1
    13     9    10    1
    14    10    13    1
    15    13    14    1
    16    14    15    1
    17    15    16   ar
    18    16    17   ar
    19    17    18   ar
    20    18    19    1
    21    18    20   ar
    22    20    22    1
    23    22    23    2
    24    22    24    1
    25    20    21   ar
    26    10    11    1
    27    11    12    1
    28     4     5   ar
    29     5     6   ar
    30    32    33   ar
    31    33    34   ar
    32    34    35   ar
    33    35    36   ar
    34    36    37   ar
    35    37    40    1
    36    40    41   ar
    37    41    42   ar
    38    42    43   ar
    39    43    44   ar
    40    44    45   ar
    41    37    38   ar
    42    38    39   ar
    43    39    31   ar
    44     6     1   ar
    45    39    34   ar
    46    12     7    1
    47    45    40   ar
    48    21    15   ar
    49    28    29    1
    50    24    25    1
@<TRIPOS>MOLECULE
*****
 45 50 0 0 0
SMALL
GASTEIGER

@<TRIPOS>ATOM
      1 C          11.1764   81.0007   24.5097 C.ar    1  UNL1        0.0702
      2 C          10.7529   80.0469   23.5707 C.ar    1  UNL1        0.0191
      3 C           9.8217   79.0724   23.9333 C.ar    1  UNL1        0.0356
      4 C           9.3293   79.0397   25.2464 C.ar    1  UNL1        0.1318
      5 N           9.7623   79.9688   26.1434 N.ar    1  UNL1       -0.2279
      6 C          10.6678   80.9270   25.8127 C.ar    1  UNL1        0.1149
      7 N           8.3589   78.0545   25.6471 N.pl3   1  UNL1       -0.2932
      8 C           8.4279   76.6872   25.1136 C.3     1  UNL1        0.0923
      9 C           7.0180   76.1224   24.9231 C.3     1  UNL1        0.0252
     10 C           6.2009   76.2381   26.2237 C.3     1  UNL1        0.0472
     11 C           6.1566   77.7065   26.6916 C.3     1  UNL1        0.0252
     12 C           7.5698   78.2717   26.8657 C.3     1  UNL1        0.0923
     13 C           4.7838   75.6846   26.0149 C.3     1  UNL1        0.2054
     14 O           4.0130   76.6015   25.2406 O.3     1  UNL1       -0.4755
     15 C           3.6758   76.4165   23.8916 C.ar    1  UNL1        0.1388
     16 C           2.6879   77.2345   23.3394 C.ar    1  UNL1        0.0373
     17 C           2.3171   77.0926   22.0022 C.ar    1  UNL1        0.0091
     18 C           2.9255   76.1269   21.1934 C.ar    1  UNL1        0.0365
     19 I           2.3356   76.0773   19.1533 I       1  UNL1       -0.0423
     20 C           3.9241   75.2853   21.7359 C.ar    1  UNL1        0.0838
     21 C           4.2924   75.4421   23.0847 C.ar    1  UNL1        0.0438
     22 C           4.5850   74.2322   20.9321 C.2     1  UNL1        0.3385
     23 O           5.7393   74.4198   20.4659 O.2     1  UNL1       -0.2451
     24 O           3.9330   73.0336   20.6491 O.3     1  UNL1       -0.4771
     25 H           3.0241   72.8157   21.0392 H       1  UNL1        0.2954
     26 C          12.8818   82.7661   25.1588 C.2     1  UNL1        0.2839
     27 O          12.8878   82.4082   26.3673 O.2     1  UNL1       -0.2665
     28 N          12.1523   82.0051   24.1825 N.am    1  UNL1       -0.2766
     29 H          12.4050   82.1284   23.1758 H       1  UNL1        0.1553
     30 C          15.2132   82.8480   22.9608 C.3     1  UNL1        0.0345
     31 C          14.6785   83.9860   23.7772 C.ar    1  UNL1        0.0202
     32 C          13.6597   83.9460   24.7357 C.ar    1  UNL1        0.1946
     33 O          13.4699   85.1507   25.2440 O.2     1  UNL1       -0.4492
     34 C          14.3122   85.9702   24.6638 C.ar    1  UNL1        0.1452
     35 C          14.4568   87.3338   24.8937 C.ar    1  UNL1        0.0375
     36 C          15.4291   88.0285   24.1536 C.ar    1  UNL1        0.0031
     37 C          16.2385   87.3539   23.1998 C.ar    1  UNL1        0.0002
     38 C          16.0592   85.9644   22.9967 C.ar    1  UNL1        0.0028
     39 C          15.0848   85.3065   23.7490 C.ar    1  UNL1        0.0337
     40 C          17.2624   88.0984   22.4238 C.ar    1  UNL1        0.0000
     41 C          17.0204   88.4644   21.0859 C.ar    1  UNL1        0.0000
     42 C          17.9868   89.1645   20.3572 C.ar    1  UNL1        0.0000
     43 C          19.2023   89.5075   20.9535 C.ar    1  UNL1        0.0000
     44 C          19.4543   89.1506   22.2800 C.ar    1  UNL1        0.0000
     45 C          18.4919   88.4496   23.0132 C.ar    1  UNL1        0.0000
@<TRIPOS>BOND
     1    30    31    1
     2    31    32   ar
     3    32    26    1
     4    26    27    2
     5    26    28   am
     6    28     1    1
     7     1     2   ar
     8     2     3   ar
     9     3     4   ar
    10     4     7    1
    11     7     8    1
    12     8     9    1
    13     9    10    1
    14    10    13    1
    15    13    14    1
    16    14    15    1
    17    15    16   ar
    18    16    17   ar
    19    17    18   ar
    20    18    19    1
    21    18    20   ar
    22    20    22    1
    23    22    23    2
    24    22    24    1
    25    20    21   ar
    26    10    11    1
    27    11    12    1
    28     4     5   ar
    29     5     6   ar
    30    32    33   ar
    31    33    34   ar
    32    34    35   ar
    33    35    36   ar
    34    36    37   ar
    35    37    40    1
    36    40    41   ar
    37    41    42   ar
    38    42    43   ar
    39    43    44   ar
    40    44    45   ar
    41    37    38   ar
    42    38    39   ar
    43    39    31   ar
    44     6     1   ar
    45    39    34   ar
    46    12     7    1
    47    45    40   ar
    48    21    15   ar
    49    28    29    1
    50    24    25    1
@<TRIPOS>MOLECULE
*****
 45 50 0 0 0
SMALL
GASTEIGER

@<TRIPOS>ATOM
      1 C          12.1830   81.7062   25.3174 C.ar    1  UNL1        0.0702
      2 C          12.9578   82.1839   26.3863 C.ar    1  UNL1        0.0191
      3 C          13.7195   83.3439   26.2359 C.ar    1  UNL1        0.0356
      4 C          13.7222   84.0156   25.0046 C.ar    1  UNL1        0.1318
      5 N          12.9709   83.5281   23.9782 N.ar    1  UNL1       -0.2279
      6 C          12.2213   82.4010   24.1018 C.ar    1  UNL1        0.1149
      7 N          14.4878   85.2213   24.8225 N.pl3   1  UNL1       -0.2932
      8 C          14.6584   86.1653   25.9354 C.3     1  UNL1        0.0923
      9 C          14.6839   87.6028   25.4099 C.3     1  UNL1        0.0252
     10 C          15.7379   87.7611   24.2978 C.3     1  UNL1        0.0472
     11 C          15.4635   86.7552   23.1620 C.3     1  UNL1        0.0252
     12 C          15.4234   85.3197   23.6956 C.3     1  UNL1        0.0923
     13 C          15.7417   89.2021   23.7671 C.3     1  UNL1        0.2054
     14 O          14.4839   89.5016   23.1650 O.3     1  UNL1       -0.4755
     15 C          14.1887   89.3186   21.8060 C.ar    1  UNL1        0.1388
     16 C          15.2132   89.5073   20.8761 C.ar    1  UNL1        0.0373
     17 C          14.9726   89.3359   19.5129 C.ar    1  UNL1        0.0091
     18 C          13.7010   88.9758   19.0542 C.ar    1  UNL1        0.0365
     19 I          13.4921   88.6566   16.9645 I       1  UNL1       -0.0423
     20 C          12.6491   88.7857   19.9800 C.ar    1  UNL1        0.0838
     21 C          12.9064   88.9568   21.3526 C.ar    1  UNL1        0.0438
     22 C          11.2792   88.4260   19.5488 C.2     1  UNL1        0.3385
     23 O          10.8665   87.2426   19.6668 O.2     1  UNL1       -0.2451
     24 O          10.4370   89.3771   18.9761 O.3     1  UNL1       -0.4771
     25 H          10.7045   90.3512   18.9022 H       1  UNL1        0.2954
     26 C          10.1783   80.2708   24.7121 C.2     1  UNL1        0.2839
     27 O           9.8520   81.0183   23.7511 O.2     1  UNL1       -0.2665
     28 N          11.4045   80.5019   25.4245 N.am    1  UNL1       -0.2766
     29 H          11.7988   79.7161   25.9897 H       1  UNL1        0.1553
     30 C           9.0377   79.5843   27.6277 C.3     1  UNL1        0.0345
     31 C           8.8209   78.8254   26.3532 C.ar    1  UNL1        0.0202
     32 C           9.3204   79.1289   25.0818 C.ar    1  UNL1        0.1946
     33 O           8.9142   78.2243   24.2087 O.2     1  UNL1       -0.4492
     34 C           8.1759   77.3503   24.8481 C.ar    1  UNL1        0.1452
     35 C           7.5430   76.2316   24.3178 C.ar    1  UNL1        0.0375
     36 C           6.7928   75.4227   25.1888 C.ar    1  UNL1        0.0031
     37 C           6.6868   75.7417   26.5696 C.ar    1  UNL1        0.0002
     38 C           7.3475   76.8899   27.0691 C.ar    1  UNL1        0.0028
     39 C           8.0836   77.6701   26.1760 C.ar    1  UNL1        0.0337
     40 C           5.8914   74.8797   27.4802 C.ar    1  UNL1        0.0000
     41 C           5.9519   73.4772   27.3727 C.ar    1  UNL1        0.0000
     42 C           5.2010   72.6680   28.2309 C.ar    1  UNL1        0.0000
     43 C           4.3839   73.2471   29.2043 C.ar    1  UNL1        0.0000
     44 C           4.3155   74.6371   29.3214 C.ar    1  UNL1        0.0000
     45 C           5.0635   75.4513   28.4653 C.ar    1  UNL1        0.0000
@<TRIPOS>BOND
     1    30    31    1
     2    31    32   ar
     3    32    26    1
     4    26    27    2
     5    26    28   am
     6    28     1    1
     7     1     2   ar
     8     2     3   ar
     9     3     4   ar
    10     4     7    1
    11     7     8    1
    12     8     9    1
    13     9    10    1
    14    10    13    1
    15    13    14    1
    16    14    15    1
    17    15    16   ar
    18    16    17   ar
    19    17    18   ar
    20    18    19    1
    21    18    20   ar
    22    20    22    1
    23    22    23    2
    24    22    24    1
    25    20    21   ar
    26    10    11    1
    27    11    12    1
    28     4     5   ar
    29     5     6   ar
    30    32    33   ar
    31    33    34   ar
    32    34    35   ar
    33    35    36   ar
    34    36    37   ar
    35    37    40    1
    36    40    41   ar
    37    41    42   ar
    38    42    43   ar
    39    43    44   ar
    40    44    45   ar
    41    37    38   ar
    42    38    39   ar
    43    39    31   ar
    44     6     1   ar
    45    39    34   ar
    46    12     7    1
    47    45    40   ar
    48    21    15   ar
    49    28    29    1
    50    24    25    1
@<TRIPOS>MOLECULE
*****
 45 50 0 0 0
SMALL
GASTEIGER

@<TRIPOS>ATOM
      1 C          10.6620   81.2966   25.5206 C.ar    1  UNL1        0.0702
      2 C          10.0195   80.3359   24.7236 C.ar    1  UNL1        0.0191
      3 C           9.3296   79.2791   25.3197 C.ar    1  UNL1        0.0356
      4 C           9.3011   79.1719   26.7181 C.ar    1  UNL1        0.1318
      5 N           9.9402   80.1099   27.4711 N.ar    1  UNL1       -0.2279
      6 C          10.6177   81.1476   26.9127 C.ar    1  UNL1        0.1149
      7 N           8.5874   78.1003   27.3624 N.pl3   1  UNL1       -0.2932
      8 C           9.2944   76.8772   27.7661 C.3     1  UNL1        0.0923
      9 C           8.3819   75.6596   27.5990 C.3     1  UNL1        0.0252
     10 C           7.0448   75.8720   28.3337 C.3     1  UNL1        0.0472
     11 C           6.3609   77.1572   27.8264 C.3     1  UNL1        0.0252
     12 C           7.2839   78.3701   27.9814 C.3     1  UNL1        0.0923
     13 C           6.1319   74.6517   28.1441 C.3     1  UNL1        0.2054
     14 O           5.2421   74.8755   27.0521 O.3     1  UNL1       -0.4755
     15 C           5.5817   74.7068   25.7016 C.ar    1  UNL1        0.1388
     16 C           6.3544   73.5986   25.3481 C.ar    1  UNL1        0.0373
     17 C           6.7176   73.3837   24.0186 C.ar    1  UNL1        0.0091
     18 C           6.3175   74.2759   23.0182 C.ar    1  UNL1        0.0365
     19 I           6.8587   73.7834   21.0240 I       1  UNL1       -0.0423
     20 C           5.5394   75.4070   23.3572 C.ar    1  UNL1        0.0838
     21 C           5.1755   75.6094   24.7011 C.ar    1  UNL1        0.0438
     22 C           5.1071   76.3951   22.3429 C.2     1  UNL1        0.3385
     23 O           5.7189   77.4886   22.2205 O.2     1  UNL1       -0.2451
     24 O           4.0007   76.1501   21.5320 O.3     1  UNL1       -0.4771
     25 H           3.5041   75.2678   21.5592 H       1  UNL1        0.2954
     26 C          12.8002   82.3217   24.6133 C.2     1  UNL1        0.2839
     27 O          13.3929   81.2100   24.5746 O.2     1  UNL1       -0.2665
     28 N          11.4036   82.3859   24.9448 N.am    1  UNL1       -0.2766
     29 H          10.8746   83.2459   24.6749 H       1  UNL1        0.1553
     30 C          15.5864   82.5458   23.0450 C.3     1  UNL1        0.0345
     31 C          14.7473   83.6606   23.5929 C.ar    1  UNL1        0.0202
     32 C          13.5307   83.5585   24.2769 C.ar    1  UNL1        0.1946
     33 O          13.0937   84.7616   24.6041 O.2     1  UNL1       -0.4492
     34 C          13.9636   85.6390   24.1667 C.ar    1  UNL1        0.1452
     35 C          13.9016   87.0225   24.2901 C.ar    1  UNL1        0.0375
     36 C          14.9497   87.7818   23.7418 C.ar    1  UNL1        0.0031
     37 C          16.0388   87.1507   23.0820 C.ar    1  UNL1        0.0002
     38 C          16.0635   85.7390   22.9786 C.ar    1  UNL1        0.0028
     39 C          15.0064   85.0167   23.5345 C.ar    1  UNL1        0.0337
     40 C          17.1405   87.9633   22.5066 C.ar    1  UNL1        0.0000
     41 C          17.0812   88.4063   21.1714 C.ar    1  UNL1        0.0000
     42 C          18.1205   89.1705   20.6320 C.ar    1  UNL1        0.0000
     43 C          19.2276   89.5014   21.4164 C.ar    1  UNL1        0.0000
     44 C          19.2981   89.0683   22.7423 C.ar    1  UNL1        0.0000
     45 C          18.2622   88.3031   23.2868 C.ar    1  UNL1        0.0000
@<TRIPOS>BOND
     1    30    31    1
     2    31    32   ar
     3    32    26    1
     4    26    27    2
     5    26    28   am
     6    28     1    1
     7     1     2   ar
     8     2     3   ar
     9     3     4   ar
    10     4     7    1
    11     7     8    1
    12     8     9    1
    13     9    10    1
    14    10    13    1
    15    13    14    1
    16    14    15    1
    17    15    16   ar
    18    16    17   ar
    19    17    18   ar
    20    18    19    1
    21    18    20   ar
    22    20    22    1
    23    22    23    2
    24    22    24    1
    25    20    21   ar
    26    10    11    1
    27    11    12    1
    28     4     5   ar
    29     5     6   ar
    30    32    33   ar
    31    33    34   ar
    32    34    35   ar
    33    35    36   ar
    34    36    37   ar
    35    37    40    1
    36    40    41   ar
    37    41    42   ar
    38    42    43   ar
    39    43    44   ar
    40    44    45   ar
    41    37    38   ar
    42    38    39   ar
    43    39    31   ar
    44     6     1   ar
    45    39    34   ar
    46    12     7    1
    47    45    40   ar
    48    21    15   ar
    49    28    29    1
    50    24    25    1
@<TRIPOS>MOLECULE
*****
 45 50 0 0 0
SMALL
GASTEIGER

@<TRIPOS>ATOM
      1 C          11.5787   80.0300   24.2131 C.ar    1  UNL1        0.0702
      2 C          12.0894   78.8280   24.7284 C.ar    1  UNL1        0.0191
      3 C          11.2427   77.7370   24.9313 C.ar    1  UNL1        0.0356
      4 C           9.8763   77.8570   24.6376 C.ar    1  UNL1        0.1318
      5 N           9.4012   79.0361   24.1483 N.ar    1  UNL1       -0.2279
      6 C          10.2068   80.1113   23.9423 C.ar    1  UNL1        0.1149
      7 N           8.9803   76.7456   24.8245 N.pl3   1  UNL1       -0.2932
      8 C           9.4777   75.3672   24.7177 C.3     1  UNL1        0.0923
      9 C           8.4057   74.4648   24.1016 C.3     1  UNL1        0.0252
     10 C           7.0782   74.5850   24.8737 C.3     1  UNL1        0.0472
     11 C           6.6182   76.0561   24.9089 C.3     1  UNL1        0.0252
     12 C           7.7006   76.9572   25.5118 C.3     1  UNL1        0.0923
     13 C           6.0066   73.6888   24.2360 C.3     1  UNL1        0.2054
     14 O           6.2195   73.6034   22.8282 O.3     1  UNL1       -0.4755
     15 C           5.4830   74.3126   21.8678 C.ar    1  UNL1        0.1388
     16 C           5.7625   74.0831   20.5190 C.ar    1  UNL1        0.0373
     17 C           5.0575   74.7609   19.5244 C.ar    1  UNL1        0.0091
     18 C           4.0617   75.6840   19.8611 C.ar    1  UNL1        0.0365
     19 I           3.0012   76.5776   18.2519 I       1  UNL1       -0.0423
     20 C           3.7680   75.9342   21.2216 C.ar    1  UNL1        0.0838
     21 C           4.4830   75.2401   22.2148 C.ar    1  UNL1        0.0438
     22 C           2.7402   76.9164   21.6351 C.2     1  UNL1        0.3385
     23 O           3.0805   78.0566   22.0461 O.2     1  UNL1       -0.2451
     24 O           1.3862   76.5880   21.6098 O.3     1  UNL1       -0.4771
     25 H           1.0588   75.7021   21.2440 H       1  UNL1        0.2954
     26 C          12.3936   82.3467   24.8569 C.2     1  UNL1        0.2839
     27 O          11.8181   82.3080   25.9777 O.2     1  UNL1       -0.2665
     28 N          12.4131   81.1840   24.0131 N.am    1  UNL1       -0.2766
     29 H          13.1349   81.1378   23.2585 H       1  UNL1        0.1553
     30 C          15.3471   82.5643   23.6313 C.3     1  UNL1        0.0345
     31 C          14.3751   83.6756   23.8911 C.ar    1  UNL1        0.0202
     32 C          13.0859   83.5762   24.4261 C.ar    1  UNL1        0.1946
     33 O          12.5359   84.7749   24.5058 O.2     1  UNL1       -0.4492
     34 C          13.4016   85.6465   24.0490 C.ar    1  UNL1        0.1452
     35 C          13.2390   87.0237   23.9476 C.ar    1  UNL1        0.0375
     36 C          14.3032   87.7771   23.4227 C.ar    1  UNL1        0.0031
     37 C          15.5080   87.1467   23.0092 C.ar    1  UNL1        0.0002
     38 C          15.6327   85.7417   23.1300 C.ar    1  UNL1        0.0028
     39 C          14.5563   85.0251   23.6555 C.ar    1  UNL1        0.0337
     40 C          16.6255   87.9530   22.4561 C.ar    1  UNL1        0.0000
     41 C          16.4538   88.6983   21.2739 C.ar    1  UNL1        0.0000
     42 C          17.5081   89.4560   20.7549 C.ar    1  UNL1        0.0000
     43 C          18.7425   89.4794   21.4079 C.ar    1  UNL1        0.0000
     44 C          18.9254   88.7448   22.5815 C.ar    1  UNL1        0.0000
     45 C          17.8748   87.9846   23.1046 C.ar    1  UNL1        0.0000
@<TRIPOS>BOND
     1    30    31    1
     2    31    32   ar
     3    32    26    1
     4    26    27    2
     5    26    28   am
     6    28     1    1
     7     1     2   ar
     8     2     3   ar
     9     3     4   ar
    10     4     7    1
    11     7     8    1
    12     8     9    1
    13     9    10    1
    14    10    13    1
    15    13    14    1
    16    14    15    1
    17    15    16   ar
    18    16    17   ar
    19    17    18   ar
    20    18    19    1
    21    18    20   ar
    22    20    22    1
    23    22    23    2
    24    22    24    1
    25    20    21   ar
    26    10    11    1
    27    11    12    1
    28     4     5   ar
    29     5     6   ar
    30    32    33   ar
    31    33    34   ar
    32    34    35   ar
    33    35    36   ar
    34    36    37   ar
    35    37    40    1
    36    40    41   ar
    37    41    42   ar
    38    42    43   ar
    39    43    44   ar
    40    44    45   ar
    41    37    38   ar
    42    38    39   ar
    43    39    31   ar
    44     6     1   ar
    45    39    34   ar
    46    12     7    1
    47    45    40   ar
    48    21    15   ar
    49    28    29    1
    50    24    25    1
