@<TRIPOS>MOLECULE
*****
 51 56 0 0 0
SMALL
GASTEIGER

@<TRIPOS>ATOM
      1 C          -9.6634  -11.8197   30.5559 C.2     1  UNL1        0.2483
      2 O          -9.2894  -11.8807   31.7592 O.2     1  UNL1       -0.2701
      3 N         -10.7215  -10.9207   30.1809 N.am    1  UNL1       -0.2945
      4 H         -10.9289  -10.7807   29.1667 H       1  UNL1        0.1501
      5 C          -7.7183  -14.2715   27.5923 C.ar    1  UNL1        0.0502
      6 C          -9.0921  -14.4054   27.8565 C.ar    1  UNL1        0.0148
      7 C          -9.7127  -13.6043   28.8177 C.ar    1  UNL1        0.0080
      8 C          -8.9748  -12.6565   29.5456 C.ar    1  UNL1        0.0808
      9 C          -7.6015  -12.5065   29.2706 C.ar    1  UNL1        0.1457
     10 F          -6.8597  -11.5575   29.8941 F       1  UNL1       -0.2040
     11 C          -6.9838  -13.3087   28.3060 C.ar    1  UNL1        0.0443
     12 N          -5.6996  -16.5591   24.5678 N.pl3   1  UNL1       -0.3040
     13 C          -7.1562  -16.3846   24.4722 C.3     1  UNL1        0.1122
     14 C          -7.6038  -15.1255   25.2211 C.3     1  UNL1        0.1122
     15 N          -7.0757  -15.0961   26.5941 N.pl3   1  UNL1       -0.3040
     16 C          -5.9539  -15.9701   26.9672 C.3     1  UNL1        0.1122
     17 C          -4.9900  -16.1506   25.7903 C.3     1  UNL1        0.1122
     18 C          -4.9493  -18.3170   21.3159 C.ar    1  UNL1        0.1438
     19 C          -5.6482  -17.6819   22.3618 C.ar    1  UNL1        0.0513
     20 C          -4.9742  -17.2136   23.5024 C.ar    1  UNL1        0.0510
     21 C          -3.5837  -17.3851   23.5857 C.ar    1  UNL1        0.0147
     22 C          -2.8815  -18.0123   22.5563 C.ar    1  UNL1        0.0082
     23 C          -3.5521  -18.4846   21.4145 C.ar    1  UNL1        0.1054
     24 C          -2.7932  -19.1640   20.2965 C.3     1  UNL1        0.4214
     25 F          -1.6348  -19.7274   20.8004 F       1  UNL1       -0.1657
     26 F          -2.4595  -18.2313   19.3311 F       1  UNL1       -0.1657
     27 F          -3.5413  -20.1635   19.6982 F       1  UNL1       -0.1657
     28 C          -6.9631  -19.2343   20.1381 C.3     1  UNL1        0.2525
     29 O          -5.6098  -18.7923   20.1697 O.3     1  UNL1       -0.4714
     30 C         -11.5935  -10.2714   31.1682 C.3     1  UNL1        0.1535
     31 C         -12.0935  -11.2841   32.1658 C.2     1  UNL1        0.2443
     32 O         -12.6456  -10.8919   33.2303 O.2     1  UNL1       -0.2730
     33 N         -12.0264  -12.6858   31.8577 N.am    1  UNL1       -0.2825
     34 H         -11.8794  -12.9593   30.8595 H       1  UNL1        0.1549
     35 C         -12.2604  -13.7326   32.8153 C.ar    1  UNL1        0.0535
     36 C         -13.2667  -14.6948   32.6229 C.ar    1  UNL1        0.0353
     37 C         -13.4736  -15.6785   33.5934 C.ar    1  UNL1        0.1002
     38 N         -12.7155  -15.6951   34.7214 N.ar    1  UNL1       -0.2422
     39 C         -11.7480  -14.7665   34.9423 C.ar    1  UNL1        0.1002
     40 C         -11.5091  -13.7649   33.9983 C.ar    1  UNL1        0.0353
     41 C         -10.8385   -9.1468   31.8954 C.3     1  UNL1        0.0569
     42 C         -10.9498   -7.8444   31.1567 C.ar    1  UNL1       -0.0017
     43 C         -12.1241   -7.2224   30.7433 C.ar    1  UNL1        0.0681
     44 N         -11.8510   -6.0220   30.1831 N.ar    1  UNL1       -0.3523
     45 C         -10.5157   -5.8787   30.2447 C.ar    1  UNL1        0.0563
     46 C          -9.7618   -4.7904   29.8076 C.ar    1  UNL1        0.0170
     47 C          -8.3672   -4.8423   29.9870 C.ar    1  UNL1        0.0015
     48 C          -7.7649   -5.9668   30.5941 C.ar    1  UNL1        0.0001
     49 C          -8.5512   -7.0498   31.0270 C.ar    1  UNL1        0.0012
     50 C          -9.9305   -6.9703   30.8333 C.ar    1  UNL1        0.0131
     51 H         -12.5417   -5.3421   29.7947 H       1  UNL1        0.1660
@<TRIPOS>BOND
     1    28    29    1
     2    29    18    1
     3    18    19   ar
     4    19    20   ar
     5    20    12    1
     6    12    13    1
     7    13    14    1
     8    14    15    1
     9    15     5    1
    10     5     6   ar
    11     6     7   ar
    12     7     8   ar
    13     8     1    1
    14     1     2    2
    15     1     3   am
    16     3    30    1
    17    30    41    1
    18    41    42    1
    19    42    43   ar
    20    43    44   ar
    21    44    45   ar
    22    45    46   ar
    23    46    47   ar
    24    47    48   ar
    25    48    49   ar
    26    49    50   ar
    27    30    31    1
    28    31    32    2
    29    31    33   am
    30    33    35    1
    31    35    36   ar
    32    36    37   ar
    33    37    38   ar
    34    38    39   ar
    35    39    40   ar
    36     8     9   ar
    37     9    10    1
    38     9    11   ar
    39    15    16    1
    40    16    17    1
    41    20    21   ar
    42    21    22   ar
    43    22    23   ar
    44    23    24    1
    45    24    25    1
    46    24    26    1
    47    24    27    1
    48    23    18   ar
    49    17    12    1
    50    11     5   ar
    51    50    42   ar
    52    40    35   ar
    53    50    45   ar
    54     3     4    1
    55    44    51    1
    56    33    34    1
@<TRIPOS>MOLECULE
*****
 51 56 0 0 0
SMALL
GASTEIGER

@<TRIPOS>ATOM
      1 C          -9.4665  -12.0444   30.5029 C.2     1  UNL1        0.2483
      2 O         -10.5851  -11.5443   30.2022 O.2     1  UNL1       -0.2701
      3 N          -8.9401  -11.8723   31.8302 N.am    1  UNL1       -0.2945
      4 H          -8.0829  -12.4018   32.1055 H       1  UNL1        0.1501
      5 C          -7.3914  -14.3576   27.5162 C.ar    1  UNL1        0.0502
      6 C          -8.7406  -14.6081   27.8197 C.ar    1  UNL1        0.0148
      7 C          -9.4039  -13.8510   28.7881 C.ar    1  UNL1        0.0080
      8 C          -8.7336  -12.8316   29.4841 C.ar    1  UNL1        0.0808
      9 C          -7.3867  -12.5654   29.1695 C.ar    1  UNL1        0.1457
     10 F          -6.7154  -11.5460   29.7610 F       1  UNL1       -0.2040
     11 C          -6.7262  -13.3239   28.1979 C.ar    1  UNL1        0.0443
     12 N          -5.2117  -16.5244   24.5145 N.pl3   1  UNL1       -0.3040
     13 C          -6.5865  -16.0939   24.2217 C.3     1  UNL1        0.1122
     14 C          -6.9755  -14.8901   25.0854 C.3     1  UNL1        0.1122
     15 N          -6.7050  -15.1367   26.5106 N.pl3   1  UNL1       -0.3040
     16 C          -5.8069  -16.2307   26.9079 C.3     1  UNL1        0.1122
     17 C          -4.6828  -16.4114   25.8830 C.3     1  UNL1        0.1122
     18 C          -4.1663  -18.7699   21.6698 C.ar    1  UNL1        0.1438
     19 C          -4.9402  -18.1645   22.6799 C.ar    1  UNL1        0.0513
     20 C          -4.4081  -17.1423   23.4840 C.ar    1  UNL1        0.0510
     21 C          -3.0859  -16.7263   23.2640 C.ar    1  UNL1        0.0147
     22 C          -2.3105  -17.3183   22.2667 C.ar    1  UNL1        0.0082
     23 C          -2.8380  -18.3431   21.4616 C.ar    1  UNL1        0.1054
     24 C          -2.0000  -18.9861   20.3791 C.3     1  UNL1        0.4214
     25 F          -2.8186  -19.3895   19.3396 F       1  UNL1       -0.1657
     26 F          -1.3470  -20.0908   20.8952 F       1  UNL1       -0.1657
     27 F          -1.0508  -18.1135   19.8748 F       1  UNL1       -0.1657
     28 C          -5.9451  -20.4261   21.0557 C.3     1  UNL1        0.2525
     29 O          -4.6840  -19.7947   20.8588 O.3     1  UNL1       -0.4714
     30 C          -9.4968  -10.9014   32.7811 C.3     1  UNL1        0.1535
     31 C          -9.3572   -9.5029   32.2378 C.2     1  UNL1        0.2443
     32 O          -8.4326   -8.7572   32.6632 O.2     1  UNL1       -0.2730
     33 N         -10.2141   -9.0597   31.1731 N.am    1  UNL1       -0.2825
     34 H         -10.7292   -9.7870   30.6268 H       1  UNL1        0.1549
     35 C         -10.3198   -7.6924   30.7410 C.ar    1  UNL1        0.0535
     36 C          -9.5449   -7.1938   29.6797 C.ar    1  UNL1        0.0353
     37 C          -9.6637   -5.8511   29.3115 C.ar    1  UNL1        0.1002
     38 N         -10.5129   -5.0309   29.9850 N.ar    1  UNL1       -0.2422
     39 C         -11.2607   -5.4813   31.0267 C.ar    1  UNL1        0.1002
     40 C         -11.1713   -6.8164   31.4282 C.ar    1  UNL1        0.0353
     41 C         -10.9767  -11.2105   33.0608 C.3     1  UNL1        0.0569
     42 C         -11.1512  -12.5888   33.6303 C.ar    1  UNL1       -0.0017
     43 C         -10.3976  -13.1684   34.6467 C.ar    1  UNL1        0.0681
     44 N         -10.8892  -14.3882   34.9623 N.ar    1  UNL1       -0.3523
     45 C         -11.9494  -14.5808   34.1585 C.ar    1  UNL1        0.0563
     46 C         -12.7948  -15.6889   34.1260 C.ar    1  UNL1        0.0170
     47 C         -13.8630  -15.6742   33.2104 C.ar    1  UNL1        0.0015
     48 C         -14.0611  -14.5642   32.3593 C.ar    1  UNL1        0.0001
     49 C         -13.1928  -13.4589   32.4155 C.ar    1  UNL1        0.0012
     50 C         -12.1417  -13.5038   33.3316 C.ar    1  UNL1        0.0131
     51 H         -10.5240  -15.0393   35.6924 H       1  UNL1        0.1660
@<TRIPOS>BOND
     1    28    29    1
     2    29    18    1
     3    18    19   ar
     4    19    20   ar
     5    20    12    1
     6    12    13    1
     7    13    14    1
     8    14    15    1
     9    15     5    1
    10     5     6   ar
    11     6     7   ar
    12     7     8   ar
    13     8     1    1
    14     1     2    2
    15     1     3   am
    16     3    30    1
    17    30    41    1
    18    41    42    1
    19    42    43   ar
    20    43    44   ar
    21    44    45   ar
    22    45    46   ar
    23    46    47   ar
    24    47    48   ar
    25    48    49   ar
    26    49    50   ar
    27    30    31    1
    28    31    32    2
    29    31    33   am
    30    33    35    1
    31    35    36   ar
    32    36    37   ar
    33    37    38   ar
    34    38    39   ar
    35    39    40   ar
    36     8     9   ar
    37     9    10    1
    38     9    11   ar
    39    15    16    1
    40    16    17    1
    41    20    21   ar
    42    21    22   ar
    43    22    23   ar
    44    23    24    1
    45    24    25    1
    46    24    26    1
    47    24    27    1
    48    23    18   ar
    49    17    12    1
    50    11     5   ar
    51    50    42   ar
    52    40    35   ar
    53    50    45   ar
    54     3     4    1
    55    44    51    1
    56    33    34    1
@<TRIPOS>MOLECULE
*****
 51 56 0 0 0
SMALL
GASTEIGER

@<TRIPOS>ATOM
      1 C          -9.5794  -11.7607   30.5351 C.2     1  UNL1        0.2483
      2 O          -9.1355  -11.7508   31.7160 O.2     1  UNL1       -0.2701
      3 N         -10.6834  -10.9103   30.1793 N.am    1  UNL1       -0.2945
      4 H         -10.9524  -10.8274   29.1733 H       1  UNL1        0.1501
      5 C          -7.7354  -14.3022   27.5825 C.ar    1  UNL1        0.0502
      6 C          -9.1103  -14.3916   27.8598 C.ar    1  UNL1        0.0148
      7 C          -9.6979  -13.5616   28.8173 C.ar    1  UNL1        0.0080
      8 C          -8.9254  -12.6288   29.5284 C.ar    1  UNL1        0.0808
      9 C          -7.5506  -12.5235   29.2401 C.ar    1  UNL1        0.1457
     10 F          -6.7750  -11.5907   29.8468 F       1  UNL1       -0.2040
     11 C          -6.9659  -13.3544   28.2792 C.ar    1  UNL1        0.0443
     12 N          -5.8284  -16.6780   24.5535 N.pl3   1  UNL1       -0.3040
     13 C          -7.2939  -16.5623   24.5472 C.3     1  UNL1        0.1122
     14 C          -7.7418  -15.2810   25.2572 C.3     1  UNL1        0.1122
     15 N          -7.1268  -15.1566   26.5881 N.pl3   1  UNL1       -0.3040
     16 C          -5.9489  -15.9672   26.9303 C.3     1  UNL1        0.1122
     17 C          -5.0575  -16.1771   25.7023 C.3     1  UNL1        0.1122
     18 C          -3.1049  -17.8203   22.2071 C.ar    1  UNL1        0.1438
     19 C          -3.7777  -17.1535   23.2504 C.ar    1  UNL1        0.0513
     20 C          -5.1484  -17.3634   23.4776 C.ar    1  UNL1        0.0510
     21 C          -5.8439  -18.2558   22.6472 C.ar    1  UNL1        0.0147
     22 C          -5.1881  -18.9215   21.6114 C.ar    1  UNL1        0.0082
     23 C          -3.8174  -18.7127   21.3788 C.ar    1  UNL1        0.1054
     24 C          -3.1037  -19.4338   20.2572 C.3     1  UNL1        0.4214
     25 F          -2.6480  -18.5124   19.3317 F       1  UNL1       -0.1657
     26 F          -3.9810  -20.3036   19.6351 F       1  UNL1       -0.1657
     27 F          -2.0205  -20.1620   20.7191 F       1  UNL1       -0.1657
     28 C          -1.1951  -16.5533   21.1916 C.3     1  UNL1        0.2525
     29 O          -1.7347  -17.6193   21.9663 O.3     1  UNL1       -0.4714
     30 C         -11.5163  -10.2355   31.1830 C.3     1  UNL1        0.1535
     31 C         -12.0044  -11.2283   32.2060 C.2     1  UNL1        0.2443
     32 O         -12.4484  -10.8170   33.3130 O.2     1  UNL1       -0.2730
     33 N         -12.0515  -12.6269   31.8805 N.am    1  UNL1       -0.2825
     34 H         -11.9979  -12.8949   30.8715 H       1  UNL1        0.1549
     35 C         -12.2801  -13.6702   32.8432 C.ar    1  UNL1        0.0535
     36 C         -13.2918  -14.6292   32.6631 C.ar    1  UNL1        0.0353
     37 C         -13.4930  -15.6095   33.6382 C.ar    1  UNL1        0.1002
     38 N         -12.7243  -15.6259   34.7590 N.ar    1  UNL1       -0.2422
     39 C         -11.7513  -14.7002   34.9680 C.ar    1  UNL1        0.1002
     40 C         -11.5178  -13.7021   34.0190 C.ar    1  UNL1        0.0353
     41 C         -10.7225   -9.1156   31.8755 C.3     1  UNL1        0.0569
     42 C         -10.8456   -7.8162   31.1333 C.ar    1  UNL1       -0.0017
     43 C         -12.0228   -7.2253   30.6839 C.ar    1  UNL1        0.0681
     44 N         -11.7646   -6.0179   30.1320 N.ar    1  UNL1       -0.3523
     45 C         -10.4361   -5.8392   30.2344 C.ar    1  UNL1        0.0563
     46 C          -9.6982   -4.7312   29.8202 C.ar    1  UNL1        0.0170
     47 C          -8.3090   -4.7462   30.0422 C.ar    1  UNL1        0.0015
     48 C          -7.6959   -5.8546   30.6678 C.ar    1  UNL1        0.0001
     49 C          -8.4661   -6.9583   31.0768 C.ar    1  UNL1        0.0012
     50 C          -9.8404   -6.9152   30.8410 C.ar    1  UNL1        0.0131
     51 H         -12.4608   -5.3563   29.7224 H       1  UNL1        0.1660
@<TRIPOS>BOND
     1    28    29    1
     2    29    18    1
     3    18    19   ar
     4    19    20   ar
     5    20    12    1
     6    12    13    1
     7    13    14    1
     8    14    15    1
     9    15     5    1
    10     5     6   ar
    11     6     7   ar
    12     7     8   ar
    13     8     1    1
    14     1     2    2
    15     1     3   am
    16     3    30    1
    17    30    41    1
    18    41    42    1
    19    42    43   ar
    20    43    44   ar
    21    44    45   ar
    22    45    46   ar
    23    46    47   ar
    24    47    48   ar
    25    48    49   ar
    26    49    50   ar
    27    30    31    1
    28    31    32    2
    29    31    33   am
    30    33    35    1
    31    35    36   ar
    32    36    37   ar
    33    37    38   ar
    34    38    39   ar
    35    39    40   ar
    36     8     9   ar
    37     9    10    1
    38     9    11   ar
    39    15    16    1
    40    16    17    1
    41    20    21   ar
    42    21    22   ar
    43    22    23   ar
    44    23    24    1
    45    24    25    1
    46    24    26    1
    47    24    27    1
    48    23    18   ar
    49    17    12    1
    50    11     5   ar
    51    50    42   ar
    52    40    35   ar
    53    50    45   ar
    54     3     4    1
    55    44    51    1
    56    33    34    1
@<TRIPOS>MOLECULE
*****
 51 56 0 0 0
SMALL
GASTEIGER

@<TRIPOS>ATOM
      1 C          -9.2401  -11.8499   30.5952 C.2     1  UNL1        0.2483
      2 O          -9.7780  -10.7600   30.2569 O.2     1  UNL1       -0.2701
      3 N          -9.2874  -12.2744   31.9685 N.am    1  UNL1       -0.2945
      4 H          -8.9597  -13.2362   32.2108 H       1  UNL1        0.1501
      5 C          -7.4333  -14.3061   27.5489 C.ar    1  UNL1        0.0502
      6 C          -8.7954  -14.4340   27.8706 C.ar    1  UNL1        0.0148
      7 C          -9.3711  -13.6315   28.8582 C.ar    1  UNL1        0.0080
      8 C          -8.5987  -12.6883   29.5557 C.ar    1  UNL1        0.0808
      9 C          -7.2375  -12.5444   29.2232 C.ar    1  UNL1        0.1457
     10 F          -6.4656  -11.5998   29.8163 F       1  UNL1       -0.2040
     11 C          -6.6648  -13.3480   28.2324 C.ar    1  UNL1        0.0443
     12 N          -5.5274  -16.6113   24.4651 N.pl3   1  UNL1       -0.3040
     13 C          -6.9346  -16.2219   24.2936 C.3     1  UNL1        0.1122
     14 C          -7.2593  -14.9754   25.1226 C.3     1  UNL1        0.1122
     15 N          -6.8372  -15.1322   26.5234 N.pl3   1  UNL1       -0.3040
     16 C          -5.8781  -16.1856   26.8868 C.3     1  UNL1        0.1122
     17 C          -4.8625  -16.4083   25.7619 C.3     1  UNL1        0.1122
     18 C          -4.8245  -18.3423   21.1883 C.ar    1  UNL1        0.1438
     19 C          -5.5050  -17.6975   22.2404 C.ar    1  UNL1        0.0513
     20 C          -4.8210  -17.2761   23.3933 C.ar    1  UNL1        0.0510
     21 C          -3.4392  -17.5045   23.4827 C.ar    1  UNL1        0.0147
     22 C          -2.7551  -18.1417   22.4473 C.ar    1  UNL1        0.0082
     23 C          -3.4358  -18.5673   21.2931 C.ar    1  UNL1        0.1054
     24 C          -2.6966  -19.2575   20.1685 C.3     1  UNL1        0.4214
     25 F          -3.5894  -19.9973   19.4143 F       1  UNL1       -0.1657
     26 F          -1.7396  -20.1053   20.6965 F       1  UNL1       -0.1657
     27 F          -2.0648  -18.3514   19.3339 F       1  UNL1       -0.1657
     28 C          -6.8439  -19.2265   19.9950 C.3     1  UNL1        0.2525
     29 O          -5.4951  -18.7712   20.0298 O.3     1  UNL1       -0.4714
     30 C          -9.6784  -11.3739   33.0607 C.3     1  UNL1        0.1535
     31 C          -8.6738  -10.2595   33.2005 C.2     1  UNL1        0.2443
     32 O          -8.3610   -9.8414   34.3490 O.2     1  UNL1       -0.2730
     33 N          -8.0080   -9.7458   32.0357 N.am    1  UNL1       -0.2825
     34 H          -8.0362  -10.3220   31.1638 H       1  UNL1        0.1549
     35 C          -7.2132   -8.5476   32.0255 C.ar    1  UNL1        0.0535
     36 C          -7.7997   -7.2743   32.1259 C.ar    1  UNL1        0.0353
     37 C          -6.9886   -6.1372   32.0862 C.ar    1  UNL1        0.1002
     38 N          -5.6434   -6.2628   31.9374 N.ar    1  UNL1       -0.2422
     39 C          -5.0511   -7.4805   31.8196 C.ar    1  UNL1        0.1002
     40 C          -5.8254   -8.6427   31.8529 C.ar    1  UNL1        0.0353
     41 C         -11.0771  -10.7904   32.8020 C.3     1  UNL1        0.0569
     42 C         -12.0810  -11.8726   32.5278 C.ar    1  UNL1       -0.0017
     43 C         -13.0032  -11.9048   31.4860 C.ar    1  UNL1        0.0681
     44 N         -13.6887  -13.0706   31.4976 N.ar    1  UNL1       -0.3523
     45 C         -13.2033  -13.7765   32.5336 C.ar    1  UNL1        0.0563
     46 C         -13.5853  -15.0550   32.9379 C.ar    1  UNL1        0.0170
     47 C         -12.9282  -15.6173   34.0476 C.ar    1  UNL1        0.0015
     48 C         -11.9144  -14.8984   34.7193 C.ar    1  UNL1        0.0001
     49 C         -11.5486  -13.6105   34.2878 C.ar    1  UNL1        0.0012
     50 C         -12.2196  -13.0787   33.1864 C.ar    1  UNL1        0.0131
     51 H         -14.4339  -13.3640   30.8277 H       1  UNL1        0.1660
@<TRIPOS>BOND
     1    28    29    1
     2    29    18    1
     3    18    19   ar
     4    19    20   ar
     5    20    12    1
     6    12    13    1
     7    13    14    1
     8    14    15    1
     9    15     5    1
    10     5     6   ar
    11     6     7   ar
    12     7     8   ar
    13     8     1    1
    14     1     2    2
    15     1     3   am
    16     3    30    1
    17    30    41    1
    18    41    42    1
    19    42    43   ar
    20    43    44   ar
    21    44    45   ar
    22    45    46   ar
    23    46    47   ar
    24    47    48   ar
    25    48    49   ar
    26    49    50   ar
    27    30    31    1
    28    31    32    2
    29    31    33   am
    30    33    35    1
    31    35    36   ar
    32    36    37   ar
    33    37    38   ar
    34    38    39   ar
    35    39    40   ar
    36     8     9   ar
    37     9    10    1
    38     9    11   ar
    39    15    16    1
    40    16    17    1
    41    20    21   ar
    42    21    22   ar
    43    22    23   ar
    44    23    24    1
    45    24    25    1
    46    24    26    1
    47    24    27    1
    48    23    18   ar
    49    17    12    1
    50    11     5   ar
    51    50    42   ar
    52    40    35   ar
    53    50    45   ar
    54     3     4    1
    55    44    51    1
    56    33    34    1
@<TRIPOS>MOLECULE
*****
 51 56 0 0 0
SMALL
GASTEIGER

@<TRIPOS>ATOM
      1 C          -8.7246  -11.6528   30.9905 C.2     1  UNL1        0.2483
      2 O          -9.7703  -10.9536   30.8936 O.2     1  UNL1       -0.2701
      3 N          -8.0027  -11.6906   32.2338 N.am    1  UNL1       -0.2945
      4 H          -7.2206  -12.3744   32.3424 H       1  UNL1        0.1501
      5 C          -7.5009  -13.9852   27.5788 C.ar    1  UNL1        0.0502
      6 C          -8.8204  -14.0397   28.0592 C.ar    1  UNL1        0.0148
      7 C          -9.2068  -13.2781   29.1644 C.ar    1  UNL1        0.0080
      8 C          -8.2825  -12.4507   29.8231 C.ar    1  UNL1        0.0808
      9 C          -6.9637  -12.3794   29.3333 C.ar    1  UNL1        0.1457
     10 F          -6.0523  -11.5424   29.8888 F       1  UNL1       -0.2040
     11 C          -6.5809  -13.1416   28.2251 C.ar    1  UNL1        0.0443
     12 N          -6.3119  -16.4798   24.2895 N.pl3   1  UNL1       -0.3040
     13 C          -5.4058  -15.4107   24.7336 C.3     1  UNL1        0.1122
     14 C          -5.6745  -15.0422   26.1960 C.3     1  UNL1        0.1122
     15 N          -7.1008  -14.7688   26.4319 N.pl3   1  UNL1       -0.3040
     16 C          -8.1046  -15.2167   25.4556 C.3     1  UNL1        0.1122
     17 C          -7.6854  -16.5429   24.8136 C.3     1  UNL1        0.1122
     18 C          -4.1119  -18.6733   22.1503 C.ar    1  UNL1        0.1438
     19 C          -4.5334  -17.7590   23.1362 C.ar    1  UNL1        0.0513
     20 C          -5.8891  -17.4153   23.2718 C.ar    1  UNL1        0.0510
     21 C          -6.8264  -18.0020   22.4075 C.ar    1  UNL1        0.0147
     22 C          -6.4207  -18.9085   21.4279 C.ar    1  UNL1        0.0082
     23 C          -5.0650  -19.2534   21.2870 C.ar    1  UNL1        0.1054
     24 C          -4.6224  -20.2367   20.2265 C.3     1  UNL1        0.4214
     25 F          -3.7772  -19.6034   19.3332 F       1  UNL1       -0.1657
     26 F          -5.7288  -20.7097   19.5444 F       1  UNL1       -0.1657
     27 F          -3.9511  -21.3172   20.7729 F       1  UNL1       -0.1657
     28 C          -1.6957  -18.0979   21.8119 C.3     1  UNL1        0.2525
     29 O          -2.7593  -19.0255   22.0012 O.3     1  UNL1       -0.4714
     30 C          -8.2505  -10.7344   33.3205 C.3     1  UNL1        0.1535
     31 C          -7.8851   -9.3405   32.8799 C.2     1  UNL1        0.2443
     32 O          -7.4925   -8.4986   33.7336 O.2     1  UNL1       -0.2730
     33 N          -7.8934   -9.0064   31.4826 N.am    1  UNL1       -0.2825
     34 H          -7.8955   -9.7922   30.7931 H       1  UNL1        0.1549
     35 C          -7.7854   -7.6654   30.9749 C.ar    1  UNL1        0.0535
     36 C          -6.5419   -7.1039   30.6375 C.ar    1  UNL1        0.0353
     37 C          -6.4840   -5.7879   30.1716 C.ar    1  UNL1        0.1002
     38 N          -7.6216   -5.0526   30.0592 N.ar    1  UNL1       -0.2422
     39 C          -8.8353   -5.5636   30.3955 C.ar    1  UNL1        0.1002
     40 C          -8.9377   -6.8746   30.8668 C.ar    1  UNL1        0.0353
     41 C          -9.7260  -10.7792   33.7503 C.3     1  UNL1        0.0569
     42 C         -10.1422  -12.1684   34.1392 C.ar    1  UNL1       -0.0017
     43 C          -9.6089  -12.9367   35.1699 C.ar    1  UNL1        0.0681
     44 N         -10.2834  -14.1031   35.2872 N.ar    1  UNL1       -0.3523
     45 C         -11.2409  -14.0750   34.3440 C.ar    1  UNL1        0.0563
     46 C         -12.2027  -15.0510   34.0871 C.ar    1  UNL1        0.0170
     47 C         -13.1278  -14.8070   33.0555 C.ar    1  UNL1        0.0015
     48 C         -13.0726  -13.6058   32.3139 C.ar    1  UNL1        0.0001
     49 C         -12.0918  -12.6379   32.5966 C.ar    1  UNL1        0.0012
     50 C         -11.1873  -12.9095   33.6234 C.ar    1  UNL1        0.0131
     51 H         -10.1020  -14.8629   35.9802 H       1  UNL1        0.1660
@<TRIPOS>BOND
     1    28    29    1
     2    29    18    1
     3    18    19   ar
     4    19    20   ar
     5    20    12    1
     6    12    13    1
     7    13    14    1
     8    14    15    1
     9    15     5    1
    10     5     6   ar
    11     6     7   ar
    12     7     8   ar
    13     8     1    1
    14     1     2    2
    15     1     3   am
    16     3    30    1
    17    30    41    1
    18    41    42    1
    19    42    43   ar
    20    43    44   ar
    21    44    45   ar
    22    45    46   ar
    23    46    47   ar
    24    47    48   ar
    25    48    49   ar
    26    49    50   ar
    27    30    31    1
    28    31    32    2
    29    31    33   am
    30    33    35    1
    31    35    36   ar
    32    36    37   ar
    33    37    38   ar
    34    38    39   ar
    35    39    40   ar
    36     8     9   ar
    37     9    10    1
    38     9    11   ar
    39    15    16    1
    40    16    17    1
    41    20    21   ar
    42    21    22   ar
    43    22    23   ar
    44    23    24    1
    45    24    25    1
    46    24    26    1
    47    24    27    1
    48    23    18   ar
    49    17    12    1
    50    11     5   ar
    51    50    42   ar
    52    40    35   ar
    53    50    45   ar
    54     3     4    1
    55    44    51    1
    56    33    34    1
@<TRIPOS>MOLECULE
*****
 51 56 0 0 0
SMALL
GASTEIGER

@<TRIPOS>ATOM
      1 C          -8.7463  -11.4053   30.8015 C.2     1  UNL1        0.2483
      2 O          -7.9449  -11.0308   31.7010 O.2     1  UNL1       -0.2701
      3 N         -10.0996  -10.9182   30.8018 N.am    1  UNL1       -0.2945
      4 H         -10.7110  -11.1269   29.9810 H       1  UNL1        0.1501
      5 C          -7.2708  -14.0410   27.7268 C.ar    1  UNL1        0.0502
      6 C          -6.4406  -13.0667   28.3070 C.ar    1  UNL1        0.0148
      7 C          -6.9286  -12.2191   29.3042 C.ar    1  UNL1        0.0080
      8 C          -8.2603  -12.3169   29.7396 C.ar    1  UNL1        0.0808
      9 C          -9.0901  -13.3044   29.1735 C.ar    1  UNL1        0.1457
     10 F         -10.3616  -13.4876   29.6089 F       1  UNL1       -0.2040
     11 C          -8.5977  -14.1529   28.1770 C.ar    1  UNL1        0.0443
     12 N          -5.6140  -16.5317   24.6434 N.pl3   1  UNL1       -0.3040
     13 C          -6.9416  -15.9348   24.4373 C.3     1  UNL1        0.1122
     14 C          -7.1094  -14.6733   25.2898 C.3     1  UNL1        0.1122
     15 N          -6.7658  -14.9225   26.6986 N.pl3   1  UNL1       -0.3040
     16 C          -5.9857  -16.1140   27.0634 C.3     1  UNL1        0.1122
     17 C          -4.9737  -16.4588   25.9662 C.3     1  UNL1        0.1122
     18 C          -5.0954  -18.3992   21.4075 C.ar    1  UNL1        0.1438
     19 C          -5.7106  -17.6840   22.4542 C.ar    1  UNL1        0.0513
     20 C          -4.9746  -17.2690   23.5770 C.ar    1  UNL1        0.0510
     21 C          -3.6066  -17.5757   23.6414 C.ar    1  UNL1        0.0147
     22 C          -2.9870  -18.2831   22.6110 C.ar    1  UNL1        0.0082
     23 C          -3.7200  -18.7024   21.4869 C.ar    1  UNL1        0.1054
     24 C          -3.0507  -19.4686   20.3678 C.3     1  UNL1        0.4214
     25 F          -2.7495  -18.6035   19.3314 F       1  UNL1       -0.1657
     26 F          -3.9073  -20.4501   19.9029 F       1  UNL1       -0.1657
     27 F          -1.8784  -20.0744   20.7866 F       1  UNL1       -0.1657
     28 C          -7.1791  -19.2431   20.2983 C.3     1  UNL1        0.2525
     29 O          -5.8187  -18.8224   20.2790 O.3     1  UNL1       -0.4714
     30 C         -10.6910  -10.2295   31.9561 C.3     1  UNL1        0.1535
     31 C         -10.9877   -8.7936   31.6088 C.2     1  UNL1        0.2443
     32 O         -12.1826   -8.3890   31.5938 O.2     1  UNL1       -0.2730
     33 N          -9.9073   -7.8719   31.3912 N.am    1  UNL1       -0.2825
     34 H          -8.9572   -8.1451   31.7308 H       1  UNL1        0.1549
     35 C         -10.0719   -6.5545   30.8389 C.ar    1  UNL1        0.0535
     36 C         -11.2246   -5.7902   31.0888 C.ar    1  UNL1        0.0353
     37 C         -11.3511   -4.5249   30.5098 C.ar    1  UNL1        0.1002
     38 N         -10.3716   -4.0438   29.6995 N.ar    1  UNL1       -0.2422
     39 C          -9.2548   -4.7683   29.4256 C.ar    1  UNL1        0.1002
     40 C          -9.0891   -6.0385   29.9830 C.ar    1  UNL1        0.0353
     41 C         -11.9799  -10.9386   32.4030 C.3     1  UNL1        0.0569
     42 C         -11.6798  -12.2321   33.1038 C.ar    1  UNL1       -0.0017
     43 C         -10.6338  -12.4729   33.9897 C.ar    1  UNL1        0.0681
     44 N         -10.7208  -13.7247   34.4943 N.ar    1  UNL1       -0.3523
     45 C         -11.8153  -14.2736   33.9393 C.ar    1  UNL1        0.0563
     46 C         -12.3283  -15.5499   34.1667 C.ar    1  UNL1        0.0170
     47 C         -13.5050  -15.9161   33.4878 C.ar    1  UNL1        0.0015
     48 C         -14.1363  -15.0081   32.6087 C.ar    1  UNL1        0.0001
     49 C         -13.5967  -13.7259   32.4001 C.ar    1  UNL1        0.0012
     50 C         -12.4282  -13.3928   33.0854 C.ar    1  UNL1        0.0131
     51 H         -10.0740  -14.1664   35.1848 H       1  UNL1        0.1660
@<TRIPOS>BOND
     1    28    29    1
     2    29    18    1
     3    18    19   ar
     4    19    20   ar
     5    20    12    1
     6    12    13    1
     7    13    14    1
     8    14    15    1
     9    15     5    1
    10     5     6   ar
    11     6     7   ar
    12     7     8   ar
    13     8     1    1
    14     1     2    2
    15     1     3   am
    16     3    30    1
    17    30    41    1
    18    41    42    1
    19    42    43   ar
    20    43    44   ar
    21    44    45   ar
    22    45    46   ar
    23    46    47   ar
    24    47    48   ar
    25    48    49   ar
    26    49    50   ar
    27    30    31    1
    28    31    32    2
    29    31    33   am
    30    33    35    1
    31    35    36   ar
    32    36    37   ar
    33    37    38   ar
    34    38    39   ar
    35    39    40   ar
    36     8     9   ar
    37     9    10    1
    38     9    11   ar
    39    15    16    1
    40    16    17    1
    41    20    21   ar
    42    21    22   ar
    43    22    23   ar
    44    23    24    1
    45    24    25    1
    46    24    26    1
    47    24    27    1
    48    23    18   ar
    49    17    12    1
    50    11     5   ar
    51    50    42   ar
    52    40    35   ar
    53    50    45   ar
    54     3     4    1
    55    44    51    1
    56    33    34    1
@<TRIPOS>MOLECULE
*****
 51 56 0 0 0
SMALL
GASTEIGER

@<TRIPOS>ATOM
      1 C          -8.6995  -11.6086   30.8698 C.2     1  UNL1        0.2483
      2 O          -8.9457  -10.3868   30.6742 O.2     1  UNL1       -0.2701
      3 N          -8.7647  -12.1466   32.2021 N.am    1  UNL1       -0.2945
      4 H          -8.6925  -13.1805   32.3327 H       1  UNL1        0.1501
      5 C          -7.8367  -14.1279   27.4806 C.ar    1  UNL1        0.0502
      6 C          -9.1354  -14.0456   28.0115 C.ar    1  UNL1        0.0148
      7 C          -9.4042  -13.2244   29.1089 C.ar    1  UNL1        0.0080
      8 C          -8.3810  -12.4727   29.7093 C.ar    1  UNL1        0.0808
      9 C          -7.0819  -12.5384   29.1686 C.ar    1  UNL1        0.1457
     10 F          -6.0747  -11.7783   29.6661 F       1  UNL1       -0.2040
     11 C          -6.8167  -13.3598   28.0684 C.ar    1  UNL1        0.0443
     12 N          -7.0313  -16.8029   24.2169 N.pl3   1  UNL1       -0.3040
     13 C          -5.9799  -15.8692   24.6459 C.3     1  UNL1        0.1122
     14 C          -6.1863  -15.4500   26.1047 C.3     1  UNL1        0.1122
     15 N          -7.5580  -14.9731   26.3417 N.pl3   1  UNL1       -0.3040
     16 C          -8.6200  -15.2840   25.3737 C.3     1  UNL1        0.1122
     17 C          -8.3972  -16.6635   24.7460 C.3     1  UNL1        0.1122
     18 C          -5.1513  -19.2077   22.0010 C.ar    1  UNL1        0.1438
     19 C          -5.4341  -18.2326   22.9782 C.ar    1  UNL1        0.0513
     20 C          -6.7511  -17.8004   23.2089 C.ar    1  UNL1        0.0510
     21 C          -7.7904  -18.3595   22.4494 C.ar    1  UNL1        0.0147
     22 C          -7.5223  -19.3256   21.4794 C.ar    1  UNL1        0.0082
     23 C          -6.2058  -19.7592   21.2435 C.ar    1  UNL1        0.1054
     24 C          -5.9123  -20.8072   20.1933 C.3     1  UNL1        0.4214
     25 F          -4.7925  -20.4363   19.4709 F       1  UNL1       -0.1657
     26 F          -6.9903  -20.9140   19.3332 F       1  UNL1       -0.1657
     27 F          -5.6777  -22.0501   20.7562 F       1  UNL1       -0.1657
     28 C          -2.7228  -18.7920   21.5388 C.3     1  UNL1        0.2525
     29 O          -3.8391  -19.6488   21.7577 O.3     1  UNL1       -0.4714
     30 C          -8.8223  -11.2940   33.3964 C.3     1  UNL1        0.1535
     31 C          -8.0655  -10.0131   33.1577 C.2     1  UNL1        0.2443
     32 O          -8.6322   -8.9051   33.3649 O.2     1  UNL1       -0.2730
     33 N          -6.6776  -10.0598   32.7891 N.am    1  UNL1       -0.2825
     34 H          -6.1604  -10.9542   32.9486 H       1  UNL1        0.1549
     35 C          -5.9302   -8.9239   32.3215 C.ar    1  UNL1        0.0535
     36 C          -5.2647   -8.0635   33.2116 C.ar    1  UNL1        0.0353
     37 C          -4.5717   -6.9578   32.7122 C.ar    1  UNL1        0.1002
     38 N          -4.5538   -6.7095   31.3760 N.ar    1  UNL1       -0.2422
     39 C          -5.2036   -7.5140   30.4940 C.ar    1  UNL1        0.1002
     40 C          -5.9095   -8.6293   30.9512 C.ar    1  UNL1        0.0353
     41 C         -10.2820  -10.9805   33.7634 C.3     1  UNL1        0.0569
     42 C         -11.2383  -11.8567   33.0069 C.ar    1  UNL1       -0.0017
     43 C         -11.8127  -11.5833   31.7691 C.ar    1  UNL1        0.0681
     44 N         -12.5559  -12.6331   31.3510 N.ar    1  UNL1       -0.3523
     45 C         -12.4507  -13.5684   32.3110 C.ar    1  UNL1        0.0563
     46 C         -13.0287  -14.8371   32.3215 C.ar    1  UNL1        0.0170
     47 C         -12.7711  -15.6677   33.4274 C.ar    1  UNL1        0.0015
     48 C         -11.9494  -15.2176   34.4848 C.ar    1  UNL1        0.0001
     49 C         -11.3782  -13.9327   34.4463 C.ar    1  UNL1        0.0012
     50 C         -11.6538  -13.1316   33.3380 C.ar    1  UNL1        0.0131
     51 H         -13.0905  -12.7036   30.4569 H       1  UNL1        0.1660
@<TRIPOS>BOND
     1    28    29    1
     2    29    18    1
     3    18    19   ar
     4    19    20   ar
     5    20    12    1
     6    12    13    1
     7    13    14    1
     8    14    15    1
     9    15     5    1
    10     5     6   ar
    11     6     7   ar
    12     7     8   ar
    13     8     1    1
    14     1     2    2
    15     1     3   am
    16     3    30    1
    17    30    41    1
    18    41    42    1
    19    42    43   ar
    20    43    44   ar
    21    44    45   ar
    22    45    46   ar
    23    46    47   ar
    24    47    48   ar
    25    48    49   ar
    26    49    50   ar
    27    30    31    1
    28    31    32    2
    29    31    33   am
    30    33    35    1
    31    35    36   ar
    32    36    37   ar
    33    37    38   ar
    34    38    39   ar
    35    39    40   ar
    36     8     9   ar
    37     9    10    1
    38     9    11   ar
    39    15    16    1
    40    16    17    1
    41    20    21   ar
    42    21    22   ar
    43    22    23   ar
    44    23    24    1
    45    24    25    1
    46    24    26    1
    47    24    27    1
    48    23    18   ar
    49    17    12    1
    50    11     5   ar
    51    50    42   ar
    52    40    35   ar
    53    50    45   ar
    54     3     4    1
    55    44    51    1
    56    33    34    1
@<TRIPOS>MOLECULE
*****
 51 56 0 0 0
SMALL
GASTEIGER

@<TRIPOS>ATOM
      1 C          -9.3512  -11.8463   30.7535 C.2     1  UNL1        0.2483
      2 O          -9.0405  -12.1286   31.9432 O.2     1  UNL1       -0.2701
      3 N         -10.2767  -10.7772   30.4908 N.am    1  UNL1       -0.2945
      4 H         -10.4209  -10.4659   29.5042 H       1  UNL1        0.1501
      5 C          -7.5851  -14.0720   27.5123 C.ar    1  UNL1        0.0502
      6 C          -8.9393  -14.2350   27.8511 C.ar    1  UNL1        0.0148
      7 C          -9.5019  -13.5071   28.9021 C.ar    1  UNL1        0.0080
      8 C          -8.7237  -12.6058   29.6470 C.ar    1  UNL1        0.0808
      9 C          -7.3708  -12.4261   29.2985 C.ar    1  UNL1        0.1457
     10 F          -6.5952  -11.5162   29.9392 F       1  UNL1       -0.2040
     11 C          -6.8113  -13.1547   28.2442 C.ar    1  UNL1        0.0443
     12 N          -5.8816  -16.4675   24.3793 N.pl3   1  UNL1       -0.3040
     13 C          -5.0415  -15.4555   25.0360 C.3     1  UNL1        0.1122
     14 C          -5.5666  -15.1401   26.4401 C.3     1  UNL1        0.1122
     15 N          -7.0027  -14.8205   26.4215 N.pl3   1  UNL1       -0.3040
     16 C          -7.8202  -15.1857   25.2554 C.3     1  UNL1        0.1122
     17 C          -7.3300  -16.4985   24.6368 C.3     1  UNL1        0.1122
     18 C          -5.4869  -18.6573   21.3336 C.ar    1  UNL1        0.1438
     19 C          -6.0411  -17.7774   22.2845 C.ar    1  UNL1        0.0513
     20 C          -5.3057  -17.3743   23.4120 C.ar    1  UNL1        0.0510
     21 C          -3.9999  -17.8609   23.5786 C.ar    1  UNL1        0.0147
     22 C          -3.4410  -18.7324   22.6436 C.ar    1  UNL1        0.0082
     23 C          -4.1740  -19.1403   21.5153 C.ar    1  UNL1        0.1054
     24 C          -3.5701  -20.0842   20.4995 C.3     1  UNL1        0.4214
     25 F          -3.2996  -19.3943   19.3315 F       1  UNL1       -0.1657
     26 F          -4.4651  -21.1027   20.2260 F       1  UNL1       -0.1657
     27 F          -2.3918  -20.6490   20.9568 F       1  UNL1       -0.1657
     28 C          -7.6132  -19.3158   20.1808 C.3     1  UNL1        0.2525
     29 O          -6.2106  -19.0709   20.2018 O.3     1  UNL1       -0.4714
     30 C         -11.1075  -10.1756   31.5417 C.3     1  UNL1        0.1535
     31 C         -11.8274  -11.2504   32.3144 C.2     1  UNL1        0.2443
     32 O         -12.5975  -10.9295   33.2609 O.2     1  UNL1       -0.2730
     33 N         -11.7090  -12.6239   31.9099 N.am    1  UNL1       -0.2825
     34 H         -11.3474  -12.8199   30.9489 H       1  UNL1        0.1549
     35 C         -12.1610  -13.7375   32.6994 C.ar    1  UNL1        0.0535
     36 C         -11.7377  -13.9184   34.0273 C.ar    1  UNL1        0.0353
     37 C         -12.1840  -15.0297   34.7472 C.ar    1  UNL1        0.1002
     38 N         -13.0107  -15.9357   34.1615 N.ar    1  UNL1       -0.2422
     39 C         -13.4213  -15.7959   32.8734 C.ar    1  UNL1        0.1002
     40 C         -12.9975  -14.7001   32.1177 C.ar    1  UNL1        0.0353
     41 C         -10.2432   -9.3336   32.4945 C.3     1  UNL1        0.0569
     42 C          -9.3942   -8.3507   31.7411 C.ar    1  UNL1       -0.0017
     43 C          -9.8438   -7.2566   31.0078 C.ar    1  UNL1        0.0681
     44 N          -8.7970   -6.5426   30.5349 N.ar    1  UNL1       -0.3523
     45 C          -7.6914   -7.1730   30.9681 C.ar    1  UNL1        0.0563
     46 C          -6.3659   -6.8002   30.7496 C.ar    1  UNL1        0.0170
     47 C          -5.3562   -7.6007   31.3146 C.ar    1  UNL1        0.0015
     48 C          -5.6903   -8.7415   32.0780 C.ar    1  UNL1        0.0001
     49 C          -7.0369   -9.0925   32.2832 C.ar    1  UNL1        0.0012
     50 C          -8.0152   -8.2808   31.7086 C.ar    1  UNL1        0.0131
     51 H          -8.8431   -5.6715   29.9610 H       1  UNL1        0.1660
@<TRIPOS>BOND
     1    28    29    1
     2    29    18    1
     3    18    19   ar
     4    19    20   ar
     5    20    12    1
     6    12    13    1
     7    13    14    1
     8    14    15    1
     9    15     5    1
    10     5     6   ar
    11     6     7   ar
    12     7     8   ar
    13     8     1    1
    14     1     2    2
    15     1     3   am
    16     3    30    1
    17    30    41    1
    18    41    42    1
    19    42    43   ar
    20    43    44   ar
    21    44    45   ar
    22    45    46   ar
    23    46    47   ar
    24    47    48   ar
    25    48    49   ar
    26    49    50   ar
    27    30    31    1
    28    31    32    2
    29    31    33   am
    30    33    35    1
    31    35    36   ar
    32    36    37   ar
    33    37    38   ar
    34    38    39   ar
    35    39    40   ar
    36     8     9   ar
    37     9    10    1
    38     9    11   ar
    39    15    16    1
    40    16    17    1
    41    20    21   ar
    42    21    22   ar
    43    22    23   ar
    44    23    24    1
    45    24    25    1
    46    24    26    1
    47    24    27    1
    48    23    18   ar
    49    17    12    1
    50    11     5   ar
    51    50    42   ar
    52    40    35   ar
    53    50    45   ar
    54     3     4    1
    55    44    51    1
    56    33    34    1
@<TRIPOS>MOLECULE
*****
 51 56 0 0 0
SMALL
GASTEIGER

@<TRIPOS>ATOM
      1 C          -9.1371  -11.6600   30.6368 C.2     1  UNL1        0.2483
      2 O          -8.4272  -11.3075   31.6183 O.2     1  UNL1       -0.2701
      3 N         -10.4885  -11.1809   30.5233 N.am    1  UNL1       -0.2945
      4 H         -11.0181  -11.3688   29.6428 H       1  UNL1        0.1501
      5 C          -7.4765  -14.2289   27.6003 C.ar    1  UNL1        0.0502
      6 C          -8.8288  -14.3239   27.9707 C.ar    1  UNL1        0.0148
      7 C          -9.3571  -13.4850   28.9546 C.ar    1  UNL1        0.0080
      8 C          -8.5456  -12.5373   29.5998 C.ar    1  UNL1        0.0808
      9 C          -7.1942  -12.4267   29.2182 C.ar    1  UNL1        0.1457
     10 F          -6.3868  -11.4804   29.7590 F       1  UNL1       -0.2040
     11 C          -6.6691  -13.2666   28.2311 C.ar    1  UNL1        0.0443
     12 N          -5.7011  -16.6600   24.5353 N.pl3   1  UNL1       -0.3040
     13 C          -7.0546  -16.1268   24.3236 C.3     1  UNL1        0.1122
     14 C          -7.2822  -14.8689   25.1676 C.3     1  UNL1        0.1122
     15 N          -6.9295  -15.0927   26.5785 N.pl3   1  UNL1       -0.3040
     16 C          -6.0954  -16.2443   26.9520 C.3     1  UNL1        0.1122
     17 C          -5.0669  -16.5488   25.8584 C.3     1  UNL1        0.1122
     18 C          -2.9931  -17.8523   22.1959 C.ar    1  UNL1        0.1438
     19 C          -3.6606  -17.1582   23.2246 C.ar    1  UNL1        0.0513
     20 C          -5.0265  -17.3737   23.4745 C.ar    1  UNL1        0.0510
     21 C          -5.7224  -18.2994   22.6818 C.ar    1  UNL1        0.0147
     22 C          -5.0719  -18.9925   21.6608 C.ar    1  UNL1        0.0082
     23 C          -3.7060  -18.7782   21.4056 C.ar    1  UNL1        0.1054
     24 C          -2.9979  -19.5289   20.2999 C.3     1  UNL1        0.4214
     25 F          -2.5696  -18.6349   19.3353 F       1  UNL1       -0.1657
     26 F          -3.8710  -20.4331   19.7225 F       1  UNL1       -0.1657
     27 F          -1.8974  -20.2243   20.7712 F       1  UNL1       -0.1657
     28 C          -1.1161  -16.7176   20.9821 C.3     1  UNL1        0.2525
     29 O          -1.6278  -17.6462   21.9327 O.3     1  UNL1       -0.4714
     30 C         -11.1918  -10.5297   31.6359 C.3     1  UNL1        0.1535
     31 C         -11.0780   -9.0318   31.5174 C.2     1  UNL1        0.2443
     32 O         -11.9814   -8.2967   32.0024 O.2     1  UNL1       -0.2730
     33 N          -9.8995   -8.4470   30.9401 N.am    1  UNL1       -0.2825
     34 H          -9.0476   -9.0472   30.8573 H       1  UNL1        0.1549
     35 C          -9.7849   -7.0610   30.5746 C.ar    1  UNL1        0.0535
     36 C         -10.9158   -6.2845   30.2686 C.ar    1  UNL1        0.0353
     37 C         -10.7529   -4.9482   29.8941 C.ar    1  UNL1        0.1002
     38 N          -9.5081   -4.4086   29.8132 N.ar    1  UNL1       -0.2422
     39 C          -8.3959   -5.1408   30.0856 C.ar    1  UNL1        0.1002
     40 C          -8.5139   -6.4808   30.4624 C.ar    1  UNL1        0.0353
     41 C         -12.6723  -10.9440   31.6524 C.3     1  UNL1        0.0569
     42 C         -12.8627  -12.2728   32.3249 C.ar    1  UNL1       -0.0017
     43 C         -13.8542  -13.2091   32.0473 C.ar    1  UNL1        0.0681
     44 N         -13.6693  -14.3264   32.7867 N.ar    1  UNL1       -0.3523
     45 C         -12.5669  -14.1058   33.5237 C.ar    1  UNL1        0.0563
     46 C         -11.9672  -14.9798   34.4294 C.ar    1  UNL1        0.0170
     47 C         -10.7992  -14.5482   35.0845 C.ar    1  UNL1        0.0015
     48 C         -10.2621  -13.2684   34.8212 C.ar    1  UNL1        0.0001
     49 C         -10.8879  -12.4082   33.9008 C.ar    1  UNL1        0.0012
     50 C         -12.0455  -12.8633   33.2690 C.ar    1  UNL1        0.0131
     51 H         -14.2585  -15.1884   32.7744 H       1  UNL1        0.1660
@<TRIPOS>BOND
     1    28    29    1
     2    29    18    1
     3    18    19   ar
     4    19    20   ar
     5    20    12    1
     6    12    13    1
     7    13    14    1
     8    14    15    1
     9    15     5    1
    10     5     6   ar
    11     6     7   ar
    12     7     8   ar
    13     8     1    1
    14     1     2    2
    15     1     3   am
    16     3    30    1
    17    30    41    1
    18    41    42    1
    19    42    43   ar
    20    43    44   ar
    21    44    45   ar
    22    45    46   ar
    23    46    47   ar
    24    47    48   ar
    25    48    49   ar
    26    49    50   ar
    27    30    31    1
    28    31    32    2
    29    31    33   am
    30    33    35    1
    31    35    36   ar
    32    36    37   ar
    33    37    38   ar
    34    38    39   ar
    35    39    40   ar
    36     8     9   ar
    37     9    10    1
    38     9    11   ar
    39    15    16    1
    40    16    17    1
    41    20    21   ar
    42    21    22   ar
    43    22    23   ar
    44    23    24    1
    45    24    25    1
    46    24    26    1
    47    24    27    1
    48    23    18   ar
    49    17    12    1
    50    11     5   ar
    51    50    42   ar
    52    40    35   ar
    53    50    45   ar
    54     3     4    1
    55    44    51    1
    56    33    34    1
