@<TRIPOS>MOLECULE
*****
 35 39 0 0 0
SMALL
GASTEIGER

@<TRIPOS>ATOM
      1 C          49.2620    8.5249  -27.8812 C.2     1  UNL1        0.2491
      2 O          48.9550    7.3298  -27.6181 O.2     1  UNL1       -0.2699
      3 N          50.4437    9.0945  -27.2880 N.am    1  UNL1       -0.2760
      4 C          51.4076    9.8362  -28.1088 C.3     1  UNL1        0.0954
      5 C          51.9006   11.1072  -27.3886 C.3     1  UNL1        0.0399
      6 C          51.8365   11.0337  -25.8274 C.3     1  UNL1        0.0645
      7 C          51.9552    9.5554  -25.3682 C.3     1  UNL1        0.0399
      8 C          50.8410    8.6634  -25.9422 C.3     1  UNL1        0.0954
      9 C          50.4841   11.6636  -25.3244 C.3     1  UNL1        0.0481
     10 C          50.5370   11.9398  -23.8519 C.ar    1  UNL1        0.0259
     11 C          51.6841   12.2764  -23.2113 C.ar    1  UNL1        0.1519
     12 N          51.4305   12.6391  -21.9452 N.ar    1  UNL1       -0.1647
     13 N          50.1147   12.5493  -21.7607 N.ar    1  UNL1       -0.2494
     14 C          49.5331   12.1391  -22.9281 C.ar    1  UNL1        0.1047
     15 I          47.4737   11.8812  -23.3819 I       1  UNL1       -0.0219
     16 C          52.9653   12.2582  -23.9007 C.2     1  UNL1        0.2650
     17 O          54.0177   12.6597  -23.3375 O.2     1  UNL1       -0.2684
     18 N          52.9877   11.7770  -25.2548 N.am    1  UNL1       -0.3023
     19 H          53.9118   11.7577  -25.7429 H       1  UNL1        0.1497
     20 C          45.8035   13.3032  -29.5768 C.ar    1  UNL1        0.2249
     21 C          45.4520   12.8555  -30.8540 C.ar    1  UNL1        0.0577
     22 C          45.9241   11.6223  -31.3083 C.ar    1  UNL1        0.0063
     23 C          46.7444   10.8438  -30.4821 C.ar    1  UNL1        0.0179
     24 C          47.2384    9.6039  -30.9064 C.ar    1  UNL1        0.0016
     25 C          48.0551    8.8489  -30.0600 C.ar    1  UNL1        0.0046
     26 C          48.3828    9.3169  -28.7743 C.ar    1  UNL1        0.0551
     27 C          47.8963   10.5685  -28.3562 C.ar    1  UNL1        0.0237
     28 C          47.0781   11.3281  -29.1994 C.ar    1  UNL1        0.0845
     29 N          46.6031   12.5335  -28.7854 N.ar    1  UNL1       -0.2117
     30 C          45.8639   15.2010  -27.9885 C.3     1  UNL1        0.2542
     31 O          45.3280   14.5386  -29.1277 O.3     1  UNL1       -0.4561
     32 C          49.4641   12.8892  -20.4712 C.3     1  UNL1        0.0871
     33 C          48.3171   11.9029  -20.1738 C.3     1  UNL1        0.0244
     34 C          50.4862   12.7842  -19.3133 C.3     1  UNL1        0.0244
     35 C          48.9376   14.3371  -20.5052 C.3     1  UNL1        0.0244
@<TRIPOS>BOND
     1    30    31    1
     2    31    20    1
     3    20    21   ar
     4    21    22   ar
     5    22    23   ar
     6    23    24   ar
     7    24    25   ar
     8    25    26   ar
     9    26     1    1
    10     1     2    2
    11     1     3   am
    12     3     4    1
    13     4     5    1
    14     5     6    1
    15     6     7    1
    16     7     8    1
    17     6     9    1
    18     9    10    1
    19    10    11   ar
    20    11    12   ar
    21    12    13   ar
    22    13    32    1
    23    32    33    1
    24    32    34    1
    25    32    35    1
    26    13    14   ar
    27    14    15    1
    28    11    16    1
    29    16    17    2
    30    16    18   am
    31    26    27   ar
    32    27    28   ar
    33    28    29   ar
    34    29    20   ar
    35    28    23   ar
    36     8     3    1
    37    14    10   ar
    38    18     6    1
    39    18    19    1
@<TRIPOS>MOLECULE
*****
 35 39 0 0 0
SMALL
GASTEIGER

@<TRIPOS>ATOM
      1 C          49.9641   11.4495  -19.4194 C.2     1  UNL1        0.2491
      2 O          51.1828   11.1620  -19.5746 O.2     1  UNL1       -0.2699
      3 N          49.0213   11.0945  -20.4480 N.am    1  UNL1       -0.2760
      4 C          47.7600   10.4272  -20.1062 C.3     1  UNL1        0.0954
      5 C          46.5795   11.0079  -20.9102 C.3     1  UNL1        0.0399
      6 C          46.9798   11.6429  -22.2825 C.3     1  UNL1        0.0645
      7 C          48.2713   10.9655  -22.8152 C.3     1  UNL1        0.0399
      8 C          49.4596   11.1090  -21.8489 C.3     1  UNL1        0.0954
      9 C          47.1995   13.1916  -22.1035 C.3     1  UNL1        0.0481
     10 C          47.2278   13.8855  -23.4321 C.ar    1  UNL1        0.0259
     11 C          46.5096   13.4539  -24.4985 C.ar    1  UNL1        0.1519
     12 N          46.5726   14.3411  -25.5024 N.ar    1  UNL1       -0.1647
     13 N          47.3248   15.3590  -25.0880 N.ar    1  UNL1       -0.2494
     14 C          47.7275   15.1154  -23.8044 C.ar    1  UNL1        0.1047
     15 I          48.8589   16.3499  -22.4968 I       1  UNL1       -0.0219
     16 C          45.7670   12.2036  -24.4505 C.2     1  UNL1        0.2650
     17 O          45.0242   11.8462  -25.4026 O.2     1  UNL1       -0.2684
     18 N          45.8999   11.3933  -23.2709 N.am    1  UNL1       -0.3023
     19 H          45.3713   10.4919  -23.2448 H       1  UNL1        0.1497
     20 C          46.7047   15.4298  -16.0728 C.ar    1  UNL1        0.2249
     21 C          47.2714   15.1562  -14.8241 C.ar    1  UNL1        0.0577
     22 C          48.2754   14.1915  -14.7174 C.ar    1  UNL1        0.0063
     23 C          48.7070   13.5066  -15.8602 C.ar    1  UNL1        0.0179
     24 C          49.7090   12.5308  -15.7895 C.ar    1  UNL1        0.0016
     25 C          50.1195   11.8634  -16.9470 C.ar    1  UNL1        0.0046
     26 C          49.5416   12.1675  -18.1932 C.ar    1  UNL1        0.0551
     27 C          48.5260   13.1382  -18.2589 C.ar    1  UNL1        0.0237
     28 C          48.1118   13.8093  -17.1033 C.ar    1  UNL1        0.0845
     29 N          47.1358   14.7540  -17.1753 N.ar    1  UNL1       -0.2117
     30 C          44.3731   16.1778  -15.7089 C.3     1  UNL1        0.2542
     31 O          45.6999   16.3965  -16.1733 O.3     1  UNL1       -0.4561
     32 C          47.6049   16.5426  -25.9378 C.3     1  UNL1        0.0871
     33 C          49.1217   16.6860  -26.1732 C.3     1  UNL1        0.0244
     34 C          46.9281   16.3796  -27.3205 C.3     1  UNL1        0.0244
     35 C          47.0363   17.8160  -25.2821 C.3     1  UNL1        0.0244
@<TRIPOS>BOND
     1    30    31    1
     2    31    20    1
     3    20    21   ar
     4    21    22   ar
     5    22    23   ar
     6    23    24   ar
     7    24    25   ar
     8    25    26   ar
     9    26     1    1
    10     1     2    2
    11     1     3   am
    12     3     4    1
    13     4     5    1
    14     5     6    1
    15     6     7    1
    16     7     8    1
    17     6     9    1
    18     9    10    1
    19    10    11   ar
    20    11    12   ar
    21    12    13   ar
    22    13    32    1
    23    32    33    1
    24    32    34    1
    25    32    35    1
    26    13    14   ar
    27    14    15    1
    28    11    16    1
    29    16    17    2
    30    16    18   am
    31    26    27   ar
    32    27    28   ar
    33    28    29   ar
    34    29    20   ar
    35    28    23   ar
    36     8     3    1
    37    14    10   ar
    38    18     6    1
    39    18    19    1
@<TRIPOS>MOLECULE
*****
 35 39 0 0 0
SMALL
GASTEIGER

@<TRIPOS>ATOM
      1 C          49.7704   10.4471  -21.0941 C.2     1  UNL1        0.2491
      2 O          50.5847    9.6701  -21.6642 O.2     1  UNL1       -0.2699
      3 N          48.4765   10.6673  -21.6860 N.am    1  UNL1       -0.2760
      4 C          47.2597   10.5925  -20.8694 C.3     1  UNL1        0.0954
      5 C          46.2738   11.7241  -21.2225 C.3     1  UNL1        0.0399
      6 C          46.4095   12.2701  -22.6821 C.3     1  UNL1        0.0645
      7 C          46.9747   11.1577  -23.6060 C.3     1  UNL1        0.0399
      8 C          48.3521   10.6480  -23.1485 C.3     1  UNL1        0.0954
      9 C          47.3542   13.5295  -22.6888 C.3     1  UNL1        0.0481
     10 C          47.2269   14.2875  -23.9760 C.ar    1  UNL1        0.0259
     11 C          46.0692   14.3445  -24.6801 C.ar    1  UNL1        0.1519
     12 N          46.1716   15.2216  -25.6897 N.ar    1  UNL1       -0.1647
     13 N          47.3947   15.7461  -25.6394 N.ar    1  UNL1       -0.2494
     14 C          48.0636   15.2031  -24.5778 C.ar    1  UNL1        0.1047
     15 I          50.0084   15.6495  -23.8481 I       1  UNL1       -0.0219
     16 C          44.9105   13.5556  -24.2902 C.2     1  UNL1        0.2650
     17 O          43.8063   13.6763  -24.8836 O.2     1  UNL1       -0.2684
     18 N          45.0651   12.6400  -23.1931 N.am    1  UNL1       -0.3023
     19 H          44.2323   12.0693  -22.9224 H       1  UNL1        0.1497
     20 C          49.9581   11.4701  -15.0455 C.ar    1  UNL1        0.2249
     21 C          50.8465   12.5499  -15.0503 C.ar    1  UNL1        0.0577
     22 C          51.3602   13.0167  -16.2620 C.ar    1  UNL1        0.0063
     23 C          50.9818   12.4013  -17.4618 C.ar    1  UNL1        0.0179
     24 C          51.4798   12.8411  -18.6946 C.ar    1  UNL1        0.0016
     25 C          51.0843   12.2072  -19.8759 C.ar    1  UNL1        0.0046
     26 C          50.1787   11.1310  -19.8438 C.ar    1  UNL1        0.0551
     27 C          49.6908   10.6829  -18.6031 C.ar    1  UNL1        0.0237
     28 C          50.0833   11.3141  -17.4178 C.ar    1  UNL1        0.0845
     29 N          49.6003   10.8819  -16.2219 N.ar    1  UNL1       -0.2117
     30 C          48.1231   11.2902  -13.3936 C.3     1  UNL1        0.2542
     31 O          49.4475   11.0071  -13.8294 O.3     1  UNL1       -0.4561
     32 C          47.8633   16.7730  -26.6025 C.3     1  UNL1        0.0871
     33 C          49.2607   16.4050  -27.1397 C.3     1  UNL1        0.0244
     34 C          46.9001   16.8500  -27.8119 C.3     1  UNL1        0.0244
     35 C          47.8894   18.1602  -25.9318 C.3     1  UNL1        0.0244
@<TRIPOS>BOND
     1    30    31    1
     2    31    20    1
     3    20    21   ar
     4    21    22   ar
     5    22    23   ar
     6    23    24   ar
     7    24    25   ar
     8    25    26   ar
     9    26     1    1
    10     1     2    2
    11     1     3   am
    12     3     4    1
    13     4     5    1
    14     5     6    1
    15     6     7    1
    16     7     8    1
    17     6     9    1
    18     9    10    1
    19    10    11   ar
    20    11    12   ar
    21    12    13   ar
    22    13    32    1
    23    32    33    1
    24    32    34    1
    25    32    35    1
    26    13    14   ar
    27    14    15    1
    28    11    16    1
    29    16    17    2
    30    16    18   am
    31    26    27   ar
    32    27    28   ar
    33    28    29   ar
    34    29    20   ar
    35    28    23   ar
    36     8     3    1
    37    14    10   ar
    38    18     6    1
    39    18    19    1
@<TRIPOS>MOLECULE
*****
 35 39 0 0 0
SMALL
GASTEIGER

@<TRIPOS>ATOM
      1 C          48.2438   12.9436  -19.1155 C.2     1  UNL1        0.2491
      2 O          48.6551   13.6023  -18.1212 O.2     1  UNL1       -0.2699
      3 N          49.1706   12.5962  -20.1611 N.am    1  UNL1       -0.2760
      4 C          49.2275   11.2261  -20.6832 C.3     1  UNL1        0.0954
      5 C          49.3608   11.2136  -22.2192 C.3     1  UNL1        0.0399
      6 C          50.0320   12.4915  -22.8221 C.3     1  UNL1        0.0645
      7 C          50.9875   13.1239  -21.7745 C.3     1  UNL1        0.0399
      8 C          50.2659   13.5216  -20.4755 C.3     1  UNL1        0.0954
      9 C          48.9195   13.5201  -23.2499 C.3     1  UNL1        0.0481
     10 C          49.4864   14.5804  -24.1454 C.ar    1  UNL1        0.0259
     11 C          50.5113   14.3438  -25.0016 C.ar    1  UNL1        0.1519
     12 N          50.7100   15.3990  -25.8054 N.ar    1  UNL1       -0.1647
     13 N          49.8072   16.3227  -25.4811 N.ar    1  UNL1       -0.2494
     14 C          49.0232   15.8373  -24.4717 C.ar    1  UNL1        0.1047
     15 I          47.3354   16.7280  -23.5381 I       1  UNL1       -0.0219
     16 C          51.2127   13.0691  -25.0033 C.2     1  UNL1        0.2650
     17 O          52.1007   12.8115  -25.8583 O.2     1  UNL1       -0.2684
     18 N          50.8482   12.1055  -24.0011 N.am    1  UNL1       -0.3023
     19 H          51.3610   11.1946  -24.0011 H       1  UNL1        0.1497
     20 C          42.2937   13.1270  -17.6221 C.ar    1  UNL1        0.2249
     21 C          41.8246   12.1856  -18.5435 C.ar    1  UNL1        0.0577
     22 C          42.7224   11.5636  -19.4137 C.ar    1  UNL1        0.0063
     23 C          44.0840   11.8863  -19.3568 C.ar    1  UNL1        0.0179
     24 C          45.0116   11.2846  -20.2163 C.ar    1  UNL1        0.0016
     25 C          46.3645   11.6267  -20.1364 C.ar    1  UNL1        0.0046
     26 C          46.8117   12.5676  -19.1910 C.ar    1  UNL1        0.0551
     27 C          45.8759   13.1802  -18.3383 C.ar    1  UNL1        0.0237
     28 C          44.5207   12.8411  -18.4139 C.ar    1  UNL1        0.0845
     29 N          43.6220   13.4302  -17.5799 N.ar    1  UNL1       -0.2117
     30 C          40.1349   13.1712  -16.4114 C.3     1  UNL1        0.2542
     31 O          41.3902   13.7464  -16.7538 O.3     1  UNL1       -0.4561
     32 C          49.7174   17.6303  -26.1766 C.3     1  UNL1        0.0871
     33 C          48.6319   17.5816  -27.2703 C.3     1  UNL1        0.0244
     34 C          49.3249   18.7427  -25.1741 C.3     1  UNL1        0.0244
     35 C          51.0826   18.0050  -26.7855 C.3     1  UNL1        0.0244
@<TRIPOS>BOND
     1    30    31    1
     2    31    20    1
     3    20    21   ar
     4    21    22   ar
     5    22    23   ar
     6    23    24   ar
     7    24    25   ar
     8    25    26   ar
     9    26     1    1
    10     1     2    2
    11     1     3   am
    12     3     4    1
    13     4     5    1
    14     5     6    1
    15     6     7    1
    16     7     8    1
    17     6     9    1
    18     9    10    1
    19    10    11   ar
    20    11    12   ar
    21    12    13   ar
    22    13    32    1
    23    32    33    1
    24    32    34    1
    25    32    35    1
    26    13    14   ar
    27    14    15    1
    28    11    16    1
    29    16    17    2
    30    16    18   am
    31    26    27   ar
    32    27    28   ar
    33    28    29   ar
    34    29    20   ar
    35    28    23   ar
    36     8     3    1
    37    14    10   ar
    38    18     6    1
    39    18    19    1
@<TRIPOS>MOLECULE
*****
 35 39 0 0 0
SMALL
GASTEIGER

@<TRIPOS>ATOM
      1 C          49.4054   10.4796  -21.9436 C.2     1  UNL1        0.2491
      2 O          50.3879    9.7710  -22.2962 O.2     1  UNL1       -0.2699
      3 N          48.4601   10.9161  -22.9381 N.am    1  UNL1       -0.2760
      4 C          47.0176   10.7753  -22.7093 C.3     1  UNL1        0.0954
      5 C          46.2488   12.0292  -23.1718 C.3     1  UNL1        0.0399
      6 C          46.9590   12.8449  -24.3019 C.3     1  UNL1        0.0645
      7 C          47.8602   11.8997  -25.1415 C.3     1  UNL1        0.0399
      8 C          48.9389   11.2009  -24.2962 C.3     1  UNL1        0.0954
      9 C          47.8139   14.0011  -23.6608 C.3     1  UNL1        0.0481
     10 C          48.2119   15.0100  -24.6959 C.ar    1  UNL1        0.0259
     11 C          47.4381   15.2989  -25.7716 C.ar    1  UNL1        0.1519
     12 N          47.9326   16.3500  -26.4421 N.ar    1  UNL1       -0.1647
     13 N          49.0256   16.7551  -25.7981 N.ar    1  UNL1       -0.2494
     14 C          49.2123   15.9586  -24.7026 C.ar    1  UNL1        0.1047
     15 I          50.6906   16.0937  -23.1828 I       1  UNL1       -0.0219
     16 C          46.2280   14.5420  -26.0543 C.2     1  UNL1        0.2650
     17 O          45.4578   14.8666  -26.9963 O.2     1  UNL1       -0.2684
     18 N          45.9335   13.4153  -25.2120 N.am    1  UNL1       -0.3023
     19 H          45.0677   12.8696  -25.4245 H       1  UNL1        0.1497
     20 C          51.2542   12.5442  -16.4676 C.ar    1  UNL1        0.2249
     21 C          50.0274   12.4742  -15.8001 C.ar    1  UNL1        0.0577
     22 C          48.8962   12.0173  -16.4796 C.ar    1  UNL1        0.0063
     23 C          48.9987   11.6326  -17.8223 C.ar    1  UNL1        0.0179
     24 C          47.8844   11.1729  -18.5352 C.ar    1  UNL1        0.0016
     25 C          48.0170   10.7958  -19.8746 C.ar    1  UNL1        0.0046
     26 C          49.2660   10.8638  -20.5186 C.ar    1  UNL1        0.0551
     27 C          50.3803   11.3387  -19.8039 C.ar    1  UNL1        0.0237
     28 C          50.2531   11.7170  -18.4630 C.ar    1  UNL1        0.0845
     29 N          51.3368   12.1664  -17.7747 N.ar    1  UNL1       -0.2117
     30 C          52.3463   13.3946  -14.4152 C.3     1  UNL1        0.2542
     31 O          52.3830   13.0026  -15.7823 O.3     1  UNL1       -0.4561
     32 C          49.8347   17.9141  -26.2493 C.3     1  UNL1        0.0871
     33 C          49.0818   18.7001  -27.3412 C.3     1  UNL1        0.0244
     34 C          50.0903   18.8799  -25.0668 C.3     1  UNL1        0.0244
     35 C          51.2035   17.4372  -26.7725 C.3     1  UNL1        0.0244
@<TRIPOS>BOND
     1    30    31    1
     2    31    20    1
     3    20    21   ar
     4    21    22   ar
     5    22    23   ar
     6    23    24   ar
     7    24    25   ar
     8    25    26   ar
     9    26     1    1
    10     1     2    2
    11     1     3   am
    12     3     4    1
    13     4     5    1
    14     5     6    1
    15     6     7    1
    16     7     8    1
    17     6     9    1
    18     9    10    1
    19    10    11   ar
    20    11    12   ar
    21    12    13   ar
    22    13    32    1
    23    32    33    1
    24    32    34    1
    25    32    35    1
    26    13    14   ar
    27    14    15    1
    28    11    16    1
    29    16    17    2
    30    16    18   am
    31    26    27   ar
    32    27    28   ar
    33    28    29   ar
    34    29    20   ar
    35    28    23   ar
    36     8     3    1
    37    14    10   ar
    38    18     6    1
    39    18    19    1
@<TRIPOS>MOLECULE
*****
 35 39 0 0 0
SMALL
GASTEIGER

@<TRIPOS>ATOM
      1 C          52.6710   11.5690  -25.6028 C.2     1  UNL1        0.2491
      2 O          53.8792   11.3099  -25.3483 O.2     1  UNL1       -0.2699
      3 N          52.0855   12.7765  -25.0812 N.am    1  UNL1       -0.2760
      4 C          51.3010   13.6613  -25.9499 C.3     1  UNL1        0.0954
      5 C          50.0349   14.1746  -25.2352 C.3     1  UNL1        0.0399
      6 C          50.1459   14.2244  -23.6757 C.3     1  UNL1        0.0645
      7 C          51.6310   14.4105  -23.2629 C.3     1  UNL1        0.0399
      8 C          52.5374   13.2793  -23.7782 C.3     1  UNL1        0.0954
      9 C          49.5622   12.8970  -23.0623 C.3     1  UNL1        0.0481
     10 C          49.3188   13.0489  -21.5909 C.ar    1  UNL1        0.0259
     11 C          48.9683   14.2307  -21.0254 C.ar    1  UNL1        0.1519
     12 N          48.6414   14.0601  -19.7358 N.ar    1  UNL1       -0.1647
     13 N          48.7686   12.7634  -19.4605 N.ar    1  UNL1       -0.2494
     14 C          49.1663   12.1095  -20.5934 C.ar    1  UNL1        0.1047
     15 I          49.4657   10.0295  -20.9058 I       1  UNL1       -0.0219
     16 C          48.9381   15.4592  -21.8044 C.2     1  UNL1        0.2650
     17 O          48.5233   16.5395  -21.3077 O.2     1  UNL1       -0.2684
     18 N          49.3872   15.3958  -23.1682 N.am    1  UNL1       -0.3023
     19 H          49.3719   16.2827  -23.7211 H       1  UNL1        0.1497
     20 C          51.4156    7.9524  -30.3999 C.ar    1  UNL1        0.2249
     21 C          50.1958    7.4369  -29.9510 C.ar    1  UNL1        0.0577
     22 C          49.6886    7.8399  -28.7140 C.ar    1  UNL1        0.0063
     23 C          50.4040    8.7568  -27.9336 C.ar    1  UNL1        0.0179
     24 C          49.9269    9.1803  -26.6869 C.ar    1  UNL1        0.0016
     25 C          50.6628   10.0964  -25.9300 C.ar    1  UNL1        0.0046
     26 C          51.8811   10.6096  -26.4112 C.ar    1  UNL1        0.0551
     27 C          52.3644   10.1720  -27.6575 C.ar    1  UNL1        0.0237
     28 C          51.6315    9.2555  -28.4192 C.ar    1  UNL1        0.0845
     29 N          52.0997    8.8436  -29.6280 N.ar    1  UNL1       -0.2117
     30 C          51.2363    6.6223  -32.4801 C.3     1  UNL1        0.2542
     31 O          51.9184    7.5450  -31.6390 O.3     1  UNL1       -0.4561
     32 C          48.4752   12.1992  -18.1199 C.3     1  UNL1        0.0871
     33 C          49.7085   11.4551  -17.5705 C.3     1  UNL1        0.0244
     34 C          48.1303   13.3350  -17.1263 C.3     1  UNL1        0.0244
     35 C          47.2610   11.2531  -18.1940 C.3     1  UNL1        0.0244
@<TRIPOS>BOND
     1    30    31    1
     2    31    20    1
     3    20    21   ar
     4    21    22   ar
     5    22    23   ar
     6    23    24   ar
     7    24    25   ar
     8    25    26   ar
     9    26     1    1
    10     1     2    2
    11     1     3   am
    12     3     4    1
    13     4     5    1
    14     5     6    1
    15     6     7    1
    16     7     8    1
    17     6     9    1
    18     9    10    1
    19    10    11   ar
    20    11    12   ar
    21    12    13   ar
    22    13    32    1
    23    32    33    1
    24    32    34    1
    25    32    35    1
    26    13    14   ar
    27    14    15    1
    28    11    16    1
    29    16    17    2
    30    16    18   am
    31    26    27   ar
    32    27    28   ar
    33    28    29   ar
    34    29    20   ar
    35    28    23   ar
    36     8     3    1
    37    14    10   ar
    38    18     6    1
    39    18    19    1
@<TRIPOS>MOLECULE
*****
 35 39 0 0 0
SMALL
GASTEIGER

@<TRIPOS>ATOM
      1 C          50.4758    8.7007  -25.8071 C.2     1  UNL1        0.2491
      2 O          49.6250    7.8577  -25.4108 O.2     1  UNL1       -0.2699
      3 N          50.9731    9.6861  -24.8826 N.am    1  UNL1       -0.2760
      4 C          52.4131    9.9443  -24.7700 C.3     1  UNL1        0.0954
      5 C          52.7081   11.4537  -24.6620 C.3     1  UNL1        0.0399
      6 C          51.5384   12.3015  -24.0619 C.3     1  UNL1        0.0645
      7 C          50.6800   11.4150  -23.1197 C.3     1  UNL1        0.0399
      8 C          50.0768   10.1954  -23.8375 C.3     1  UNL1        0.0954
      9 C          50.6573   12.8858  -25.2285 C.3     1  UNL1        0.0481
     10 C          49.7606   13.9776  -24.7271 C.ar    1  UNL1        0.0259
     11 C          50.1094   14.8001  -23.7067 C.ar    1  UNL1        0.1519
     12 N          49.2164   15.7917  -23.5713 N.ar    1  UNL1       -0.1647
     13 N          48.2880   15.6229  -24.5110 N.ar    1  UNL1       -0.2494
     14 C          48.6085   14.5211  -25.2543 C.ar    1  UNL1        0.1047
     15 I          47.6319   13.7281  -26.9663 I       1  UNL1       -0.0219
     16 C          51.3304   14.5813  -22.9462 C.2     1  UNL1        0.2650
     17 O          51.7055   15.3952  -22.0615 O.2     1  UNL1       -0.2684
     18 N          52.1034   13.4079  -23.2481 N.am    1  UNL1       -0.3023
     19 H          52.9751   13.2506  -22.6931 H       1  UNL1        0.1497
     20 C          50.3895    6.9636  -31.6929 C.ar    1  UNL1        0.2249
     21 C          51.4475    7.7538  -32.1527 C.ar    1  UNL1        0.0577
     22 C          52.1224    8.5912  -31.2620 C.ar    1  UNL1        0.0063
     23 C          51.7357    8.6327  -29.9166 C.ar    1  UNL1        0.0179
     24 C          52.3880    9.4631  -28.9967 C.ar    1  UNL1        0.0016
     25 C          51.9799    9.4836  -27.6600 C.ar    1  UNL1        0.0046
     26 C          50.9206    8.6685  -27.2210 C.ar    1  UNL1        0.0551
     27 C          50.2586    7.8458  -28.1500 C.ar    1  UNL1        0.0237
     28 C          50.6634    7.8212  -29.4889 C.ar    1  UNL1        0.0845
     29 N          50.0252    7.0161  -30.3804 N.ar    1  UNL1       -0.2117
     30 C          48.2998    6.1064  -32.7062 C.3     1  UNL1        0.2542
     31 O          49.7174    6.1276  -32.5893 O.3     1  UNL1       -0.4561
     32 C          47.1393   16.5480  -24.6738 C.3     1  UNL1        0.0871
     33 C          45.8477   15.7539  -24.9528 C.3     1  UNL1        0.0244
     34 C          46.9199   17.3609  -23.3748 C.3     1  UNL1        0.0244
     35 C          47.4172   17.5472  -25.8137 C.3     1  UNL1        0.0244
@<TRIPOS>BOND
     1    30    31    1
     2    31    20    1
     3    20    21   ar
     4    21    22   ar
     5    22    23   ar
     6    23    24   ar
     7    24    25   ar
     8    25    26   ar
     9    26     1    1
    10     1     2    2
    11     1     3   am
    12     3     4    1
    13     4     5    1
    14     5     6    1
    15     6     7    1
    16     7     8    1
    17     6     9    1
    18     9    10    1
    19    10    11   ar
    20    11    12   ar
    21    12    13   ar
    22    13    32    1
    23    32    33    1
    24    32    34    1
    25    32    35    1
    26    13    14   ar
    27    14    15    1
    28    11    16    1
    29    16    17    2
    30    16    18   am
    31    26    27   ar
    32    27    28   ar
    33    28    29   ar
    34    29    20   ar
    35    28    23   ar
    36     8     3    1
    37    14    10   ar
    38    18     6    1
    39    18    19    1
@<TRIPOS>MOLECULE
*****
 35 39 0 0 0
SMALL
GASTEIGER

@<TRIPOS>ATOM
      1 C          49.2066   10.4075  -22.7218 C.2     1  UNL1        0.2491
      2 O          50.0698    9.6621  -23.2614 O.2     1  UNL1       -0.2699
      3 N          48.1977   11.0242  -23.5433 N.am    1  UNL1       -0.2760
      4 C          46.7849   10.9792  -23.1499 C.3     1  UNL1        0.0954
      5 C          46.0899   12.3345  -23.3896 C.3     1  UNL1        0.0399
      6 C          46.7378   13.2049  -24.5163 C.3     1  UNL1        0.0645
      7 C          47.4415   12.2839  -25.5492 C.3     1  UNL1        0.0399
      8 C          48.5400   11.4122  -24.9170 C.3     1  UNL1        0.0954
      9 C          47.7673   14.2115  -23.8793 C.3     1  UNL1        0.0481
     10 C          48.1360   15.2890  -24.8543 C.ar    1  UNL1        0.0259
     11 C          47.2732   15.7541  -25.7917 C.ar    1  UNL1        0.1519
     12 N          47.7838   16.8265  -26.4148 N.ar    1  UNL1       -0.1647
     13 N          48.9777   17.0689  -25.8771 N.ar    1  UNL1       -0.2494
     14 C          49.2142   16.1472  -24.8953 C.ar    1  UNL1        0.1047
     15 I          50.8655   15.9967  -23.5671 I       1  UNL1       -0.0219
     16 C          45.9722   15.1342  -25.9919 C.2     1  UNL1        0.2650
     17 O          45.1318   15.6199  -26.7942 O.2     1  UNL1       -0.2684
     18 N          45.6721   13.9520  -25.2314 N.am    1  UNL1       -0.3023
     19 H          44.7396   13.5054  -25.3851 H       1  UNL1        0.1497
     20 C          48.2034   13.4117  -17.4648 C.ar    1  UNL1        0.2249
     21 C          48.8094   12.5018  -16.5929 C.ar    1  UNL1        0.0577
     22 C          49.3870   11.3368  -17.1019 C.ar    1  UNL1        0.0063
     23 C          49.3557   11.0889  -18.4800 C.ar    1  UNL1        0.0179
     24 C          49.9220    9.9295  -19.0244 C.ar    1  UNL1        0.0016
     25 C          49.8755    9.7089  -20.4039 C.ar    1  UNL1        0.0046
     26 C          49.2711   10.6473  -21.2603 C.ar    1  UNL1        0.0551
     27 C          48.6912   11.8040  -20.7091 C.ar    1  UNL1        0.0237
     28 C          48.7353   12.0298  -19.3291 C.ar    1  UNL1        0.0845
     29 N          48.1811   13.1553  -18.8034 N.ar    1  UNL1       -0.2117
     30 C          47.6047   14.8727  -15.5582 C.3     1  UNL1        0.2542
     31 O          47.6267   14.5761  -16.9494 O.3     1  UNL1       -0.4561
     32 C          49.8351   18.1989  -26.3128 C.3     1  UNL1        0.0871
     33 C          49.1096   19.0402  -27.3817 C.3     1  UNL1        0.0244
     34 C          50.1444   19.1278  -25.1137 C.3     1  UNL1        0.0244
     35 C          51.1762   17.6709  -26.8581 C.3     1  UNL1        0.0244
@<TRIPOS>BOND
     1    30    31    1
     2    31    20    1
     3    20    21   ar
     4    21    22   ar
     5    22    23   ar
     6    23    24   ar
     7    24    25   ar
     8    25    26   ar
     9    26     1    1
    10     1     2    2
    11     1     3   am
    12     3     4    1
    13     4     5    1
    14     5     6    1
    15     6     7    1
    16     7     8    1
    17     6     9    1
    18     9    10    1
    19    10    11   ar
    20    11    12   ar
    21    12    13   ar
    22    13    32    1
    23    32    33    1
    24    32    34    1
    25    32    35    1
    26    13    14   ar
    27    14    15    1
    28    11    16    1
    29    16    17    2
    30    16    18   am
    31    26    27   ar
    32    27    28   ar
    33    28    29   ar
    34    29    20   ar
    35    28    23   ar
    36     8     3    1
    37    14    10   ar
    38    18     6    1
    39    18    19    1
@<TRIPOS>MOLECULE
*****
 35 39 0 0 0
SMALL
GASTEIGER

@<TRIPOS>ATOM
      1 C          51.1009   12.5280  -21.1928 C.2     1  UNL1        0.2491
      2 O          52.2841   12.9533  -21.2973 O.2     1  UNL1       -0.2699
      3 N          50.4672   11.9239  -22.3358 N.am    1  UNL1       -0.2760
      4 C          49.7557   10.6471  -22.2068 C.3     1  UNL1        0.0954
      5 C          48.4306   10.6583  -22.9949 C.3     1  UNL1        0.0399
      6 C          48.4074   11.6433  -24.2099 C.3     1  UNL1        0.0645
      7 C          49.8507   11.8496  -24.7435 C.3     1  UNL1        0.0399
      8 C          50.8033   12.4168  -23.6771 C.3     1  UNL1        0.0954
      9 C          47.7795   13.0166  -23.7642 C.3     1  UNL1        0.0481
     10 C          47.4102   13.8483  -24.9556 C.ar    1  UNL1        0.0259
     11 C          47.0068   13.3046  -26.1308 C.ar    1  UNL1        0.1519
     12 N          46.5714   14.2573  -26.9686 N.ar    1  UNL1       -0.1647
     13 N          46.6808   15.4243  -26.3365 N.ar    1  UNL1       -0.2494
     14 C          47.1773   15.2012  -25.0823 C.ar    1  UNL1        0.1047
     15 I          47.5122   16.5866  -23.5068 I       1  UNL1       -0.0219
     16 C          47.0377   11.8659  -26.3454 C.2     1  UNL1        0.2650
     17 O          46.5767   11.3507  -27.3980 O.2     1  UNL1       -0.2684
     18 N          47.6024   11.0482  -25.3069 N.am    1  UNL1       -0.3023
     19 H          47.6303   10.0161  -25.4694 H       1  UNL1        0.1497
     20 C          50.2848   12.0834  -15.1262 C.ar    1  UNL1        0.2249
     21 C          49.0303   12.6957  -15.0453 C.ar    1  UNL1        0.0577
     22 C          48.4138   13.1642  -16.2074 C.ar    1  UNL1        0.0063
     23 C          49.0552   13.0168  -17.4436 C.ar    1  UNL1        0.0179
     24 C          48.4679   13.4777  -18.6284 C.ar    1  UNL1        0.0016
     25 C          49.1319   13.3168  -19.8478 C.ar    1  UNL1        0.0046
     26 C          50.3878   12.6852  -19.9026 C.ar    1  UNL1        0.0551
     27 C          50.9813   12.2356  -18.7094 C.ar    1  UNL1        0.0237
     28 C          50.3207   12.3939  -17.4864 C.ar    1  UNL1        0.0845
     29 N          50.8959   11.9482  -16.3371 N.ar    1  UNL1       -0.2117
     30 C          52.0468   12.2349  -13.3940 C.3     1  UNL1        0.2542
     31 O          50.8970   11.6167  -13.9594 O.3     1  UNL1       -0.4561
     32 C          46.2762   16.7097  -26.9575 C.3     1  UNL1        0.0871
     33 C          47.4765   17.3591  -27.6747 C.3     1  UNL1        0.0244
     34 C          45.1717   16.4678  -28.0148 C.3     1  UNL1        0.0244
     35 C          45.7049   17.6615  -25.8886 C.3     1  UNL1        0.0244
@<TRIPOS>BOND
     1    30    31    1
     2    31    20    1
     3    20    21   ar
     4    21    22   ar
     5    22    23   ar
     6    23    24   ar
     7    24    25   ar
     8    25    26   ar
     9    26     1    1
    10     1     2    2
    11     1     3   am
    12     3     4    1
    13     4     5    1
    14     5     6    1
    15     6     7    1
    16     7     8    1
    17     6     9    1
    18     9    10    1
    19    10    11   ar
    20    11    12   ar
    21    12    13   ar
    22    13    32    1
    23    32    33    1
    24    32    34    1
    25    32    35    1
    26    13    14   ar
    27    14    15    1
    28    11    16    1
    29    16    17    2
    30    16    18   am
    31    26    27   ar
    32    27    28   ar
    33    28    29   ar
    34    29    20   ar
    35    28    23   ar
    36     8     3    1
    37    14    10   ar
    38    18     6    1
    39    18    19    1
