@<TRIPOS>MOLECULE
*****
 34 35 0 0 0
SMALL
GASTEIGER

@<TRIPOS>ATOM
      1 C         -23.3252   -8.4580  -14.2360 C.3     1  UNL1        0.1755
      2 C         -22.0201   -8.0000  -14.8833 C.3     1  UNL1        0.0777
      3 C         -22.1512   -8.0880  -16.4131 C.3     1  UNL1        0.1358
      4 O         -22.9803   -7.0637  -16.8963 O.3     1  UNL1       -0.3799
      5 C         -22.7170   -9.4154  -16.8484 C.2     1  UNL1       -0.0015
      6 C         -23.3941  -10.2446  -16.0290 C.2     1  UNL1       -0.0213
      7 C         -23.6621  -11.6169  -16.4960 C.2     1  UNL1       -0.0090
      8 C         -23.6100  -12.6476  -15.6454 C.2     1  UNL1       -0.0268
      9 C         -23.4224  -12.4737  -14.1509 C.3     1  UNL1        0.0224
     10 C         -24.7716  -12.7665  -13.4622 C.3     1  UNL1        0.0047
     11 C         -22.8012  -11.0764  -13.7863 C.3     1  UNL1        0.0116
     12 C         -23.6009   -9.9581  -14.5454 C.3     1  UNL1        0.0626
     13 H         -22.4512   -6.2242  -16.8587 H       1  UNL1        0.2108
     14 O         -23.3336   -8.1533  -12.8431 O.3     1  UNL1       -0.4518
     15 C         -24.3948   -7.5047  -12.1984 C.2     1  UNL1        0.3163
     16 O         -24.3257   -6.2743  -11.9252 O.2     1  UNL1       -0.2501
     17 C         -25.5920   -8.3131  -11.7735 C.3     1  UNL1        0.0991
     18 C         -25.4021   -8.7783  -10.3272 C.3     1  UNL1        0.0116
     19 C         -27.5128   -7.6498  -13.3247 C.3     1  UNL1        0.0006
     20 C         -26.9167   -7.5329  -11.9216 C.3     1  UNL1        0.0111
     21 C         -22.6568  -10.9238  -12.2450 C.3     1  UNL1        0.0033
     22 C         -21.2971  -11.3945  -11.6753 C.3     1  UNL1        0.0293
     23 C         -20.6669  -10.4873  -10.5723 C.3     1  UNL1        0.1130
     24 O         -19.4848   -9.8711  -11.0203 O.3     1  UNL1       -0.3844
     25 H         -18.7499  -10.5285  -10.9018 H       1  UNL1        0.2103
     26 C         -21.6296   -9.3866  -10.0738 C.3     1  UNL1        0.0590
     27 C         -21.0465   -7.9539  -10.1745 C.3     1  UNL1        0.1241
     28 O         -20.9580   -7.5452  -11.5173 O.3     1  UNL1       -0.3838
     29 H         -21.8777   -7.5465  -11.8926 H       1  UNL1        0.2104
     30 C         -21.8873   -6.9365   -9.3773 C.3     1  UNL1        0.1385
     31 C         -21.6448   -5.5294   -9.8317 C.2     1  UNL1        0.3163
     32 O         -21.1702   -4.6802   -9.0308 O.2     1  UNL1       -0.2502
     33 O         -21.9709   -5.1543  -11.1312 O.3     1  UNL1       -0.4801
     34 H         -21.8206   -4.2056  -11.4520 H       1  UNL1        0.2951
@<TRIPOS>BOND
     1    19    20    1
     2    20    17    1
     3    17    18    1
     4    17    15    1
     5    15    16    2
     6    15    14    1
     7    14     1    1
     8     1     2    1
     9     2     3    1
    10     3     4    1
    11     3     5    1
    12     5     6    2
    13     6     7    1
    14     7     8    2
    15     8     9    1
    16     9    10    1
    17     9    11    1
    18    11    21    1
    19    21    22    1
    20    22    23    1
    21    23    24    1
    22    23    26    1
    23    26    27    1
    24    27    28    1
    25    27    30    1
    26    30    31    1
    27    31    32    2
    28    31    33    1
    29    11    12    1
    30    12     1    1
    31    12     6    1
    32     4    13    1
    33    24    25    1
    34    28    29    1
    35    33    34    1
@<TRIPOS>MOLECULE
*****
 34 35 0 0 0
SMALL
GASTEIGER

@<TRIPOS>ATOM
      1 C         -23.7130   -8.8454  -14.4364 C.3     1  UNL1        0.1755
      2 C         -22.5563   -7.9074  -14.7746 C.3     1  UNL1        0.0777
      3 C         -22.4522   -7.7561  -16.3016 C.3     1  UNL1        0.1358
      4 O         -23.5000   -6.9603  -16.7904 O.3     1  UNL1       -0.3799
      5 C         -22.4928   -9.0922  -16.9979 C.2     1  UNL1       -0.0015
      6 C         -22.9627  -10.2193  -16.4266 C.2     1  UNL1       -0.0213
      7 C         -22.7056  -11.5020  -17.1062 C.2     1  UNL1       -0.0090
      8 C         -22.4310  -12.6035  -16.3994 C.2     1  UNL1       -0.0268
      9 C         -22.5056  -12.6510  -14.8857 C.3     1  UNL1        0.0224
     10 C         -23.7628  -13.4550  -14.4939 C.3     1  UNL1        0.0047
     11 C         -22.4268  -11.2202  -14.2394 C.3     1  UNL1        0.0116
     12 C         -23.4420  -10.2782  -14.9801 C.3     1  UNL1        0.0626
     13 H         -23.2831   -6.0213  -16.5511 H       1  UNL1        0.2108
     14 O         -24.0007   -8.8114  -13.0403 O.3     1  UNL1       -0.4518
     15 C         -25.2407   -8.4269  -12.5141 C.2     1  UNL1        0.3163
     16 O         -25.5746   -8.7624  -11.3438 O.2     1  UNL1       -0.2501
     17 C         -26.1993   -7.6656  -13.3908 C.3     1  UNL1        0.0991
     18 C         -27.6302   -7.8960  -12.8970 C.3     1  UNL1        0.0116
     19 C         -26.4420   -5.3951  -12.2413 C.3     1  UNL1        0.0006
     20 C         -25.8819   -6.1550  -13.4440 C.3     1  UNL1        0.0111
     21 C         -22.5410  -11.3090  -12.6906 C.3     1  UNL1        0.0033
     22 C         -21.2176  -11.6519  -11.9653 C.3     1  UNL1        0.0293
     23 C         -20.7346  -10.6188  -10.8994 C.3     1  UNL1        0.1130
     24 O         -19.4101  -10.8682  -10.4981 O.3     1  UNL1       -0.3844
     25 H         -19.4444  -11.5743   -9.8006 H       1  UNL1        0.2103
     26 C         -20.8260   -9.1570  -11.3912 C.3     1  UNL1        0.0590
     27 C         -21.5632   -8.2120  -10.4082 C.3     1  UNL1        0.1241
     28 O         -22.8698   -7.9475  -10.8564 O.3     1  UNL1       -0.3838
     29 H         -23.3544   -8.8137  -10.8964 H       1  UNL1        0.2104
     30 C         -21.6128   -8.7959   -8.9819 C.3     1  UNL1        0.1385
     31 C         -23.0194   -8.9788   -8.4989 C.2     1  UNL1        0.3163
     32 O         -23.7651   -9.8401   -9.0375 O.2     1  UNL1       -0.2502
     33 O         -23.5103   -8.1767   -7.4734 O.3     1  UNL1       -0.4801
     34 H         -24.4609   -8.2821   -7.1403 H       1  UNL1        0.2951
@<TRIPOS>BOND
     1    19    20    1
     2    20    17    1
     3    17    18    1
     4    17    15    1
     5    15    16    2
     6    15    14    1
     7    14     1    1
     8     1     2    1
     9     2     3    1
    10     3     4    1
    11     3     5    1
    12     5     6    2
    13     6     7    1
    14     7     8    2
    15     8     9    1
    16     9    10    1
    17     9    11    1
    18    11    21    1
    19    21    22    1
    20    22    23    1
    21    23    24    1
    22    23    26    1
    23    26    27    1
    24    27    28    1
    25    27    30    1
    26    30    31    1
    27    31    32    2
    28    31    33    1
    29    11    12    1
    30    12     1    1
    31    12     6    1
    32     4    13    1
    33    24    25    1
    34    28    29    1
    35    33    34    1
@<TRIPOS>MOLECULE
*****
 34 35 0 0 0
SMALL
GASTEIGER

@<TRIPOS>ATOM
      1 C         -23.4830   -8.6702  -14.3631 C.3     1  UNL1        0.1755
      2 C         -22.1402   -8.2236  -14.9372 C.3     1  UNL1        0.0777
      3 C         -22.1886   -8.3071  -16.4722 C.3     1  UNL1        0.1358
      4 O         -22.9803   -7.2737  -16.9970 O.3     1  UNL1       -0.3799
      5 C         -22.7427   -9.6281  -16.9411 C.2     1  UNL1       -0.0015
      6 C         -23.4713  -10.4523  -16.1619 C.2     1  UNL1       -0.0213
      7 C         -23.7266  -11.8210  -16.6465 C.2     1  UNL1       -0.0090
      8 C         -23.7309  -12.8539  -15.7971 C.2     1  UNL1       -0.0268
      9 C         -23.6232  -12.6850  -14.2940 C.3     1  UNL1        0.0224
     10 C         -25.0107  -12.9661  -13.6806 C.3     1  UNL1        0.0047
     11 C         -23.0094  -11.2946  -13.8926 C.3     1  UNL1        0.0116
     12 C         -23.7559  -10.1669  -14.6911 C.3     1  UNL1        0.0626
     13 H         -22.4460   -6.4395  -16.9285 H       1  UNL1        0.2108
     14 O         -23.5643   -8.3685  -12.9719 O.3     1  UNL1       -0.4518
     15 C         -24.5930   -7.6061  -12.4036 C.2     1  UNL1        0.3163
     16 O         -24.5559   -7.2840  -11.1836 O.2     1  UNL1       -0.2501
     17 C         -25.7792   -7.2350  -13.2535 C.3     1  UNL1        0.0991
     18 C         -27.0030   -8.0302  -12.7906 C.3     1  UNL1        0.0116
     19 C         -26.6889   -5.2188  -14.5350 C.3     1  UNL1        0.0006
     20 C         -26.0766   -5.7197  -13.2266 C.3     1  UNL1        0.0111
     21 C         -22.9476  -11.1466  -12.3453 C.3     1  UNL1        0.0033
     22 C         -21.5167  -11.1274  -11.7562 C.3     1  UNL1        0.0293
     23 C         -21.1192   -9.8402  -10.9677 C.3     1  UNL1        0.1130
     24 O         -21.0032   -8.7260  -11.8178 O.3     1  UNL1       -0.3844
     25 H         -20.0967   -8.7603  -12.2221 H       1  UNL1        0.2103
     26 C         -22.1173   -9.4901   -9.8415 C.3     1  UNL1        0.0590
     27 C         -21.5517   -8.5010   -8.7905 C.3     1  UNL1        0.1241
     28 O         -22.2892   -8.5688   -7.5949 O.3     1  UNL1       -0.3838
     29 H         -22.2073   -9.4945   -7.2439 H       1  UNL1        0.2104
     30 C         -20.0619   -8.7686   -8.4965 C.3     1  UNL1        0.1385
     31 C         -19.5925   -8.0438   -7.2720 C.2     1  UNL1        0.3163
     32 O         -20.1431   -8.2613   -6.1595 O.2     1  UNL1       -0.2502
     33 O         -18.5663   -7.1093   -7.3698 O.3     1  UNL1       -0.4801
     34 H         -18.2423   -6.6052   -6.5535 H       1  UNL1        0.2951
@<TRIPOS>BOND
     1    19    20    1
     2    20    17    1
     3    17    18    1
     4    17    15    1
     5    15    16    2
     6    15    14    1
     7    14     1    1
     8     1     2    1
     9     2     3    1
    10     3     4    1
    11     3     5    1
    12     5     6    2
    13     6     7    1
    14     7     8    2
    15     8     9    1
    16     9    10    1
    17     9    11    1
    18    11    21    1
    19    21    22    1
    20    22    23    1
    21    23    24    1
    22    23    26    1
    23    26    27    1
    24    27    28    1
    25    27    30    1
    26    30    31    1
    27    31    32    2
    28    31    33    1
    29    11    12    1
    30    12     1    1
    31    12     6    1
    32     4    13    1
    33    24    25    1
    34    28    29    1
    35    33    34    1
@<TRIPOS>MOLECULE
*****
 34 35 0 0 0
SMALL
GASTEIGER

@<TRIPOS>ATOM
      1 C         -25.1425   -8.8718  -10.6864 C.3     1  UNL1        0.1755
      2 C         -25.0600  -10.3504  -10.3134 C.3     1  UNL1        0.0777
      3 C         -24.6559  -10.4816   -8.8352 C.3     1  UNL1        0.1358
      4 O         -25.7256  -10.1271   -7.9986 O.3     1  UNL1       -0.3799
      5 C         -23.4711   -9.6114   -8.5022 C.2     1  UNL1       -0.0015
      6 C         -23.0753   -8.5664   -9.2563 C.2     1  UNL1       -0.0213
      7 C         -21.7595   -7.9646   -8.9738 C.2     1  UNL1       -0.0090
      8 C         -20.9830   -7.5272   -9.9708 C.2     1  UNL1       -0.0268
      9 C         -21.4436   -7.4825  -11.4148 C.3     1  UNL1        0.0224
     10 C         -21.7018   -6.0081  -11.7889 C.3     1  UNL1        0.0047
     11 C         -22.6616   -8.4394  -11.6823 C.3     1  UNL1        0.0116
     12 C         -23.7465   -8.1930  -10.5738 C.3     1  UNL1        0.0626
     13 H         -26.3723  -10.8803   -8.0245 H       1  UNL1        0.2108
     14 O         -25.7549   -8.7053  -11.9632 O.3     1  UNL1       -0.4518
     15 C         -26.8862   -7.9085  -12.1816 C.2     1  UNL1        0.3163
     16 O         -27.7991   -7.8360  -11.3128 O.2     1  UNL1       -0.2501
     17 C         -27.0302   -7.1937  -13.4990 C.3     1  UNL1        0.0991
     18 C         -28.5019   -7.2008  -13.9214 C.3     1  UNL1        0.0116
     19 C         -26.6970   -4.9996  -14.7680 C.3     1  UNL1        0.0006
     20 C         -26.4878   -5.7483  -13.4514 C.3     1  UNL1        0.0111
     21 C         -23.1251   -8.3391  -13.1638 C.3     1  UNL1        0.0033
     22 C         -22.7528   -9.5594  -14.0397 C.3     1  UNL1        0.0293
     23 C         -23.9393  -10.4749  -14.4766 C.3     1  UNL1        0.1130
     24 O         -23.8454  -10.8340  -15.8329 O.3     1  UNL1       -0.3844
     25 H         -24.2274  -10.0844  -16.3606 H       1  UNL1        0.2103
     26 C         -24.0439  -11.7682  -13.6378 C.3     1  UNL1        0.0590
     27 C         -25.2598  -12.6559  -14.0073 C.3     1  UNL1        0.1241
     28 O         -25.9966  -12.0797  -15.0576 O.3     1  UNL1       -0.3838
     29 H         -25.3947  -12.0126  -15.8449 H       1  UNL1        0.2104
     30 C         -24.8280  -14.0833  -14.3993 C.3     1  UNL1        0.1385
     31 C         -24.8327  -14.2833  -15.8843 C.2     1  UNL1        0.3163
     32 O         -25.2727  -15.3572  -16.3754 O.2     1  UNL1       -0.2502
     33 O         -24.3243  -13.2931  -16.7190 O.3     1  UNL1       -0.4801
     34 H         -24.3130  -13.4154  -17.7243 H       1  UNL1        0.2951
@<TRIPOS>BOND
     1    19    20    1
     2    20    17    1
     3    17    18    1
     4    17    15    1
     5    15    16    2
     6    15    14    1
     7    14     1    1
     8     1     2    1
     9     2     3    1
    10     3     4    1
    11     3     5    1
    12     5     6    2
    13     6     7    1
    14     7     8    2
    15     8     9    1
    16     9    10    1
    17     9    11    1
    18    11    21    1
    19    21    22    1
    20    22    23    1
    21    23    24    1
    22    23    26    1
    23    26    27    1
    24    27    28    1
    25    27    30    1
    26    30    31    1
    27    31    32    2
    28    31    33    1
    29    11    12    1
    30    12     1    1
    31    12     6    1
    32     4    13    1
    33    24    25    1
    34    28    29    1
    35    33    34    1
@<TRIPOS>MOLECULE
*****
 34 35 0 0 0
SMALL
GASTEIGER

@<TRIPOS>ATOM
      1 C         -23.1512   -8.5104  -14.3412 C.3     1  UNL1        0.1755
      2 C         -21.7352   -8.1615  -14.7947 C.3     1  UNL1        0.0777
      3 C         -21.6737   -8.1760  -16.3314 C.3     1  UNL1        0.1358
      4 O         -22.3317   -7.0551  -16.8613 O.3     1  UNL1       -0.3799
      5 C         -22.3017   -9.4215  -16.9024 C.2     1  UNL1       -0.0015
      6 C         -23.1555  -10.2095  -16.2187 C.2     1  UNL1       -0.0213
      7 C         -23.4897  -11.5284  -16.7860 C.2     1  UNL1       -0.0090
      8 C         -23.6471  -12.5916  -15.9901 C.2     1  UNL1       -0.0268
      9 C         -23.6400  -12.4960  -14.4769 C.3     1  UNL1        0.0224
     10 C         -25.0891  -12.6778  -13.9794 C.3     1  UNL1        0.0047
     11 C         -22.9416  -11.1839  -13.9653 C.3     1  UNL1        0.0116
     12 C         -23.5256   -9.9617  -14.7601 C.3     1  UNL1        0.0626
     13 H         -21.7346   -6.2754  -16.7142 H       1  UNL1        0.2108
     14 O         -23.3119   -8.2611  -12.9466 O.3     1  UNL1       -0.4518
     15 C         -23.8254   -7.0656  -12.4275 C.2     1  UNL1        0.3163
     16 O         -23.0654   -6.0828  -12.2038 O.2     1  UNL1       -0.2501
     17 C         -25.2875   -6.9934  -12.0749 C.3     1  UNL1        0.0991
     18 C         -25.8330   -5.6140  -12.4546 C.3     1  UNL1        0.0116
     19 C         -27.6192   -7.8332  -12.7018 C.3     1  UNL1        0.0006
     20 C         -26.1159   -8.1078  -12.7510 C.3     1  UNL1        0.0111
     21 C         -22.9853  -11.1070  -12.4123 C.3     1  UNL1        0.0033
     22 C         -21.6019  -10.9560  -11.7352 C.3     1  UNL1        0.0293
     23 C         -21.6174  -10.5016  -10.2419 C.3     1  UNL1        0.1130
     24 O         -20.3540  -10.0460   -9.8251 O.3     1  UNL1       -0.3844
     25 H         -19.8218  -10.8471   -9.5775 H       1  UNL1        0.2103
     26 C         -22.6521   -9.3894   -9.9604 C.3     1  UNL1        0.0590
     27 C         -23.6858   -9.7600   -8.8663 C.3     1  UNL1        0.1241
     28 O         -23.9551   -8.6542   -8.0401 O.3     1  UNL1       -0.3838
     29 H         -24.3345   -7.9369   -8.6130 H       1  UNL1        0.2104
     30 C         -25.0015  -10.2840   -9.4761 C.3     1  UNL1        0.1385
     31 C         -26.2021   -9.6135   -8.8811 C.2     1  UNL1        0.3163
     32 O         -26.6081   -8.5155   -9.3475 O.2     1  UNL1       -0.2502
     33 O         -26.8516  -10.1909   -7.7945 O.3     1  UNL1       -0.4801
     34 H         -27.6597   -9.7470   -7.3756 H       1  UNL1        0.2951
@<TRIPOS>BOND
     1    19    20    1
     2    20    17    1
     3    17    18    1
     4    17    15    1
     5    15    16    2
     6    15    14    1
     7    14     1    1
     8     1     2    1
     9     2     3    1
    10     3     4    1
    11     3     5    1
    12     5     6    2
    13     6     7    1
    14     7     8    2
    15     8     9    1
    16     9    10    1
    17     9    11    1
    18    11    21    1
    19    21    22    1
    20    22    23    1
    21    23    24    1
    22    23    26    1
    23    26    27    1
    24    27    28    1
    25    27    30    1
    26    30    31    1
    27    31    32    2
    28    31    33    1
    29    11    12    1
    30    12     1    1
    31    12     6    1
    32     4    13    1
    33    24    25    1
    34    28    29    1
    35    33    34    1
@<TRIPOS>MOLECULE
*****
 34 35 0 0 0
SMALL
GASTEIGER

@<TRIPOS>ATOM
      1 C         -23.2113  -12.0510  -13.5509 C.3     1  UNL1        0.1755
      2 C         -24.6446  -12.5760  -13.6004 C.3     1  UNL1        0.0777
      3 C         -24.8109  -13.4899  -14.8261 C.3     1  UNL1        0.1358
      4 O         -24.1595  -14.7158  -14.6187 O.3     1  UNL1       -0.3799
      5 C         -24.2583  -12.8527  -16.0753 C.2     1  UNL1       -0.0015
      6 C         -23.3823  -11.8280  -16.0674 C.2     1  UNL1       -0.0213
      7 C         -23.1246  -11.1245  -17.3370 C.2     1  UNL1       -0.0090
      8 C         -22.9431   -9.7997  -17.3562 C.2     1  UNL1       -0.0268
      9 C         -22.8445   -8.9633  -16.0953 C.3     1  UNL1        0.0224
     10 C         -21.3706   -8.5455  -15.9126 C.3     1  UNL1        0.0047
     11 C         -23.4696   -9.6881  -14.8483 C.3     1  UNL1        0.0116
     12 C         -22.9070  -11.1531  -14.7851 C.3     1  UNL1        0.0626
     13 H         -24.7231  -15.2376  -13.9894 H       1  UNL1        0.2108
     14 O         -22.9492  -11.4118  -12.3036 O.3     1  UNL1       -0.4518
     15 C         -21.6876  -11.3892  -11.6950 C.2     1  UNL1        0.3163
     16 O         -20.7729  -12.1683  -12.0820 O.2     1  UNL1       -0.2501
     17 C         -21.4599  -10.4692  -10.5249 C.3     1  UNL1        0.0991
     18 C         -20.4401   -9.3958  -10.9150 C.3     1  UNL1        0.0116
     19 C         -22.6208   -9.2181   -8.6217 C.3     1  UNL1        0.0006
     20 C         -22.7661   -9.8169  -10.0209 C.3     1  UNL1        0.0111
     21 C         -23.3181   -8.8138  -13.5706 C.3     1  UNL1        0.0033
     22 C         -24.3683   -7.6855  -13.4336 C.3     1  UNL1        0.0293
     23 C         -24.1318   -6.6686  -12.2730 C.3     1  UNL1        0.1130
     24 O         -24.7787   -7.0709  -11.0909 O.3     1  UNL1       -0.3844
     25 H         -25.7241   -6.7746  -11.1601 H       1  UNL1        0.2103
     26 C         -22.6352   -6.4503  -11.9576 C.3     1  UNL1        0.0590
     27 C         -22.3109   -5.0347  -11.4157 C.3     1  UNL1        0.1241
     28 O         -23.4019   -4.5142  -10.6970 O.3     1  UNL1       -0.3838
     29 H         -23.5736   -5.1219   -9.9302 H       1  UNL1        0.2104
     30 C         -21.0551   -5.0384  -10.5210 C.3     1  UNL1        0.1385
     31 C         -21.3698   -5.4455   -9.1137 C.2     1  UNL1        0.3163
     32 O         -20.8494   -6.4842   -8.6255 O.2     1  UNL1       -0.2502
     33 O         -22.2595   -4.6907   -8.3559 O.3     1  UNL1       -0.4801
     34 H         -22.4890   -4.9561   -7.4059 H       1  UNL1        0.2951
@<TRIPOS>BOND
     1    19    20    1
     2    20    17    1
     3    17    18    1
     4    17    15    1
     5    15    16    2
     6    15    14    1
     7    14     1    1
     8     1     2    1
     9     2     3    1
    10     3     4    1
    11     3     5    1
    12     5     6    2
    13     6     7    1
    14     7     8    2
    15     8     9    1
    16     9    10    1
    17     9    11    1
    18    11    21    1
    19    21    22    1
    20    22    23    1
    21    23    24    1
    22    23    26    1
    23    26    27    1
    24    27    28    1
    25    27    30    1
    26    30    31    1
    27    31    32    2
    28    31    33    1
    29    11    12    1
    30    12     1    1
    31    12     6    1
    32     4    13    1
    33    24    25    1
    34    28    29    1
    35    33    34    1
@<TRIPOS>MOLECULE
*****
 34 35 0 0 0
SMALL
GASTEIGER

@<TRIPOS>ATOM
      1 C         -24.6345   -8.6089  -10.3277 C.3     1  UNL1        0.1755
      2 C         -24.3599   -9.6257   -9.2218 C.3     1  UNL1        0.0777
      3 C         -23.1710   -9.1464   -8.3721 C.3     1  UNL1        0.1358
      4 O         -23.5503   -8.0679   -7.5579 O.3     1  UNL1       -0.3799
      5 C         -22.0083   -8.7197   -9.2312 C.2     1  UNL1       -0.0015
      6 C         -22.1193   -8.4063  -10.5377 C.2     1  UNL1       -0.0213
      7 C         -20.8815   -8.2642  -11.3256 C.2     1  UNL1       -0.0090
      8 C         -20.8286   -8.6890  -12.5926 C.2     1  UNL1       -0.0268
      9 C         -22.0442   -9.1997  -13.3416 C.3     1  UNL1        0.0224
     10 C         -22.4622   -8.1235  -14.3650 C.3     1  UNL1        0.0047
     11 C         -23.1962   -9.6508  -12.3719 C.3     1  UNL1        0.0116
     12 C         -23.4301   -8.5184  -11.3091 C.3     1  UNL1        0.0626
     13 H         -24.0958   -8.4444   -6.8184 H       1  UNL1        0.2108
     14 O         -25.8752   -8.8860  -10.9734 O.3     1  UNL1       -0.4518
     15 C         -26.8010   -7.8968  -11.3296 C.2     1  UNL1        0.3163
     16 O         -27.5969   -7.4224  -10.4722 O.2     1  UNL1       -0.2501
     17 C         -26.8797   -7.4568  -12.7674 C.3     1  UNL1        0.0991
     18 C         -28.2380   -7.8605  -13.3474 C.3     1  UNL1        0.0116
     19 C         -25.2941   -5.4874  -12.3894 C.3     1  UNL1        0.0006
     20 C         -26.6486   -5.9390  -12.9363 C.3     1  UNL1        0.0111
     21 C         -24.4356  -10.1349  -13.1777 C.3     1  UNL1        0.0033
     22 C         -24.6648  -11.6651  -13.1503 C.3     1  UNL1        0.0293
     23 C         -25.4707  -12.2575  -14.3487 C.3     1  UNL1        0.1130
     24 O         -24.9594  -11.8212  -15.5840 O.3     1  UNL1       -0.3844
     25 H         -25.3499  -10.9256  -15.7618 H       1  UNL1        0.2103
     26 C         -25.4983  -13.8022  -14.3526 C.3     1  UNL1        0.0590
     27 C         -24.6703  -14.4390  -15.4979 C.3     1  UNL1        0.1241
     28 O         -24.6748  -13.6121  -16.6355 O.3     1  UNL1       -0.3838
     29 H         -24.2595  -12.7469  -16.3792 H       1  UNL1        0.2104
     30 C         -23.2166  -14.7183  -15.0660 C.3     1  UNL1        0.1385
     31 C         -22.2363  -13.8606  -15.8066 C.2     1  UNL1        0.3163
     32 O         -21.3249  -14.3933  -16.4948 O.2     1  UNL1       -0.2502
     33 O         -22.3164  -12.4749  -15.7108 O.3     1  UNL1       -0.4801
     34 H         -21.6571  -11.8807  -16.1987 H       1  UNL1        0.2951
@<TRIPOS>BOND
     1    19    20    1
     2    20    17    1
     3    17    18    1
     4    17    15    1
     5    15    16    2
     6    15    14    1
     7    14     1    1
     8     1     2    1
     9     2     3    1
    10     3     4    1
    11     3     5    1
    12     5     6    2
    13     6     7    1
    14     7     8    2
    15     8     9    1
    16     9    10    1
    17     9    11    1
    18    11    21    1
    19    21    22    1
    20    22    23    1
    21    23    24    1
    22    23    26    1
    23    26    27    1
    24    27    28    1
    25    27    30    1
    26    30    31    1
    27    31    32    2
    28    31    33    1
    29    11    12    1
    30    12     1    1
    31    12     6    1
    32     4    13    1
    33    24    25    1
    34    28    29    1
    35    33    34    1
@<TRIPOS>MOLECULE
*****
 34 35 0 0 0
SMALL
GASTEIGER

@<TRIPOS>ATOM
      1 C         -24.9328   -9.8775  -13.7336 C.3     1  UNL1        0.1755
      2 C         -24.9921   -8.9349  -12.5336 C.3     1  UNL1        0.0777
      3 C         -25.2281   -7.4970  -13.0257 C.3     1  UNL1        0.1358
      4 O         -26.5512   -7.3379  -13.4663 O.3     1  UNL1       -0.3799
      5 C         -24.2952   -7.1335  -14.1524 C.2     1  UNL1       -0.0015
      6 C         -23.6380   -8.0414  -14.9016 C.2     1  UNL1       -0.0213
      7 C         -22.5615   -7.5627  -15.7877 C.2     1  UNL1       -0.0090
      8 C         -21.4499   -8.2859  -15.9602 C.2     1  UNL1       -0.0268
      9 C         -21.2783   -9.6810  -15.3915 C.3     1  UNL1        0.0224
     10 C         -21.3788  -10.6879  -16.5562 C.3     1  UNL1        0.0047
     11 C         -22.2674   -9.9668  -14.2036 C.3     1  UNL1        0.0116
     12 C         -23.7145   -9.5423  -14.6422 C.3     1  UNL1        0.0626
     13 H         -27.1209   -7.2931  -12.6541 H       1  UNL1        0.2108
     14 O         -24.9697  -11.2386  -13.3105 O.3     1  UNL1       -0.4518
     15 C         -25.3985  -12.2925  -14.1278 C.2     1  UNL1        0.3163
     16 O         -26.0879  -12.0657  -15.1607 O.2     1  UNL1       -0.2501
     17 C         -25.0833  -13.7066  -13.7179 C.3     1  UNL1        0.0991
     18 C         -26.1972  -14.2307  -12.8075 C.3     1  UNL1        0.0116
     19 C         -23.4219  -15.0200  -15.1497 C.3     1  UNL1        0.0006
     20 C         -24.8876  -14.6451  -14.9289 C.3     1  UNL1        0.0111
     21 C         -22.0837  -11.4170  -13.6715 C.3     1  UNL1        0.0033
     22 C         -21.4564  -11.5109  -12.2600 C.3     1  UNL1        0.0293
     23 C         -21.6543  -10.2658  -11.3395 C.3     1  UNL1        0.1130
     24 O         -22.3076  -10.6050  -10.1413 O.3     1  UNL1       -0.3844
     25 H         -23.2818  -10.6196  -10.3338 H       1  UNL1        0.2103
     26 C         -20.3264   -9.5598  -10.9857 C.3     1  UNL1        0.0590
     27 C         -20.3665   -8.0220  -11.1757 C.3     1  UNL1        0.1241
     28 O         -20.1870   -7.6820  -12.5285 O.3     1  UNL1       -0.3838
     29 H         -20.9329   -8.0903  -13.0420 H       1  UNL1        0.2104
     30 C         -21.6872   -7.4159  -10.6598 C.3     1  UNL1        0.1385
     31 C         -21.6102   -7.0565   -9.2072 C.2     1  UNL1        0.3163
     32 O         -21.2756   -5.8918   -8.8618 O.2     1  UNL1       -0.2502
     33 O         -21.8814   -8.0186   -8.2394 O.3     1  UNL1       -0.4801
     34 H         -21.8265   -7.7944   -7.2533 H       1  UNL1        0.2951
@<TRIPOS>BOND
     1    19    20    1
     2    20    17    1
     3    17    18    1
     4    17    15    1
     5    15    16    2
     6    15    14    1
     7    14     1    1
     8     1     2    1
     9     2     3    1
    10     3     4    1
    11     3     5    1
    12     5     6    2
    13     6     7    1
    14     7     8    2
    15     8     9    1
    16     9    10    1
    17     9    11    1
    18    11    21    1
    19    21    22    1
    20    22    23    1
    21    23    24    1
    22    23    26    1
    23    26    27    1
    24    27    28    1
    25    27    30    1
    26    30    31    1
    27    31    32    2
    28    31    33    1
    29    11    12    1
    30    12     1    1
    31    12     6    1
    32     4    13    1
    33    24    25    1
    34    28    29    1
    35    33    34    1
@<TRIPOS>MOLECULE
*****
 34 35 0 0 0
SMALL
GASTEIGER

@<TRIPOS>ATOM
      1 C         -22.6508   -7.5018  -10.8922 C.3     1  UNL1        0.1755
      2 C         -21.4892   -6.6121  -11.3299 C.3     1  UNL1        0.0777
      3 C         -21.8038   -5.1498  -10.9720 C.3     1  UNL1        0.1358
      4 O         -21.6957   -4.9473   -9.5874 O.3     1  UNL1       -0.3799
      5 C         -23.1897   -4.7541  -11.4130 C.2     1  UNL1       -0.0015
      6 C         -24.1643   -5.6399  -11.7011 C.2     1  UNL1       -0.0213
      7 C         -25.3797   -5.1423  -12.3707 C.2     1  UNL1       -0.0090
      8 C         -25.9910   -5.8774  -13.3058 C.2     1  UNL1       -0.0268
      9 C         -25.5795   -7.2992  -13.6352 C.3     1  UNL1        0.0224
     10 C         -26.6491   -8.2516  -13.0613 C.3     1  UNL1        0.0047
     11 C         -24.1129   -7.6190  -13.1685 C.3     1  UNL1        0.0116
     12 C         -23.9463   -7.1491  -11.6792 C.3     1  UNL1        0.0626
     13 H         -20.7258   -4.9279   -9.3749 H       1  UNL1        0.2108
     14 O         -22.2922   -8.8793  -10.9744 O.3     1  UNL1       -0.4518
     15 C         -21.2976   -9.4693  -10.1836 C.2     1  UNL1        0.3163
     16 O         -21.2603   -9.2644   -8.9386 O.2     1  UNL1       -0.2501
     17 C         -20.2315  -10.2965  -10.8516 C.3     1  UNL1        0.0991
     18 C         -18.9712  -10.2972   -9.9820 C.3     1  UNL1        0.0116
     19 C         -21.3585  -11.8880  -12.5046 C.3     1  UNL1        0.0006
     20 C         -20.6941  -11.7425  -11.1352 C.3     1  UNL1        0.0111
     21 C         -23.7417   -9.0944  -13.4930 C.3     1  UNL1        0.0033
     22 C         -23.0783   -9.3029  -14.8755 C.3     1  UNL1        0.0293
     23 C         -23.5401  -10.5633  -15.6724 C.3     1  UNL1        0.1130
     24 O         -22.4650  -11.4281  -15.9439 O.3     1  UNL1       -0.3844
     25 H         -22.0084  -11.0808  -16.7546 H       1  UNL1        0.2103
     26 C         -24.6392  -11.3685  -14.9439 C.3     1  UNL1        0.0590
     27 C         -25.1119  -12.6242  -15.7200 C.3     1  UNL1        0.1241
     28 O         -24.5535  -12.6520  -17.0105 O.3     1  UNL1       -0.3838
     29 H         -23.5660  -12.6877  -16.9095 H       1  UNL1        0.2104
     30 C         -24.7565  -13.9257  -14.9733 C.3     1  UNL1        0.1385
     31 C         -24.4356  -15.0445  -15.9170 C.2     1  UNL1        0.3163
     32 O         -23.3281  -15.6403  -15.8366 O.2     1  UNL1       -0.2502
     33 O         -25.3507  -15.4061  -16.9007 O.3     1  UNL1       -0.4801
     34 H         -25.1463  -16.1548  -17.5514 H       1  UNL1        0.2951
@<TRIPOS>BOND
     1    19    20    1
     2    20    17    1
     3    17    18    1
     4    17    15    1
     5    15    16    2
     6    15    14    1
     7    14     1    1
     8     1     2    1
     9     2     3    1
    10     3     4    1
    11     3     5    1
    12     5     6    2
    13     6     7    1
    14     7     8    2
    15     8     9    1
    16     9    10    1
    17     9    11    1
    18    11    21    1
    19    21    22    1
    20    22    23    1
    21    23    24    1
    22    23    26    1
    23    26    27    1
    24    27    28    1
    25    27    30    1
    26    30    31    1
    27    31    32    2
    28    31    33    1
    29    11    12    1
    30    12     1    1
    31    12     6    1
    32     4    13    1
    33    24    25    1
    34    28    29    1
    35    33    34    1
