@<TRIPOS>MOLECULE
*****
 36 40 0 0 0
SMALL
GASTEIGER

@<TRIPOS>ATOM
      1 C         -21.0226   -6.6928   -9.7319 C.2     1  UNL1        0.2496
      2 O         -20.6162   -5.5009   -9.6600 O.2     1  UNL1       -0.2699
      3 N         -22.2550   -6.9810  -10.4245 N.am    1  UNL1       -0.2687
      4 C         -23.2091   -7.9615   -9.8921 C.3     1  UNL1        0.0961
      5 C         -23.6369   -8.9722  -10.9731 C.3     1  UNL1        0.0399
      6 C         -23.4986   -8.4466  -12.4386 C.3     1  UNL1        0.0653
      7 C         -24.6124   -9.0939  -13.3343 C.3     1  UNL1        0.0478
      8 C         -24.2916  -10.5313  -13.6129 C.ar    1  UNL1        0.0220
      9 C         -25.0888  -11.5679  -14.0382 C.ar    1  UNL1        0.0923
     10 N         -24.2820  -12.6185  -14.3337 N.ar    1  UNL1       -0.2534
     11 N         -23.0107  -12.2712  -14.1505 N.ar    1  UNL1       -0.1651
     12 C         -23.0181  -11.0012  -13.7111 C.ar    1  UNL1        0.1515
     13 C         -21.8792  -10.1389  -13.4342 C.2     1  UNL1        0.2650
     14 O         -20.6975  -10.5280  -13.6288 O.2     1  UNL1       -0.2684
     15 N         -22.1538   -8.8113  -12.9580 N.am    1  UNL1       -0.3023
     16 C         -23.6815   -6.9067  -12.4671 C.3     1  UNL1        0.0492
     17 C         -22.6451   -6.1709  -11.5889 C.3     1  UNL1        0.1217
     18 S         -23.2952   -4.5480  -11.0551 S.3     1  UNL1       -0.1490
     19 H         -21.3531   -8.1449  -12.8914 H       1  UNL1        0.1497
     20 H         -24.3136   -5.0995  -10.2557 H       1  UNL1        0.1038
     21 C         -18.6377   -8.6140   -5.8336 C.ar    1  UNL1        0.2248
     22 N         -17.8766   -9.6133   -5.3044 N.ar    1  UNL1       -0.2101
     23 C         -17.4758  -10.6843   -6.0375 C.ar    1  UNL1        0.1021
     24 C         -17.8399  -10.7920   -7.3795 C.ar    1  UNL1        0.0209
     25 C         -18.6220   -9.7874   -7.9623 C.ar    1  UNL1        0.0060
     26 C         -18.9984   -9.8686   -9.3098 C.ar    1  UNL1        0.0003
     27 C         -19.7787   -8.8632   -9.8834 C.ar    1  UNL1        0.0045
     28 C         -20.2054   -7.7654   -9.1193 C.ar    1  UNL1        0.0538
     29 C         -19.8159   -7.6719   -7.7724 C.ar    1  UNL1        0.0092
     30 C         -19.0304   -8.6792   -7.1843 C.ar    1  UNL1        0.0534
     31 C         -18.6685   -7.4103   -3.6664 C.3     1  UNL1        0.2542
     32 O         -19.0266   -7.5292   -5.0380 O.3     1  UNL1       -0.4561
     33 C         -24.7207  -13.9244  -14.8653 C.3     1  UNL1        0.0867
     34 C         -24.8453  -13.8700  -16.4034 C.3     1  UNL1        0.0244
     35 C         -23.6903  -15.0086  -14.4938 C.3     1  UNL1        0.0244
     36 C         -26.0924  -14.2835  -14.2660 C.3     1  UNL1        0.0244
@<TRIPOS>BOND
     1    31    32    1
     2    32    21    1
     3    21    22   ar
     4    22    23   ar
     5    23    24   ar
     6    24    25   ar
     7    25    26   ar
     8    26    27   ar
     9    27    28   ar
    10    28     1    1
    11     1     2    2
    12     1     3   am
    13     3     4    1
    14     4     5    1
    15     5     6    1
    16     6     7    1
    17     7     8    1
    18     8     9   ar
    19     9    10   ar
    20    10    33    1
    21    33    34    1
    22    33    35    1
    23    33    36    1
    24    10    11   ar
    25    11    12   ar
    26    12    13    1
    27    13    14    2
    28    13    15   am
    29     6    16    1
    30    16    17    1
    31    17    18    1
    32    28    29   ar
    33    29    30   ar
    34    30    21   ar
    35    30    25   ar
    36    17     3    1
    37    15     6    1
    38    12     8   ar
    39    15    19    1
    40    18    20    1
@<TRIPOS>MOLECULE
*****
 36 40 0 0 0
SMALL
GASTEIGER

@<TRIPOS>ATOM
      1 C         -23.0522   -6.4808  -10.8137 C.2     1  UNL1        0.2496
      2 O         -23.1226   -5.2219  -10.7798 O.2     1  UNL1       -0.2699
      3 N         -24.0612   -7.2284  -11.5240 N.am    1  UNL1       -0.2687
      4 C         -24.6000   -8.4793  -10.9761 C.3     1  UNL1        0.0961
      5 C         -24.5790   -9.6066  -12.0258 C.3     1  UNL1        0.0399
      6 C         -24.5918   -9.1088  -13.5073 C.3     1  UNL1        0.0653
      7 C         -25.3494  -10.1506  -14.4033 C.3     1  UNL1        0.0478
      8 C         -24.5054  -11.3709  -14.6161 C.ar    1  UNL1        0.0220
      9 C         -24.8419  -12.6420  -15.0187 C.ar    1  UNL1        0.0923
     10 N         -23.6909  -13.3223  -15.2522 N.ar    1  UNL1       -0.2534
     11 N         -22.6488  -12.5197  -15.0522 N.ar    1  UNL1       -0.1651
     12 C         -23.1457  -11.3329  -14.6643 C.ar    1  UNL1        0.1515
     13 C         -22.4220  -10.0997  -14.3946 C.2     1  UNL1        0.2650
     14 O         -21.1739  -10.0238  -14.5446 O.2     1  UNL1       -0.2684
     15 N         -23.1895   -8.9584  -13.9788 N.am    1  UNL1       -0.3023
     16 C         -25.3346   -7.7506  -13.6020 C.3     1  UNL1        0.0492
     17 C         -24.6812   -6.6561  -12.7290 C.3     1  UNL1        0.1217
     18 S         -25.9093   -5.3799  -12.2768 S.3     1  UNL1       -0.1490
     19 H         -22.6982   -8.0393  -13.9195 H       1  UNL1        0.1497
     20 H         -26.6777   -6.2497  -11.4809 H       1  UNL1        0.1038
     21 C         -19.8598  -10.2568  -10.4575 C.ar    1  UNL1        0.2248
     22 N         -18.8214  -10.8529   -9.8060 N.ar    1  UNL1       -0.2101
     23 C         -18.2485  -10.3057   -8.7027 C.ar    1  UNL1        0.1021
     24 C         -18.7176   -9.0939   -8.1963 C.ar    1  UNL1        0.0209
     25 C         -19.7825   -8.4476   -8.8358 C.ar    1  UNL1        0.0060
     26 C         -20.2761   -7.2312   -8.3454 C.ar    1  UNL1        0.0003
     27 C         -21.3378   -6.5928   -8.9890 C.ar    1  UNL1        0.0045
     28 C         -21.9175   -7.1522  -10.1388 C.ar    1  UNL1        0.0538
     29 C         -21.4365   -8.3803  -10.6236 C.ar    1  UNL1        0.0092
     30 C         -20.3673   -9.0317   -9.9835 C.ar    1  UNL1        0.0534
     31 C         -20.6696  -12.2570  -11.6780 C.3     1  UNL1        0.2542
     32 O         -20.4181  -10.8595  -11.5914 O.3     1  UNL1       -0.4561
     33 C         -23.5906  -14.7119  -15.7415 C.3     1  UNL1        0.0867
     34 C         -22.5329  -14.8178  -16.8615 C.3     1  UNL1        0.0244
     35 C         -23.1756  -15.6410  -14.5840 C.3     1  UNL1        0.0244
     36 C         -24.9550  -15.1549  -16.3002 C.3     1  UNL1        0.0244
@<TRIPOS>BOND
     1    31    32    1
     2    32    21    1
     3    21    22   ar
     4    22    23   ar
     5    23    24   ar
     6    24    25   ar
     7    25    26   ar
     8    26    27   ar
     9    27    28   ar
    10    28     1    1
    11     1     2    2
    12     1     3   am
    13     3     4    1
    14     4     5    1
    15     5     6    1
    16     6     7    1
    17     7     8    1
    18     8     9   ar
    19     9    10   ar
    20    10    33    1
    21    33    34    1
    22    33    35    1
    23    33    36    1
    24    10    11   ar
    25    11    12   ar
    26    12    13    1
    27    13    14    2
    28    13    15   am
    29     6    16    1
    30    16    17    1
    31    17    18    1
    32    28    29   ar
    33    29    30   ar
    34    30    21   ar
    35    30    25   ar
    36    17     3    1
    37    15     6    1
    38    12     8   ar
    39    15    19    1
    40    18    20    1
@<TRIPOS>MOLECULE
*****
 36 40 0 0 0
SMALL
GASTEIGER

@<TRIPOS>ATOM
      1 C         -22.0384   -6.7455   -9.7691 C.2     1  UNL1        0.2496
      2 O         -21.8915   -6.2617   -8.6135 O.2     1  UNL1       -0.2699
      3 N         -21.1975   -7.8389  -10.1921 N.am    1  UNL1       -0.2687
      4 C         -20.6521   -7.8890  -11.5541 C.3     1  UNL1        0.0961
      5 C         -20.9016   -9.2613  -12.2082 C.3     1  UNL1        0.0399
      6 C         -21.0923  -10.4346  -11.1932 C.3     1  UNL1        0.0653
      7 C         -20.5452  -11.7643  -11.8211 C.3     1  UNL1        0.0478
      8 C         -21.4806  -12.2686  -12.8782 C.ar    1  UNL1        0.0220
      9 C         -21.2846  -13.1618  -13.9053 C.ar    1  UNL1        0.0923
     10 N         -22.4949  -13.4346  -14.4555 N.ar    1  UNL1       -0.2534
     11 N         -23.4452  -12.7820  -13.7912 N.ar    1  UNL1       -0.1651
     12 C         -22.8266  -12.0722  -12.8323 C.ar    1  UNL1        0.1515
     13 C         -23.4274  -11.2501  -11.7929 C.2     1  UNL1        0.2650
     14 O         -24.6771  -11.1514  -11.6732 O.2     1  UNL1       -0.2684
     15 N         -22.5401  -10.5766  -10.8852 N.am    1  UNL1       -0.3023
     16 C         -20.2969  -10.1437   -9.8939 C.3     1  UNL1        0.0492
     17 C         -20.7419   -8.8329   -9.2079 C.3     1  UNL1        0.1217
     18 S         -19.3871   -8.1530   -8.1863 S.3     1  UNL1       -0.1490
     19 H         -22.9626  -10.1015  -10.0573 H       1  UNL1        0.1497
     20 H         -18.5547   -7.8741   -9.2862 H       1  UNL1        0.1038
     21 C         -26.3831   -7.1751  -12.1174 C.ar    1  UNL1        0.2248
     22 N         -27.3264   -6.6351  -12.9400 N.ar    1  UNL1       -0.2101
     23 C         -27.1949   -5.3942  -13.4766 C.ar    1  UNL1        0.1021
     24 C         -26.0674   -4.6235  -13.1944 C.ar    1  UNL1        0.0209
     25 C         -25.0744   -5.1403  -12.3532 C.ar    1  UNL1        0.0060
     26 C         -23.9294   -4.3888  -12.0565 C.ar    1  UNL1        0.0003
     27 C         -22.9441   -4.9108  -11.2165 C.ar    1  UNL1        0.0045
     28 C         -23.0900   -6.1871  -10.6500 C.ar    1  UNL1        0.0538
     29 C         -24.2287   -6.9505  -10.9586 C.ar    1  UNL1        0.0092
     30 C         -25.2276   -6.4342  -11.8031 C.ar    1  UNL1        0.0534
     31 C         -26.9423   -8.6906  -10.2368 C.3     1  UNL1        0.2542
     32 O         -26.5629   -8.4590  -11.5881 O.3     1  UNL1       -0.4561
     33 C         -22.7500  -14.3780  -15.5624 C.3     1  UNL1        0.0867
     34 C         -22.5937  -15.8363  -15.0795 C.3     1  UNL1        0.0244
     35 C         -24.1860  -14.1855  -16.0879 C.3     1  UNL1        0.0244
     36 C         -21.7421  -14.1172  -16.6965 C.3     1  UNL1        0.0244
@<TRIPOS>BOND
     1    31    32    1
     2    32    21    1
     3    21    22   ar
     4    22    23   ar
     5    23    24   ar
     6    24    25   ar
     7    25    26   ar
     8    26    27   ar
     9    27    28   ar
    10    28     1    1
    11     1     2    2
    12     1     3   am
    13     3     4    1
    14     4     5    1
    15     5     6    1
    16     6     7    1
    17     7     8    1
    18     8     9   ar
    19     9    10   ar
    20    10    33    1
    21    33    34    1
    22    33    35    1
    23    33    36    1
    24    10    11   ar
    25    11    12   ar
    26    12    13    1
    27    13    14    2
    28    13    15   am
    29     6    16    1
    30    16    17    1
    31    17    18    1
    32    28    29   ar
    33    29    30   ar
    34    30    21   ar
    35    30    25   ar
    36    17     3    1
    37    15     6    1
    38    12     8   ar
    39    15    19    1
    40    18    20    1
@<TRIPOS>MOLECULE
*****
 36 40 0 0 0
SMALL
GASTEIGER

@<TRIPOS>ATOM
      1 C         -19.9267  -10.6240  -10.3196 C.2     1  UNL1        0.2496
      2 O         -18.7795  -10.6532   -9.7961 O.2     1  UNL1       -0.2699
      3 N         -20.8715   -9.6173   -9.9009 N.am    1  UNL1       -0.2687
      4 C         -22.2899   -9.9451   -9.7111 C.3     1  UNL1        0.0961
      5 C         -23.2007   -8.9397  -10.4409 C.3     1  UNL1        0.0399
      6 C         -22.5505   -7.5394  -10.6849 C.3     1  UNL1        0.0653
      7 C         -23.6619   -6.4325  -10.6489 C.3     1  UNL1        0.0478
      8 C         -24.4910   -6.4812  -11.8966 C.ar    1  UNL1        0.0220
      9 C         -25.7386   -5.9726  -12.1717 C.ar    1  UNL1        0.0923
     10 N         -25.9582   -6.1081  -13.5041 N.ar    1  UNL1       -0.2534
     11 N         -24.8855   -6.6427  -14.0818 N.ar    1  UNL1       -0.1651
     12 C         -23.9938   -6.8701  -13.1025 C.ar    1  UNL1        0.1515
     13 C         -22.6348   -7.3757  -13.2233 C.2     1  UNL1        0.2650
     14 O         -22.1266   -7.6331  -14.3464 O.2     1  UNL1       -0.2684
     15 N         -21.8799   -7.5425  -12.0121 N.am    1  UNL1       -0.3023
     16 C         -21.5193   -7.2337   -9.5674 C.3     1  UNL1        0.0492
     17 C         -20.3906   -8.2865   -9.4989 C.3     1  UNL1        0.1217
     18 S         -19.6687   -8.3429   -7.8205 S.3     1  UNL1       -0.1490
     19 H         -20.8649   -7.7698  -12.1010 H       1  UNL1        0.1497
     20 H         -20.8400   -8.8383   -7.2180 H       1  UNL1        0.1038
     21 C         -22.4889  -11.9521  -14.3504 C.ar    1  UNL1        0.2248
     22 N         -22.7798  -12.8913  -15.2944 N.ar    1  UNL1       -0.2101
     23 C         -22.1884  -14.1141  -15.3061 C.ar    1  UNL1        0.1021
     24 C         -21.2483  -14.4482  -14.3317 C.ar    1  UNL1        0.0209
     25 C         -20.9199  -13.5120  -13.3435 C.ar    1  UNL1        0.0060
     26 C         -19.9817  -13.8233  -12.3502 C.ar    1  UNL1        0.0003
     27 C         -19.6593  -12.8843  -11.3688 C.ar    1  UNL1        0.0045
     28 C         -20.2598  -11.6152  -11.3685 C.ar    1  UNL1        0.0538
     29 C         -21.2135  -11.3054  -12.3529 C.ar    1  UNL1        0.0092
     30 C         -21.5454  -12.2435  -13.3465 C.ar    1  UNL1        0.0534
     31 C         -24.5274  -10.5491  -14.2004 C.3     1  UNL1        0.2542
     32 O         -23.1248  -10.7048  -14.3794 O.3     1  UNL1       -0.4561
     33 C         -27.1590   -5.6548  -14.2343 C.3     1  UNL1        0.0867
     34 C         -27.8429   -4.4911  -13.4845 C.3     1  UNL1        0.0244
     35 C         -26.7580   -5.1658  -15.6397 C.3     1  UNL1        0.0244
     36 C         -28.1535   -6.8238  -14.3546 C.3     1  UNL1        0.0244
@<TRIPOS>BOND
     1    31    32    1
     2    32    21    1
     3    21    22   ar
     4    22    23   ar
     5    23    24   ar
     6    24    25   ar
     7    25    26   ar
     8    26    27   ar
     9    27    28   ar
    10    28     1    1
    11     1     2    2
    12     1     3   am
    13     3     4    1
    14     4     5    1
    15     5     6    1
    16     6     7    1
    17     7     8    1
    18     8     9   ar
    19     9    10   ar
    20    10    33    1
    21    33    34    1
    22    33    35    1
    23    33    36    1
    24    10    11   ar
    25    11    12   ar
    26    12    13    1
    27    13    14    2
    28    13    15   am
    29     6    16    1
    30    16    17    1
    31    17    18    1
    32    28    29   ar
    33    29    30   ar
    34    30    21   ar
    35    30    25   ar
    36    17     3    1
    37    15     6    1
    38    12     8   ar
    39    15    19    1
    40    18    20    1
@<TRIPOS>MOLECULE
*****
 36 40 0 0 0
SMALL
GASTEIGER

@<TRIPOS>ATOM
      1 C         -25.2721   -8.7092  -13.7120 C.2     1  UNL1        0.2496
      2 O         -26.3329   -8.2909  -14.2511 O.2     1  UNL1       -0.2699
      3 N         -24.3657   -7.7654  -13.1045 N.am    1  UNL1       -0.2687
      4 C         -22.9126   -7.9077  -13.2579 C.3     1  UNL1        0.0961
      5 C         -22.1930   -7.8128  -11.8991 C.3     1  UNL1        0.0399
      6 C         -22.9826   -7.0244  -10.8046 C.3     1  UNL1        0.0653
      7 C         -21.9710   -6.3037   -9.8460 C.3     1  UNL1        0.0478
      8 C         -21.3147   -7.2962   -8.9344 C.ar    1  UNL1        0.0220
      9 C         -20.1609   -7.2133   -8.1908 C.ar    1  UNL1        0.0923
     10 N         -20.1107   -8.2997   -7.3789 N.ar    1  UNL1       -0.2534
     11 N         -21.2034   -9.0387   -7.5530 N.ar    1  UNL1       -0.1651
     12 C         -21.9347   -8.4274   -8.5003 C.ar    1  UNL1        0.1515
     13 C         -23.2516   -8.7962   -8.9975 C.2     1  UNL1        0.2650
     14 O         -23.8822   -9.7775   -8.5228 O.2     1  UNL1       -0.2684
     15 N         -23.8218   -7.9788  -10.0325 N.am    1  UNL1       -0.3023
     16 C         -23.8770   -5.9469  -11.4714 C.3     1  UNL1        0.0492
     17 C         -24.8962   -6.5532  -12.4617 C.3     1  UNL1        0.1217
     18 S         -25.3806   -5.3175  -13.7186 S.3     1  UNL1       -0.1490
     19 H         -24.8174   -8.1523  -10.2938 H       1  UNL1        0.1497
     20 H         -24.1027   -5.2561  -14.3047 H       1  UNL1        0.1038
     21 C         -24.2513  -12.9326  -16.0988 C.ar    1  UNL1        0.2248
     22 N         -24.0170  -14.2746  -16.0531 N.ar    1  UNL1       -0.2101
     23 C         -24.0240  -14.9719  -14.8874 C.ar    1  UNL1        0.1021
     24 C         -24.2768  -14.3196  -13.6810 C.ar    1  UNL1        0.0209
     25 C         -24.5220  -12.9410  -13.6831 C.ar    1  UNL1        0.0060
     26 C         -24.7829  -12.2615  -12.4856 C.ar    1  UNL1        0.0003
     27 C         -25.0258  -10.8868  -12.4960 C.ar    1  UNL1        0.0045
     28 C         -25.0017  -10.1654  -13.7002 C.ar    1  UNL1        0.0538
     29 C         -24.7572  -10.8461  -14.9050 C.ar    1  UNL1        0.0092
     30 C         -24.5108  -12.2306  -14.9060 C.ar    1  UNL1        0.0534
     31 C         -23.0401  -11.7506  -17.9104 C.3     1  UNL1        0.2542
     32 O         -24.2338  -12.2566  -17.3250 O.3     1  UNL1       -0.4561
     33 C         -19.0594   -8.5886   -6.3831 C.3     1  UNL1        0.0867
     34 C         -18.0899   -7.3937   -6.2553 C.3     1  UNL1        0.0244
     35 C         -19.7046   -8.8474   -5.0076 C.3     1  UNL1        0.0244
     36 C         -18.2651   -9.8305   -6.8267 C.3     1  UNL1        0.0244
@<TRIPOS>BOND
     1    31    32    1
     2    32    21    1
     3    21    22   ar
     4    22    23   ar
     5    23    24   ar
     6    24    25   ar
     7    25    26   ar
     8    26    27   ar
     9    27    28   ar
    10    28     1    1
    11     1     2    2
    12     1     3   am
    13     3     4    1
    14     4     5    1
    15     5     6    1
    16     6     7    1
    17     7     8    1
    18     8     9   ar
    19     9    10   ar
    20    10    33    1
    21    33    34    1
    22    33    35    1
    23    33    36    1
    24    10    11   ar
    25    11    12   ar
    26    12    13    1
    27    13    14    2
    28    13    15   am
    29     6    16    1
    30    16    17    1
    31    17    18    1
    32    28    29   ar
    33    29    30   ar
    34    30    21   ar
    35    30    25   ar
    36    17     3    1
    37    15     6    1
    38    12     8   ar
    39    15    19    1
    40    18    20    1
@<TRIPOS>MOLECULE
*****
 36 40 0 0 0
SMALL
GASTEIGER

@<TRIPOS>ATOM
      1 C         -22.1826  -11.1643  -11.6967 C.2     1  UNL1        0.2496
      2 O         -21.1800  -11.5051  -11.0113 O.2     1  UNL1       -0.2699
      3 N         -22.9216   -9.9802  -11.3315 N.am    1  UNL1       -0.2687
      4 C         -24.3883   -9.9574  -11.3899 C.3     1  UNL1        0.0961
      5 C         -24.9004   -8.7191  -12.1497 C.3     1  UNL1        0.0399
      6 C         -23.9080   -7.5116  -12.1585 C.3     1  UNL1        0.0653
      7 C         -24.7181   -6.1681  -12.1855 C.3     1  UNL1        0.0478
      8 C         -25.3117   -5.9410  -13.5429 C.ar    1  UNL1        0.0220
      9 C         -26.3400   -5.1253  -13.9534 C.ar    1  UNL1        0.0923
     10 N         -26.3562   -5.1281  -15.3105 N.ar    1  UNL1       -0.2534
     11 N         -25.3570   -5.8781  -15.7680 N.ar    1  UNL1       -0.1651
     12 C         -24.7228   -6.3729  -14.6914 C.ar    1  UNL1        0.1515
     13 C         -23.5202   -7.1912  -14.6534 C.2     1  UNL1        0.2650
     14 O         -22.9039   -7.5033  -15.7063 O.2     1  UNL1       -0.2684
     15 N         -23.0420   -7.6065  -13.3636 N.am    1  UNL1       -0.3023
     16 C         -23.0386   -7.5328  -10.8743 C.3     1  UNL1        0.0492
     17 C         -22.2170   -8.8339  -10.7368 C.3     1  UNL1        0.1217
     18 S         -21.8237   -9.1603   -8.9817 S.3     1  UNL1       -0.1490
     19 H         -22.1088   -8.0721  -13.3195 H       1  UNL1        0.1497
     20 H         -23.1632   -9.3836   -8.6127 H       1  UNL1        0.1038
     21 C         -25.4794  -13.9163  -14.1732 C.ar    1  UNL1        0.2248
     22 N         -25.7867  -14.6727  -15.2647 N.ar    1  UNL1       -0.2101
     23 C         -24.8947  -14.8988  -16.2638 C.ar    1  UNL1        0.1021
     24 C         -23.6136  -14.3516  -16.1979 C.ar    1  UNL1        0.0209
     25 C         -23.2569  -13.5676  -15.0939 C.ar    1  UNL1        0.0060
     26 C         -21.9750  -13.0093  -15.0005 C.ar    1  UNL1        0.0003
     27 C         -21.6272  -12.2283  -13.8969 C.ar    1  UNL1        0.0045
     28 C         -22.5563  -11.9824  -12.8733 C.ar    1  UNL1        0.0538
     29 C         -23.8372  -12.5545  -12.9553 C.ar    1  UNL1        0.0092
     30 C         -24.1983  -13.3424  -14.0626 C.ar    1  UNL1        0.0534
     31 C         -26.4480  -14.4548  -11.9555 C.3     1  UNL1        0.2542
     32 O         -26.4327  -13.7112  -13.1682 O.3     1  UNL1       -0.4561
     33 C         -27.2754   -4.3523  -16.1670 C.3     1  UNL1        0.0867
     34 C         -28.7436   -4.6267  -15.7754 C.3     1  UNL1        0.0244
     35 C         -26.9951   -2.8462  -15.9984 C.3     1  UNL1        0.0244
     36 C         -27.0668   -4.7586  -17.6371 C.3     1  UNL1        0.0244
@<TRIPOS>BOND
     1    31    32    1
     2    32    21    1
     3    21    22   ar
     4    22    23   ar
     5    23    24   ar
     6    24    25   ar
     7    25    26   ar
     8    26    27   ar
     9    27    28   ar
    10    28     1    1
    11     1     2    2
    12     1     3   am
    13     3     4    1
    14     4     5    1
    15     5     6    1
    16     6     7    1
    17     7     8    1
    18     8     9   ar
    19     9    10   ar
    20    10    33    1
    21    33    34    1
    22    33    35    1
    23    33    36    1
    24    10    11   ar
    25    11    12   ar
    26    12    13    1
    27    13    14    2
    28    13    15   am
    29     6    16    1
    30    16    17    1
    31    17    18    1
    32    28    29   ar
    33    29    30   ar
    34    30    21   ar
    35    30    25   ar
    36    17     3    1
    37    15     6    1
    38    12     8   ar
    39    15    19    1
    40    18    20    1
@<TRIPOS>MOLECULE
*****
 36 40 0 0 0
SMALL
GASTEIGER

@<TRIPOS>ATOM
      1 C         -24.6188   -5.8642  -12.3431 C.2     1  UNL1        0.2496
      2 O         -24.4939   -4.9744  -11.4579 O.2     1  UNL1       -0.2699
      3 N         -23.4712   -6.6511  -12.7243 N.am    1  UNL1       -0.2687
      4 C         -23.2234   -6.9934  -14.1302 C.3     1  UNL1        0.0961
      5 C         -22.9469   -8.4993  -14.3007 C.3     1  UNL1        0.0399
      6 C         -22.3998   -9.2040  -13.0173 C.3     1  UNL1        0.0653
      7 C         -21.4410  -10.3749  -13.4312 C.3     1  UNL1        0.0478
      8 C         -22.2280  -11.5324  -13.9673 C.ar    1  UNL1        0.0220
      9 C         -21.8458  -12.6021  -14.7425 C.ar    1  UNL1        0.0923
     10 N         -22.8834  -13.4758  -14.7858 N.ar    1  UNL1       -0.2534
     11 N         -23.8844  -13.0185  -14.0380 N.ar    1  UNL1       -0.1651
     12 C         -23.4846  -11.8355  -13.5413 C.ar    1  UNL1        0.1515
     13 C         -24.1867  -10.9692  -12.6066 C.2     1  UNL1        0.2650
     14 O         -25.3017  -11.2941  -12.1196 O.2     1  UNL1       -0.2684
     15 N         -23.5453   -9.7386  -12.2340 N.am    1  UNL1       -0.3023
     16 C         -21.5947   -8.1919  -12.1612 C.3     1  UNL1        0.0492
     17 C         -22.4451   -6.9789  -11.7224 C.3     1  UNL1        0.1217
     18 S         -21.3766   -5.5317  -11.3980 S.3     1  UNL1       -0.1490
     19 H         -23.9749   -9.1823  -11.4622 H       1  UNL1        0.1497
     20 H         -20.9770   -5.3921  -12.7401 H       1  UNL1        0.1038
     21 C         -28.2634   -4.4714  -15.4014 C.ar    1  UNL1        0.2248
     22 N         -29.4978   -4.7022  -15.9312 N.ar    1  UNL1       -0.2101
     23 C         -30.2481   -5.7781  -15.5781 C.ar    1  UNL1        0.1021
     24 C         -29.7651   -6.6943  -14.6441 C.ar    1  UNL1        0.0209
     25 C         -28.5010   -6.4950  -14.0757 C.ar    1  UNL1        0.0060
     26 C         -27.9934   -7.3978  -13.1318 C.ar    1  UNL1        0.0003
     27 C         -26.7321   -7.1924  -12.5700 C.ar    1  UNL1        0.0045
     28 C         -25.9516   -6.0884  -12.9489 C.ar    1  UNL1        0.0538
     29 C         -26.4642   -5.1718  -13.8825 C.ar    1  UNL1        0.0092
     30 C         -27.7333   -5.3692  -14.4550 C.ar    1  UNL1        0.0534
     31 C         -26.8827   -3.2528  -17.0614 C.3     1  UNL1        0.2542
     32 O         -27.5270   -3.3478  -15.7966 O.3     1  UNL1       -0.4561
     33 C         -22.8878  -14.7812  -15.4759 C.3     1  UNL1        0.0867
     34 C         -22.4710  -15.9087  -14.5067 C.3     1  UNL1        0.0244
     35 C         -24.3039  -15.0848  -16.0031 C.3     1  UNL1        0.0244
     36 C         -21.8935  -14.7399  -16.6504 C.3     1  UNL1        0.0244
@<TRIPOS>BOND
     1    31    32    1
     2    32    21    1
     3    21    22   ar
     4    22    23   ar
     5    23    24   ar
     6    24    25   ar
     7    25    26   ar
     8    26    27   ar
     9    27    28   ar
    10    28     1    1
    11     1     2    2
    12     1     3   am
    13     3     4    1
    14     4     5    1
    15     5     6    1
    16     6     7    1
    17     7     8    1
    18     8     9   ar
    19     9    10   ar
    20    10    33    1
    21    33    34    1
    22    33    35    1
    23    33    36    1
    24    10    11   ar
    25    11    12   ar
    26    12    13    1
    27    13    14    2
    28    13    15   am
    29     6    16    1
    30    16    17    1
    31    17    18    1
    32    28    29   ar
    33    29    30   ar
    34    30    21   ar
    35    30    25   ar
    36    17     3    1
    37    15     6    1
    38    12     8   ar
    39    15    19    1
    40    18    20    1
@<TRIPOS>MOLECULE
*****
 36 40 0 0 0
SMALL
GASTEIGER

@<TRIPOS>ATOM
      1 C         -23.8155   -8.3856  -14.0114 C.2     1  UNL1        0.2496
      2 O         -24.8876   -8.1003  -14.6115 O.2     1  UNL1       -0.2699
      3 N         -23.2514   -7.4397  -13.0794 N.am    1  UNL1       -0.2687
      4 C         -21.8033   -7.2048  -13.0250 C.3     1  UNL1        0.0961
      5 C         -21.2755   -7.2864  -11.5800 C.3     1  UNL1        0.0399
      6 C         -22.3500   -6.9934  -10.4833 C.3     1  UNL1        0.0653
      7 C         -21.6630   -6.3203   -9.2437 C.3     1  UNL1        0.0478
      8 C         -20.8687   -7.3304   -8.4719 C.ar    1  UNL1        0.0220
      9 C         -19.8580   -7.1727   -7.5528 C.ar    1  UNL1        0.0923
     10 N         -19.6113   -8.3847   -6.9943 N.ar    1  UNL1       -0.2534
     11 N         -20.4516   -9.2868   -7.4946 N.ar    1  UNL1       -0.1651
     12 C         -21.2155   -8.6442   -8.3942 C.ar    1  UNL1        0.1515
     13 C         -22.3340   -9.1691   -9.1629 C.2     1  UNL1        0.2650
     14 O         -22.7340  -10.3541   -9.0158 O.2     1  UNL1       -0.2684
     15 N         -22.9877   -8.2740  -10.0772 N.am    1  UNL1       -0.3023
     16 C         -23.4200   -6.0179  -11.0392 C.3     1  UNL1        0.0492
     17 C         -24.1407   -6.5771  -12.2861 C.3     1  UNL1        0.1217
     18 S         -24.7975   -5.2137  -13.3112 S.3     1  UNL1       -0.1490
     19 H         -23.8723   -8.5998  -10.5255 H       1  UNL1        0.1497
     20 H         -23.5262   -4.7202  -13.6584 H       1  UNL1        0.1038
     21 C         -21.0882  -12.2351  -12.4885 C.ar    1  UNL1        0.2248
     22 N         -20.5072  -13.4375  -12.7614 N.ar    1  UNL1       -0.2101
     23 C         -20.6100  -14.0323  -13.9783 C.ar    1  UNL1        0.1021
     24 C         -21.3278  -13.4152  -15.0025 C.ar    1  UNL1        0.0209
     25 C         -21.9411  -12.1792  -14.7641 C.ar    1  UNL1        0.0060
     26 C         -22.6648  -11.5354  -15.7768 C.ar    1  UNL1        0.0003
     27 C         -23.2738  -10.3034  -15.5311 C.ar    1  UNL1        0.0045
     28 C         -23.1798   -9.6986  -14.2676 C.ar    1  UNL1        0.0538
     29 C         -22.4408  -10.3330  -13.2546 C.ar    1  UNL1        0.0092
     30 C         -21.8238  -11.5742  -13.4911 C.ar    1  UNL1        0.0534
     31 C         -19.6958  -11.2947  -10.6656 C.3     1  UNL1        0.2542
     32 O         -20.9544  -11.6611  -11.2183 O.3     1  UNL1       -0.4561
     33 C         -18.6285   -8.6628   -5.9279 C.3     1  UNL1        0.0867
     34 C         -17.6587   -7.4730   -5.7601 C.3     1  UNL1        0.0244
     35 C         -19.3627   -8.8907   -4.5921 C.3     1  UNL1        0.0244
     36 C         -17.8183   -9.9188   -6.2968 C.3     1  UNL1        0.0244
@<TRIPOS>BOND
     1    31    32    1
     2    32    21    1
     3    21    22   ar
     4    22    23   ar
     5    23    24   ar
     6    24    25   ar
     7    25    26   ar
     8    26    27   ar
     9    27    28   ar
    10    28     1    1
    11     1     2    2
    12     1     3   am
    13     3     4    1
    14     4     5    1
    15     5     6    1
    16     6     7    1
    17     7     8    1
    18     8     9   ar
    19     9    10   ar
    20    10    33    1
    21    33    34    1
    22    33    35    1
    23    33    36    1
    24    10    11   ar
    25    11    12   ar
    26    12    13    1
    27    13    14    2
    28    13    15   am
    29     6    16    1
    30    16    17    1
    31    17    18    1
    32    28    29   ar
    33    29    30   ar
    34    30    21   ar
    35    30    25   ar
    36    17     3    1
    37    15     6    1
    38    12     8   ar
    39    15    19    1
    40    18    20    1
@<TRIPOS>MOLECULE
*****
 36 40 0 0 0
SMALL
GASTEIGER

@<TRIPOS>ATOM
      1 C         -20.6664  -11.4008  -11.5588 C.2     1  UNL1        0.2496
      2 O         -19.4836  -11.6019  -11.1695 O.2     1  UNL1       -0.2699
      3 N         -21.4111  -10.2894  -11.0189 N.am    1  UNL1       -0.2687
      4 C         -22.8315  -10.4280  -10.6748 C.3     1  UNL1        0.0961
      5 C         -23.6695   -9.2855  -11.2796 C.3     1  UNL1        0.0399
      6 C         -22.8629   -7.9792  -11.5725 C.3     1  UNL1        0.0653
      7 C         -23.7999   -6.7336  -11.3921 C.3     1  UNL1        0.0478
      8 C         -24.7601   -6.6296  -12.5383 C.ar    1  UNL1        0.0220
      9 C         -25.9482   -5.9481  -12.6614 C.ar    1  UNL1        0.0923
     10 N         -26.3298   -6.0098  -13.9624 N.ar    1  UNL1       -0.2534
     11 N         -25.4115   -6.6659  -14.6670 N.ar    1  UNL1       -0.1651
     12 C         -24.4574   -7.0433  -13.7991 C.ar    1  UNL1        0.1515
     13 C         -23.2029   -7.7242  -14.0818 C.2     1  UNL1        0.2650
     14 O         -22.8621   -8.0119  -15.2594 O.2     1  UNL1       -0.2684
     15 N         -22.3495   -8.0305  -12.9671 N.am    1  UNL1       -0.3023
     16 C         -21.6826   -7.8520  -10.5743 C.3     1  UNL1        0.0492
     17 C         -20.7096   -9.0495  -10.6520 C.3     1  UNL1        0.1217
     18 S         -19.8220   -9.2571   -9.0675 S.3     1  UNL1       -0.1490
     19 H         -21.3917   -8.3901  -13.1744 H       1  UNL1        0.1497
     20 H         -20.9769   -9.6083   -8.3443 H       1  UNL1        0.1038
     21 C         -24.5144  -12.9354  -14.2817 C.ar    1  UNL1        0.2248
     22 N         -25.0191  -13.7895  -15.2165 N.ar    1  UNL1       -0.2101
     23 C         -24.2617  -14.7542  -15.8002 C.ar    1  UNL1        0.1021
     24 C         -22.9194  -14.8998  -15.4510 C.ar    1  UNL1        0.0209
     25 C         -22.3609  -14.0425  -14.4951 C.ar    1  UNL1        0.0060
     26 C         -21.0158  -14.1695  -14.1229 C.ar    1  UNL1        0.0003
     27 C         -20.4662  -13.3106  -13.1695 C.ar    1  UNL1        0.0045
     28 C         -21.2468  -12.3036  -12.5796 C.ar    1  UNL1        0.0538
     29 C         -22.6003  -12.1839  -12.9378 C.ar    1  UNL1        0.0092
     30 C         -23.1640  -13.0434  -13.8974 C.ar    1  UNL1        0.0534
     31 C         -25.5671  -10.6910  -14.3147 C.3     1  UNL1        0.2542
     32 O         -25.3345  -11.9563  -13.7075 O.3     1  UNL1       -0.4561
     33 C         -27.5295   -5.3749  -14.5438 C.3     1  UNL1        0.0867
     34 C         -28.0426   -4.2431  -13.6273 C.3     1  UNL1        0.0244
     35 C         -27.1832   -4.7740  -15.9201 C.3     1  UNL1        0.0244
     36 C         -28.6387   -6.4307  -14.7017 C.3     1  UNL1        0.0244
@<TRIPOS>BOND
     1    31    32    1
     2    32    21    1
     3    21    22   ar
     4    22    23   ar
     5    23    24   ar
     6    24    25   ar
     7    25    26   ar
     8    26    27   ar
     9    27    28   ar
    10    28     1    1
    11     1     2    2
    12     1     3   am
    13     3     4    1
    14     4     5    1
    15     5     6    1
    16     6     7    1
    17     7     8    1
    18     8     9   ar
    19     9    10   ar
    20    10    33    1
    21    33    34    1
    22    33    35    1
    23    33    36    1
    24    10    11   ar
    25    11    12   ar
    26    12    13    1
    27    13    14    2
    28    13    15   am
    29     6    16    1
    30    16    17    1
    31    17    18    1
    32    28    29   ar
    33    29    30   ar
    34    30    21   ar
    35    30    25   ar
    36    17     3    1
    37    15     6    1
    38    12     8   ar
    39    15    19    1
    40    18    20    1
