@<TRIPOS>MOLECULE
*****
 45 50 0 0 0
SMALL
GASTEIGER

@<TRIPOS>ATOM
      1 C         -61.9173  -49.2479  -23.8016 C.ar    1  UNL1        0.1318
      2 C         -61.6084  -50.5666  -23.4257 C.ar    1  UNL1        0.0356
      3 C         -62.5192  -51.5913  -23.6878 C.ar    1  UNL1        0.0191
      4 C         -63.7335  -51.3080  -24.3319 C.ar    1  UNL1        0.0702
      5 C         -64.0163  -49.9782  -24.6674 C.ar    1  UNL1        0.1149
      6 N         -63.1141  -48.9968  -24.4032 N.ar    1  UNL1       -0.2279
      7 C         -58.9909  -46.0705  -22.9918 C.3     1  UNL1        0.0471
      8 C         -59.8320  -46.1028  -24.2898 C.3     1  UNL1        0.0252
      9 C         -60.2647  -47.5265  -24.6552 C.3     1  UNL1        0.0923
     10 N         -61.0013  -48.1604  -23.5477 N.pl3   1  UNL1       -0.2932
     11 C         -60.8819  -47.6122  -22.1877 C.3     1  UNL1        0.0923
     12 C         -59.4535  -47.1158  -21.9404 C.3     1  UNL1        0.0252
     13 C         -58.9618  -44.6511  -22.4010 C.3     1  UNL1        0.2054
     14 O         -59.2132  -43.6886  -23.4232 O.3     1  UNL1       -0.4758
     15 C         -60.4847  -42.4327  -21.2235 C.3     1  UNL1        0.0342
     16 C         -61.1116  -42.4472  -22.5899 C.ar    1  UNL1        0.0121
     17 C         -62.3452  -41.8156  -22.8050 C.ar    1  UNL1       -0.0011
     18 C         -62.9280  -41.8138  -24.0732 C.ar    1  UNL1        0.0063
     19 C         -62.2858  -42.4404  -25.1534 C.ar    1  UNL1        0.0785
     20 C         -61.0465  -43.0679  -24.9405 C.ar    1  UNL1        0.0430
     21 C         -60.4520  -43.0738  -23.6631 C.ar    1  UNL1        0.1347
     22 C         -62.9024  -42.4395  -26.4991 C.2     1  UNL1        0.3381
     23 O         -63.7199  -41.5370  -26.8266 O.2     1  UNL1       -0.2451
     24 O         -62.5856  -43.4368  -27.4180 O.3     1  UNL1       -0.4771
     25 H         -63.0021  -43.4452  -28.3413 H       1  UNL1        0.2954
     26 N         -64.7073  -52.3327  -24.5959 N.am    1  UNL1       -0.2766
     27 C         -65.1845  -53.2543  -23.6042 C.2     1  UNL1        0.2839
     28 O         -64.4640  -53.5388  -22.6099 O.2     1  UNL1       -0.2665
     29 H         -65.0031  -52.4865  -25.5857 H       1  UNL1        0.1553
     30 C         -66.4757  -53.9460  -23.7646 C.ar    1  UNL1        0.1946
     31 O         -66.7872  -54.6182  -24.8589 O.2     1  UNL1       -0.4492
     32 C         -67.9937  -55.1055  -24.7028 C.ar    1  UNL1        0.1452
     33 C         -68.7194  -55.8724  -25.6078 C.ar    1  UNL1        0.0375
     34 C         -70.0079  -56.2919  -25.2332 C.ar    1  UNL1        0.0031
     35 C         -70.5492  -55.9405  -23.9667 C.ar    1  UNL1        0.0002
     36 C         -69.7763  -55.1588  -23.0749 C.ar    1  UNL1        0.0028
     37 C         -68.5019  -54.7609  -23.4800 C.ar    1  UNL1        0.0337
     38 C         -67.5267  -54.0206  -22.8417 C.ar    1  UNL1        0.0202
     39 C         -67.6010  -53.4385  -21.4624 C.3     1  UNL1        0.0345
     40 C         -71.9119  -56.3881  -23.5822 C.ar    1  UNL1        0.0000
     41 C         -72.1833  -56.8050  -22.2650 C.ar    1  UNL1        0.0000
     42 C         -73.4677  -57.2249  -21.9056 C.ar    1  UNL1        0.0000
     43 C         -74.4932  -57.2344  -22.8535 C.ar    1  UNL1        0.0000
     44 C         -74.2367  -56.8234  -24.1634 C.ar    1  UNL1        0.0000
     45 C         -72.9545  -56.4017  -24.5283 C.ar    1  UNL1        0.0000
@<TRIPOS>BOND
     1    15    16    1
     2    16    17   ar
     3    17    18   ar
     4    18    19   ar
     5    19    22    1
     6    22    23    2
     7    22    24    1
     8    19    20   ar
     9    20    21   ar
    10    21    14    1
    11    14    13    1
    12    13     7    1
    13     7     8    1
    14     8     9    1
    15     9    10    1
    16    10     1    1
    17     1     2   ar
    18     2     3   ar
    19     3     4   ar
    20     4    26    1
    21    26    27   am
    22    27    28    2
    23    27    30    1
    24    30    31   ar
    25    31    32   ar
    26    32    33   ar
    27    33    34   ar
    28    34    35   ar
    29    35    40    1
    30    40    41   ar
    31    41    42   ar
    32    42    43   ar
    33    43    44   ar
    34    44    45   ar
    35    35    36   ar
    36    36    37   ar
    37    37    38   ar
    38    38    39    1
    39     4     5   ar
    40     5     6   ar
    41    10    11    1
    42    11    12    1
    43    21    16   ar
    44    12     7    1
    45     6     1   ar
    46    38    30   ar
    47    37    32   ar
    48    45    40   ar
    49    24    25    1
    50    26    29    1
@<TRIPOS>MOLECULE
*****
 45 50 0 0 0
SMALL
GASTEIGER

@<TRIPOS>ATOM
      1 C         -61.2882  -42.8367  -21.5666 C.ar    1  UNL1        0.1318
      2 C         -60.6362  -42.2896  -20.4480 C.ar    1  UNL1        0.0356
      3 C         -61.1958  -41.1933  -19.7899 C.ar    1  UNL1        0.0191
      4 C         -62.4082  -40.6457  -20.2368 C.ar    1  UNL1        0.0702
      5 C         -63.0139  -41.2022  -21.3701 C.ar    1  UNL1        0.1149
      6 N         -62.4513  -42.2701  -21.9947 N.ar    1  UNL1       -0.2279
      7 C         -59.6172  -46.1778  -23.8821 C.3     1  UNL1        0.0471
      8 C         -58.9955  -45.7120  -22.5442 C.3     1  UNL1        0.0252
      9 C         -59.2918  -44.2359  -22.2595 C.3     1  UNL1        0.0923
     10 N         -60.7411  -43.9707  -22.2745 N.pl3   1  UNL1       -0.2932
     11 C         -61.6482  -44.9273  -22.9278 C.3     1  UNL1        0.0923
     12 C         -60.9881  -45.5118  -24.1809 C.3     1  UNL1        0.0252
     13 C         -59.7132  -47.7118  -23.9291 C.3     1  UNL1        0.2054
     14 O         -60.8001  -48.1104  -24.7623 O.3     1  UNL1       -0.4758
     15 C         -63.4412  -47.8787  -25.7641 C.3     1  UNL1        0.0342
     16 C         -63.0086  -49.0716  -24.9578 C.ar    1  UNL1        0.0121
     17 C         -63.9129  -50.1119  -24.6993 C.ar    1  UNL1       -0.0011
     18 C         -63.5157  -51.2286  -23.9622 C.ar    1  UNL1        0.0063
     19 C         -62.2035  -51.3290  -23.4725 C.ar    1  UNL1        0.0785
     20 C         -61.2944  -50.2902  -23.7365 C.ar    1  UNL1        0.0430
     21 C         -61.6883  -49.1599  -24.4799 C.ar    1  UNL1        0.1347
     22 C         -61.7803  -52.5125  -22.6905 C.2     1  UNL1        0.3381
     23 O         -60.5808  -52.6397  -22.3231 O.2     1  UNL1       -0.2451
     24 O         -62.7039  -53.4984  -22.3525 O.3     1  UNL1       -0.4771
     25 H         -62.4244  -54.3120  -21.8177 H       1  UNL1        0.2954
     26 N         -63.0021  -39.5011  -19.6003 N.am    1  UNL1       -0.2766
     27 C         -63.0854  -38.2036  -20.2086 C.2     1  UNL1        0.2839
     28 O         -62.2518  -37.8673  -21.0922 O.2     1  UNL1       -0.2665
     29 H         -63.2903  -39.5892  -18.6003 H       1  UNL1        0.1553
     30 C         -64.0820  -37.2145  -19.7617 C.ar    1  UNL1        0.1946
     31 O         -63.7420  -36.0974  -19.1429 O.2     1  UNL1       -0.4492
     32 C         -64.8410  -35.4387  -18.8675 C.ar    1  UNL1        0.1452
     33 C         -64.9526  -34.2152  -18.2161 C.ar    1  UNL1        0.0375
     34 C         -66.2405  -33.6860  -18.0220 C.ar    1  UNL1        0.0031
     35 C         -67.3916  -34.3837  -18.4789 C.ar    1  UNL1        0.0002
     36 C         -67.2330  -35.6264  -19.1380 C.ar    1  UNL1        0.0028
     37 C         -65.9402  -36.1206  -19.3136 C.ar    1  UNL1        0.0337
     38 C         -65.4730  -37.2720  -19.9156 C.ar    1  UNL1        0.0202
     39 C         -66.2953  -38.3330  -20.5826 C.3     1  UNL1        0.0345
     40 C         -68.7471  -33.8158  -18.2671 C.ar    1  UNL1        0.0000
     41 C         -68.9286  -32.6802  -17.4547 C.ar    1  UNL1        0.0000
     42 C         -70.2061  -32.1469  -17.2580 C.ar    1  UNL1        0.0000
     43 C         -71.3145  -32.7392  -17.8671 C.ar    1  UNL1        0.0000
     44 C         -71.1478  -33.8660  -18.6751 C.ar    1  UNL1        0.0000
     45 C         -69.8726  -34.4031  -18.8761 C.ar    1  UNL1        0.0000
@<TRIPOS>BOND
     1    15    16    1
     2    16    17   ar
     3    17    18   ar
     4    18    19   ar
     5    19    22    1
     6    22    23    2
     7    22    24    1
     8    19    20   ar
     9    20    21   ar
    10    21    14    1
    11    14    13    1
    12    13     7    1
    13     7     8    1
    14     8     9    1
    15     9    10    1
    16    10     1    1
    17     1     2   ar
    18     2     3   ar
    19     3     4   ar
    20     4    26    1
    21    26    27   am
    22    27    28    2
    23    27    30    1
    24    30    31   ar
    25    31    32   ar
    26    32    33   ar
    27    33    34   ar
    28    34    35   ar
    29    35    40    1
    30    40    41   ar
    31    41    42   ar
    32    42    43   ar
    33    43    44   ar
    34    44    45   ar
    35    35    36   ar
    36    36    37   ar
    37    37    38   ar
    38    38    39    1
    39     4     5   ar
    40     5     6   ar
    41    10    11    1
    42    11    12    1
    43    21    16   ar
    44    12     7    1
    45     6     1   ar
    46    38    30   ar
    47    37    32   ar
    48    45    40   ar
    49    24    25    1
    50    26    29    1
@<TRIPOS>MOLECULE
*****
 45 50 0 0 0
SMALL
GASTEIGER

@<TRIPOS>ATOM
      1 C         -62.2415  -42.6378  -24.0225 C.ar    1  UNL1        0.1318
      2 C         -61.7319  -42.5796  -22.7139 C.ar    1  UNL1        0.0356
      3 C         -62.3383  -41.7462  -21.7727 C.ar    1  UNL1        0.0191
      4 C         -63.4571  -40.9772  -22.1283 C.ar    1  UNL1        0.0702
      5 C         -63.9192  -41.0428  -23.4486 C.ar    1  UNL1        0.1149
      6 N         -63.3135  -41.8619  -24.3481 N.ar    1  UNL1       -0.2279
      7 C         -60.2609  -45.1063  -27.0722 C.3     1  UNL1        0.0471
      8 C         -60.8401  -45.7126  -25.7720 C.3     1  UNL1        0.0252
      9 C         -60.8830  -44.6883  -24.6333 C.3     1  UNL1        0.0923
     10 N         -61.6418  -43.4876  -25.0249 N.pl3   1  UNL1       -0.2932
     11 C         -61.8793  -43.2106  -26.4502 C.3     1  UNL1        0.0923
     12 C         -60.6574  -43.6191  -27.2795 C.3     1  UNL1        0.0252
     13 C         -60.6435  -45.9668  -28.2878 C.3     1  UNL1        0.2054
     14 O         -60.0003  -45.4726  -29.4611 O.3     1  UNL1       -0.4758
     15 C         -58.4174  -44.7140  -31.6863 C.3     1  UNL1        0.0342
     16 C         -59.8775  -44.3654  -31.6054 C.ar    1  UNL1        0.0121
     17 C         -60.4928  -43.6642  -32.6527 C.ar    1  UNL1       -0.0011
     18 C         -61.8507  -43.3476  -32.5911 C.ar    1  UNL1        0.0063
     19 C         -62.6219  -43.7303  -31.4819 C.ar    1  UNL1        0.0785
     20 C         -62.0081  -44.4388  -30.4348 C.ar    1  UNL1        0.0430
     21 C         -60.6378  -44.7620  -30.4900 C.ar    1  UNL1        0.1347
     22 C         -64.0623  -43.3954  -31.4147 C.2     1  UNL1        0.3381
     23 O         -64.4358  -42.2584  -31.0176 O.2     1  UNL1       -0.2451
     24 O         -65.0203  -44.3339  -31.7899 O.3     1  UNL1       -0.4771
     25 H         -66.0083  -44.1145  -31.7476 H       1  UNL1        0.2954
     26 N         -64.0928  -40.0883  -21.1936 N.am    1  UNL1       -0.2766
     27 C         -63.5433  -38.8235  -20.7951 C.2     1  UNL1        0.2839
     28 O         -62.2988  -38.6317  -20.8508 O.2     1  UNL1       -0.2665
     29 H         -64.9451  -40.4277  -20.6942 H       1  UNL1        0.1553
     30 C         -64.3998  -37.7611  -20.2392 C.ar    1  UNL1        0.1946
     31 O         -63.9088  -36.7391  -19.5603 O.2     1  UNL1       -0.4492
     32 C         -64.9119  -35.9797  -19.1935 C.ar    1  UNL1        0.1452
     33 C         -64.8554  -34.8025  -18.4556 C.ar    1  UNL1        0.0375
     34 C         -66.0642  -34.1435  -18.1706 C.ar    1  UNL1        0.0031
     35 C         -67.3048  -34.6682  -18.6245 C.ar    1  UNL1        0.0002
     36 C         -67.3173  -35.8693  -19.3736 C.ar    1  UNL1        0.0028
     37 C         -66.0989  -36.4956  -19.6378 C.ar    1  UNL1        0.0337
     38 C         -65.7923  -37.6461  -20.3369 C.ar    1  UNL1        0.0202
     39 C         -66.7570  -38.5532  -21.0392 C.3     1  UNL1        0.0345
     40 C         -68.5755  -33.9644  -18.3164 C.ar    1  UNL1        0.0000
     41 C         -68.5767  -32.8078  -17.5134 C.ar    1  UNL1        0.0000
     42 C         -69.7747  -32.1465  -17.2258 C.ar    1  UNL1        0.0000
     43 C         -70.9821  -32.6304  -17.7340 C.ar    1  UNL1        0.0000
     44 C         -70.9943  -33.7767  -18.5316 C.ar    1  UNL1        0.0000
     45 C         -69.7993  -34.4417  -18.8231 C.ar    1  UNL1        0.0000
@<TRIPOS>BOND
     1    15    16    1
     2    16    17   ar
     3    17    18   ar
     4    18    19   ar
     5    19    22    1
     6    22    23    2
     7    22    24    1
     8    19    20   ar
     9    20    21   ar
    10    21    14    1
    11    14    13    1
    12    13     7    1
    13     7     8    1
    14     8     9    1
    15     9    10    1
    16    10     1    1
    17     1     2   ar
    18     2     3   ar
    19     3     4   ar
    20     4    26    1
    21    26    27   am
    22    27    28    2
    23    27    30    1
    24    30    31   ar
    25    31    32   ar
    26    32    33   ar
    27    33    34   ar
    28    34    35   ar
    29    35    40    1
    30    40    41   ar
    31    41    42   ar
    32    42    43   ar
    33    43    44   ar
    34    44    45   ar
    35    35    36   ar
    36    36    37   ar
    37    37    38   ar
    38    38    39    1
    39     4     5   ar
    40     5     6   ar
    41    10    11    1
    42    11    12    1
    43    21    16   ar
    44    12     7    1
    45     6     1   ar
    46    38    30   ar
    47    37    32   ar
    48    45    40   ar
    49    24    25    1
    50    26    29    1
@<TRIPOS>MOLECULE
*****
 45 50 0 0 0
SMALL
GASTEIGER

@<TRIPOS>ATOM
      1 C         -61.4353  -43.0777  -21.3457 C.ar    1  UNL1        0.1318
      2 C         -60.5651  -42.1942  -20.6839 C.ar    1  UNL1        0.0356
      3 C         -61.0780  -41.0526  -20.0660 C.ar    1  UNL1        0.0191
      4 C         -62.4568  -40.7927  -20.0971 C.ar    1  UNL1        0.0702
      5 C         -63.2879  -41.6828  -20.7885 C.ar    1  UNL1        0.1149
      6 N         -62.7666  -42.7885  -21.3821 N.ar    1  UNL1       -0.2279
      7 C         -59.8077  -46.7230  -23.1838 C.3     1  UNL1        0.0471
      8 C         -61.3199  -46.5444  -22.9100 C.3     1  UNL1        0.0252
      9 C         -61.5806  -45.5750  -21.7525 C.3     1  UNL1        0.0923
     10 N         -60.9432  -44.2693  -21.9971 N.pl3   1  UNL1       -0.2932
     11 C         -59.8651  -44.1619  -22.9925 C.3     1  UNL1        0.0923
     12 C         -58.9913  -45.4202  -22.9643 C.3     1  UNL1        0.0252
     13 C         -59.5771  -47.3033  -24.5890 C.3     1  UNL1        0.2054
     14 O         -59.9211  -46.3381  -25.5813 O.3     1  UNL1       -0.4758
     15 C         -60.9856  -43.8060  -26.2796 C.3     1  UNL1        0.0342
     16 C         -61.6783  -45.0831  -26.6659 C.ar    1  UNL1        0.0121
     17 C         -62.8705  -45.0419  -27.4035 C.ar    1  UNL1       -0.0011
     18 C         -63.5133  -46.2232  -27.7768 C.ar    1  UNL1        0.0063
     19 C         -62.9735  -47.4704  -27.4234 C.ar    1  UNL1        0.0785
     20 C         -61.7754  -47.5132  -26.6900 C.ar    1  UNL1        0.0430
     21 C         -61.1209  -46.3248  -26.3096 C.ar    1  UNL1        0.1347
     22 C         -63.6538  -48.7244  -27.8184 C.2     1  UNL1        0.3381
     23 O         -63.7992  -49.0158  -29.0366 O.2     1  UNL1       -0.2451
     24 O         -64.1406  -49.5958  -26.8473 O.3     1  UNL1       -0.4771
     25 H         -64.6076  -50.4563  -27.1072 H       1  UNL1        0.2954
     26 N         -63.0188  -39.6144  -19.4940 N.am    1  UNL1       -0.2766
     27 C         -63.1251  -38.3489  -20.1630 C.2     1  UNL1        0.2839
     28 O         -62.3301  -38.0620  -21.0981 O.2     1  UNL1       -0.2665
     29 H         -63.2631  -39.6504  -18.4791 H       1  UNL1        0.1553
     30 C         -64.0982  -37.3334  -19.7236 C.ar    1  UNL1        0.1946
     31 O         -63.7324  -36.2223  -19.1086 O.2     1  UNL1       -0.4492
     32 C         -64.8156  -35.5353  -18.8396 C.ar    1  UNL1        0.1452
     33 C         -64.8988  -34.3066  -18.1939 C.ar    1  UNL1        0.0375
     34 C         -66.1738  -33.7448  -18.0062 C.ar    1  UNL1        0.0031
     35 C         -67.3404  -34.4157  -18.4637 C.ar    1  UNL1        0.0002
     36 C         -67.2107  -35.6649  -19.1169 C.ar    1  UNL1        0.0028
     37 C         -65.9301  -36.1918  -19.2862 C.ar    1  UNL1        0.0337
     38 C         -65.4897  -37.3571  -19.8817 C.ar    1  UNL1        0.0202
     39 C         -66.3361  -38.4003  -20.5466 C.3     1  UNL1        0.0345
     40 C         -68.6821  -33.8134  -18.2587 C.ar    1  UNL1        0.0000
     41 C         -69.8169  -34.3632  -18.8854 C.ar    1  UNL1        0.0000
     42 C         -71.0792  -33.7946  -18.6896 C.ar    1  UNL1        0.0000
     43 C         -71.2237  -32.6736  -17.8692 C.ar    1  UNL1        0.0000
     44 C         -70.1059  -32.1189  -17.2422 C.ar    1  UNL1        0.0000
     45 C         -68.8413  -32.6837  -17.4336 C.ar    1  UNL1        0.0000
@<TRIPOS>BOND
     1    15    16    1
     2    16    17   ar
     3    17    18   ar
     4    18    19   ar
     5    19    22    1
     6    22    23    2
     7    22    24    1
     8    19    20   ar
     9    20    21   ar
    10    21    14    1
    11    14    13    1
    12    13     7    1
    13     7     8    1
    14     8     9    1
    15     9    10    1
    16    10     1    1
    17     1     2   ar
    18     2     3   ar
    19     3     4   ar
    20     4    26    1
    21    26    27   am
    22    27    28    2
    23    27    30    1
    24    30    31   ar
    25    31    32   ar
    26    32    33   ar
    27    33    34   ar
    28    34    35   ar
    29    35    40    1
    30    40    41   ar
    31    41    42   ar
    32    42    43   ar
    33    43    44   ar
    34    44    45   ar
    35    35    36   ar
    36    36    37   ar
    37    37    38   ar
    38    38    39    1
    39     4     5   ar
    40     5     6   ar
    41    10    11    1
    42    11    12    1
    43    21    16   ar
    44    12     7    1
    45     6     1   ar
    46    38    30   ar
    47    37    32   ar
    48    45    40   ar
    49    24    25    1
    50    26    29    1
@<TRIPOS>MOLECULE
*****
 45 50 0 0 0
SMALL
GASTEIGER

@<TRIPOS>ATOM
      1 C         -61.2597  -43.4380  -21.3262 C.ar    1  UNL1        0.1318
      2 C         -60.3728  -42.5221  -20.7345 C.ar    1  UNL1        0.0356
      3 C         -60.8723  -41.3632  -20.1383 C.ar    1  UNL1        0.0191
      4 C         -62.2540  -41.1179  -20.1212 C.ar    1  UNL1        0.0702
      5 C         -63.1031  -42.0412  -20.7437 C.ar    1  UNL1        0.1149
      6 N         -62.5945  -43.1633  -21.3175 N.ar    1  UNL1       -0.2279
      7 C         -59.6426  -47.1062  -23.1277 C.3     1  UNL1        0.0471
      8 C         -61.0510  -47.0549  -22.4896 C.3     1  UNL1        0.0252
      9 C         -61.1518  -45.9686  -21.4137 C.3     1  UNL1        0.0923
     10 N         -60.7818  -44.6484  -21.9532 N.pl3   1  UNL1       -0.2932
     11 C         -60.0067  -44.5643  -23.2008 C.3     1  UNL1        0.0923
     12 C         -58.9865  -45.7055  -23.2682 C.3     1  UNL1        0.0252
     13 C         -59.6854  -47.8468  -24.4747 C.3     1  UNL1        0.2054
     14 O         -61.0019  -47.7960  -25.0211 O.3     1  UNL1       -0.4758
     15 C         -63.5667  -48.4052  -26.0621 C.3     1  UNL1        0.0342
     16 C         -62.5984  -47.5372  -26.8166 C.ar    1  UNL1        0.0121
     17 C         -62.9603  -46.9931  -28.0575 C.ar    1  UNL1       -0.0011
     18 C         -62.0719  -46.1762  -28.7586 C.ar    1  UNL1        0.0063
     19 C         -60.8045  -45.8834  -28.2298 C.ar    1  UNL1        0.0785
     20 C         -60.4432  -46.4226  -26.9833 C.ar    1  UNL1        0.0430
     21 C         -61.3348  -47.2481  -26.2698 C.ar    1  UNL1        0.1347
     22 C         -59.8609  -45.0172  -28.9719 C.2     1  UNL1        0.3381
     23 O         -59.8064  -43.7803  -28.7329 O.2     1  UNL1       -0.2451
     24 O         -59.0230  -45.5605  -29.9425 O.3     1  UNL1       -0.4771
     25 H         -58.3739  -44.9763  -30.4558 H       1  UNL1        0.2954
     26 N         -62.8037  -39.9234  -19.5390 N.am    1  UNL1       -0.2766
     27 C         -62.8955  -38.6685  -20.2298 C.2     1  UNL1        0.2839
     28 O         -62.0966  -38.4064  -21.1689 O.2     1  UNL1       -0.2665
     29 H         -63.0492  -39.9393  -18.5239 H       1  UNL1        0.1553
     30 C         -63.8578  -37.6350  -19.8090 C.ar    1  UNL1        0.1946
     31 O         -63.4792  -36.5110  -19.2261 O.2     1  UNL1       -0.4492
     32 C         -64.5553  -35.8096  -18.9661 C.ar    1  UNL1        0.1452
     33 C         -64.6246  -34.5639  -18.3519 C.ar    1  UNL1        0.0375
     34 C         -65.8941  -33.9883  -18.1684 C.ar    1  UNL1        0.0031
     35 C         -67.0691  -34.6626  -18.5986 C.ar    1  UNL1        0.0002
     36 C         -66.9536  -35.9292  -19.2202 C.ar    1  UNL1        0.0028
     37 C         -65.6780  -36.4695  -19.3862 C.ar    1  UNL1        0.0337
     38 C         -65.2508  -37.6529  -19.9548 C.ar    1  UNL1        0.0202
     39 C         -66.1099  -38.7070  -20.5854 C.3     1  UNL1        0.0345
     40 C         -68.4049  -34.0457  -18.3983 C.ar    1  UNL1        0.0000
     41 C         -69.5374  -34.5608  -19.0575 C.ar    1  UNL1        0.0000
     42 C         -70.7941  -33.9785  -18.8660 C.ar    1  UNL1        0.0000
     43 C         -70.9352  -32.8781  -18.0177 C.ar    1  UNL1        0.0000
     44 C         -69.8195  -32.3577  -17.3582 C.ar    1  UNL1        0.0000
     45 C         -68.5605  -32.9364  -17.5452 C.ar    1  UNL1        0.0000
@<TRIPOS>BOND
     1    15    16    1
     2    16    17   ar
     3    17    18   ar
     4    18    19   ar
     5    19    22    1
     6    22    23    2
     7    22    24    1
     8    19    20   ar
     9    20    21   ar
    10    21    14    1
    11    14    13    1
    12    13     7    1
    13     7     8    1
    14     8     9    1
    15     9    10    1
    16    10     1    1
    17     1     2   ar
    18     2     3   ar
    19     3     4   ar
    20     4    26    1
    21    26    27   am
    22    27    28    2
    23    27    30    1
    24    30    31   ar
    25    31    32   ar
    26    32    33   ar
    27    33    34   ar
    28    34    35   ar
    29    35    40    1
    30    40    41   ar
    31    41    42   ar
    32    42    43   ar
    33    43    44   ar
    34    44    45   ar
    35    35    36   ar
    36    36    37   ar
    37    37    38   ar
    38    38    39    1
    39     4     5   ar
    40     5     6   ar
    41    10    11    1
    42    11    12    1
    43    21    16   ar
    44    12     7    1
    45     6     1   ar
    46    38    30   ar
    47    37    32   ar
    48    45    40   ar
    49    24    25    1
    50    26    29    1
@<TRIPOS>MOLECULE
*****
 45 50 0 0 0
SMALL
GASTEIGER

@<TRIPOS>ATOM
      1 C         -61.1649  -43.1759  -21.1772 C.ar    1  UNL1        0.1318
      2 C         -60.3225  -42.2998  -20.4712 C.ar    1  UNL1        0.0356
      3 C         -60.8528  -41.1425  -19.8987 C.ar    1  UNL1        0.0191
      4 C         -62.2222  -40.8597  -20.0191 C.ar    1  UNL1        0.0702
      5 C         -63.0239  -41.7434  -20.7521 C.ar    1  UNL1        0.1149
      6 N         -62.4860  -42.8646  -21.3003 N.ar    1  UNL1       -0.2279
      7 C         -59.7266  -46.8159  -23.1766 C.3     1  UNL1        0.0471
      8 C         -58.7582  -45.7421  -22.6267 C.3     1  UNL1        0.0252
      9 C         -59.4109  -44.3568  -22.5743 C.3     1  UNL1        0.0923
     10 N         -60.6541  -44.3831  -21.7839 N.pl3   1  UNL1       -0.2932
     11 C         -61.3227  -45.6674  -21.5234 C.3     1  UNL1        0.0923
     12 C         -61.2004  -46.5852  -22.7443 C.3     1  UNL1        0.0252
     13 C         -59.2422  -48.2257  -22.7991 C.3     1  UNL1        0.2054
     14 O         -59.6151  -49.1600  -23.8103 O.3     1  UNL1       -0.4758
     15 C         -59.9420  -51.7462  -22.6977 C.3     1  UNL1        0.0342
     16 C         -61.0733  -51.0413  -23.3931 C.ar    1  UNL1        0.0121
     17 C         -62.3314  -51.6536  -23.4886 C.ar    1  UNL1       -0.0011
     18 C         -63.3903  -51.0007  -24.1216 C.ar    1  UNL1        0.0063
     19 C         -63.2129  -49.7195  -24.6681 C.ar    1  UNL1        0.0785
     20 C         -61.9544  -49.1021  -24.5671 C.ar    1  UNL1        0.0430
     21 C         -60.8808  -49.7550  -23.9295 C.ar    1  UNL1        0.1347
     22 C         -64.3347  -49.0255  -25.3398 C.2     1  UNL1        0.3381
     23 O         -64.1836  -48.5330  -26.4907 O.2     1  UNL1       -0.2451
     24 O         -65.5695  -48.9095  -24.7065 O.3     1  UNL1       -0.4771
     25 H         -66.3434  -48.4366  -25.1577 H       1  UNL1        0.2954
     26 N         -62.8000  -39.6652  -19.4649 N.am    1  UNL1       -0.2766
     27 C         -62.9727  -38.4459  -20.2025 C.2     1  UNL1        0.2839
     28 O         -62.2229  -38.1913  -21.1831 O.2     1  UNL1       -0.2665
     29 H         -63.0052  -39.6478  -18.4409 H       1  UNL1        0.1553
     30 C         -63.9618  -37.4363  -19.7859 C.ar    1  UNL1        0.1946
     31 O         -63.6122  -36.2956  -19.2175 O.2     1  UNL1       -0.4492
     32 C         -64.7064  -35.6229  -18.9575 C.ar    1  UNL1        0.1452
     33 C         -64.8077  -34.3732  -18.3560 C.ar    1  UNL1        0.0375
     34 C         -66.0921  -33.8327  -18.1698 C.ar    1  UNL1        0.0031
     35 C         -67.2499  -34.5452  -18.5849 C.ar    1  UNL1        0.0002
     36 C         -67.1018  -35.8145  -19.1938 C.ar    1  UNL1        0.0028
     37 C         -65.8122  -36.3194  -19.3630 C.ar    1  UNL1        0.0337
     38 C         -65.3546  -37.4960  -19.9220 C.ar    1  UNL1        0.0202
     39 C         -66.1869  -38.5812  -20.5356 C.3     1  UNL1        0.0345
     40 C         -68.6016  -33.9651  -18.3819 C.ar    1  UNL1        0.0000
     41 C         -69.7234  -34.5212  -19.0260 C.ar    1  UNL1        0.0000
     42 C         -70.9952  -33.9734  -18.8321 C.ar    1  UNL1        0.0000
     43 C         -71.1622  -32.8672  -17.9962 C.ar    1  UNL1        0.0000
     44 C         -70.0574  -32.3063  -17.3518 C.ar    1  UNL1        0.0000
     45 C         -68.7834  -32.8503  -17.5413 C.ar    1  UNL1        0.0000
@<TRIPOS>BOND
     1    15    16    1
     2    16    17   ar
     3    17    18   ar
     4    18    19   ar
     5    19    22    1
     6    22    23    2
     7    22    24    1
     8    19    20   ar
     9    20    21   ar
    10    21    14    1
    11    14    13    1
    12    13     7    1
    13     7     8    1
    14     8     9    1
    15     9    10    1
    16    10     1    1
    17     1     2   ar
    18     2     3   ar
    19     3     4   ar
    20     4    26    1
    21    26    27   am
    22    27    28    2
    23    27    30    1
    24    30    31   ar
    25    31    32   ar
    26    32    33   ar
    27    33    34   ar
    28    34    35   ar
    29    35    40    1
    30    40    41   ar
    31    41    42   ar
    32    42    43   ar
    33    43    44   ar
    34    44    45   ar
    35    35    36   ar
    36    36    37   ar
    37    37    38   ar
    38    38    39    1
    39     4     5   ar
    40     5     6   ar
    41    10    11    1
    42    11    12    1
    43    21    16   ar
    44    12     7    1
    45     6     1   ar
    46    38    30   ar
    47    37    32   ar
    48    45    40   ar
    49    24    25    1
    50    26    29    1
@<TRIPOS>MOLECULE
*****
 45 50 0 0 0
SMALL
GASTEIGER

@<TRIPOS>ATOM
      1 C         -61.4047  -43.1753  -21.2637 C.ar    1  UNL1        0.1318
      2 C         -60.5217  -42.2764  -20.6408 C.ar    1  UNL1        0.0356
      3 C         -61.0218  -41.1179  -20.0443 C.ar    1  UNL1        0.0191
      4 C         -62.4005  -40.8562  -20.0580 C.ar    1  UNL1        0.0702
      5 C         -63.2451  -41.7624  -20.7109 C.ar    1  UNL1        0.1149
      6 N         -62.7360  -42.8845  -21.2843 N.ar    1  UNL1       -0.2279
      7 C         -60.0459  -46.8047  -23.3367 C.3     1  UNL1        0.0471
      8 C         -59.0606  -45.8414  -22.6332 C.3     1  UNL1        0.0252
      9 C         -59.6122  -44.4139  -22.5582 C.3     1  UNL1        0.0923
     10 N         -60.9261  -44.3846  -21.8920 N.pl3   1  UNL1       -0.2932
     11 C         -61.7093  -45.6245  -21.7748 C.3     1  UNL1        0.0923
     12 C         -61.5343  -46.4821  -23.0323 C.3     1  UNL1        0.0252
     13 C         -59.7056  -48.2664  -23.0019 C.3     1  UNL1        0.2054
     14 O         -60.1197  -49.1227  -24.0648 O.3     1  UNL1       -0.4758
     15 C         -61.9962  -50.8787  -22.8699 C.3     1  UNL1        0.0342
     16 C         -62.3627  -50.0216  -24.0494 C.ar    1  UNL1        0.0121
     17 C         -63.6626  -50.0651  -24.5741 C.ar    1  UNL1       -0.0011
     18 C         -64.0145  -49.2635  -25.6611 C.ar    1  UNL1        0.0063
     19 C         -63.0736  -48.3983  -26.2425 C.ar    1  UNL1        0.0785
     20 C         -61.7726  -48.3490  -25.7134 C.ar    1  UNL1        0.0430
     21 C         -61.4101  -49.1553  -24.6162 C.ar    1  UNL1        0.1347
     22 C         -63.4449  -47.5474  -27.3955 C.2     1  UNL1        0.3381
     23 O         -63.0163  -46.3645  -27.4806 O.2     1  UNL1       -0.2451
     24 O         -64.2725  -48.0453  -28.3987 O.3     1  UNL1       -0.4771
     25 H         -64.5324  -47.4710  -29.1917 H       1  UNL1        0.2954
     26 N         -62.9500  -39.6612  -19.4764 N.am    1  UNL1       -0.2766
     27 C         -63.0988  -38.4233  -20.1876 C.2     1  UNL1        0.2839
     28 O         -62.3474  -38.1645  -21.1659 O.2     1  UNL1       -0.2665
     29 H         -63.1507  -39.6609  -18.4514 H       1  UNL1        0.1553
     30 C         -64.0640  -37.4013  -19.7457 C.ar    1  UNL1        0.1946
     31 O         -63.6893  -36.2927  -19.1318 O.2     1  UNL1       -0.4492
     32 C         -64.7672  -35.5985  -18.8600 C.ar    1  UNL1        0.1452
     33 C         -64.8406  -34.3692  -18.2143 C.ar    1  UNL1        0.0375
     34 C         -66.1114  -33.7989  -18.0233 C.ar    1  UNL1        0.0031
     35 C         -67.2836  -34.4622  -18.4776 C.ar    1  UNL1        0.0002
     36 C         -67.1639  -35.7122  -19.1310 C.ar    1  UNL1        0.0028
     37 C         -65.8871  -36.2477  -19.3036 C.ar    1  UNL1        0.0337
     38 C         -65.4561  -37.4159  -19.9001 C.ar    1  UNL1        0.0202
     39 C         -66.3111  -38.4535  -20.5627 C.3     1  UNL1        0.0345
     40 C         -68.6207  -33.8510  -18.2691 C.ar    1  UNL1        0.0000
     41 C         -68.7629  -32.6905  -17.4845 C.ar    1  UNL1        0.0000
     42 C         -70.0232  -32.1166  -17.2908 C.ar    1  UNL1        0.0000
     43 C         -71.1532  -32.6925  -17.8755 C.ar    1  UNL1        0.0000
     44 C         -71.0254  -33.8437  -18.6558 C.ar    1  UNL1        0.0000
     45 C         -69.7676  -34.4215  -18.8535 C.ar    1  UNL1        0.0000
@<TRIPOS>BOND
     1    15    16    1
     2    16    17   ar
     3    17    18   ar
     4    18    19   ar
     5    19    22    1
     6    22    23    2
     7    22    24    1
     8    19    20   ar
     9    20    21   ar
    10    21    14    1
    11    14    13    1
    12    13     7    1
    13     7     8    1
    14     8     9    1
    15     9    10    1
    16    10     1    1
    17     1     2   ar
    18     2     3   ar
    19     3     4   ar
    20     4    26    1
    21    26    27   am
    22    27    28    2
    23    27    30    1
    24    30    31   ar
    25    31    32   ar
    26    32    33   ar
    27    33    34   ar
    28    34    35   ar
    29    35    40    1
    30    40    41   ar
    31    41    42   ar
    32    42    43   ar
    33    43    44   ar
    34    44    45   ar
    35    35    36   ar
    36    36    37   ar
    37    37    38   ar
    38    38    39    1
    39     4     5   ar
    40     5     6   ar
    41    10    11    1
    42    11    12    1
    43    21    16   ar
    44    12     7    1
    45     6     1   ar
    46    38    30   ar
    47    37    32   ar
    48    45    40   ar
    49    24    25    1
    50    26    29    1
@<TRIPOS>MOLECULE
*****
 45 50 0 0 0
SMALL
GASTEIGER

@<TRIPOS>ATOM
      1 C         -62.3195  -42.7757  -23.7356 C.ar    1  UNL1        0.1318
      2 C         -61.8915  -42.7976  -22.3969 C.ar    1  UNL1        0.0356
      3 C         -62.4645  -41.9215  -21.4738 C.ar    1  UNL1        0.0191
      4 C         -63.4699  -41.0295  -21.8779 C.ar    1  UNL1        0.0702
      5 C         -63.8508  -41.0198  -23.2253 C.ar    1  UNL1        0.1149
      6 N         -63.2796  -41.8824  -24.1065 N.ar    1  UNL1       -0.2279
      7 C         -60.4249  -45.3810  -26.7254 C.3     1  UNL1        0.0471
      8 C         -61.1019  -45.9449  -25.4537 C.3     1  UNL1        0.0252
      9 C         -61.1072  -44.9260  -24.3093 C.3     1  UNL1        0.0923
     10 N         -61.7510  -43.6661  -24.7206 N.pl3   1  UNL1       -0.2932
     11 C         -61.9089  -43.3640  -26.1517 C.3     1  UNL1        0.0923
     12 C         -60.6920  -43.8656  -26.9361 C.3     1  UNL1        0.0252
     13 C         -60.8271  -46.2019  -27.9619 C.3     1  UNL1        0.2054
     14 O         -61.9463  -45.5990  -28.6087 O.3     1  UNL1       -0.4758
     15 C         -64.2204  -44.0521  -29.2928 C.3     1  UNL1        0.0342
     16 C         -63.0011  -44.0876  -30.1715 C.ar    1  UNL1        0.0121
     17 C         -62.9620  -43.3315  -31.3520 C.ar    1  UNL1       -0.0011
     18 C         -61.8291  -43.3492  -32.1670 C.ar    1  UNL1        0.0063
     19 C         -60.7100  -44.1207  -31.8147 C.ar    1  UNL1        0.0785
     20 C         -60.7453  -44.8736  -30.6285 C.ar    1  UNL1        0.0430
     21 C         -61.8855  -44.8606  -29.8008 C.ar    1  UNL1        0.1347
     22 C         -59.5075  -44.1408  -32.6778 C.2     1  UNL1        0.3381
     23 O         -59.5303  -43.6017  -33.8175 O.2     1  UNL1       -0.2451
     24 O         -58.3378  -44.7561  -32.2391 O.3     1  UNL1       -0.4771
     25 H         -57.5096  -44.7753  -32.8222 H       1  UNL1        0.2954
     26 N         -64.0657  -40.0950  -20.9615 N.am    1  UNL1       -0.2766
     27 C         -63.5566  -38.7737  -20.7258 C.2     1  UNL1        0.2839
     28 O         -62.3364  -38.5248  -20.9204 O.2     1  UNL1       -0.2665
     29 H         -64.8454  -40.4317  -20.3536 H       1  UNL1        0.1553
     30 C         -64.4178  -37.7112  -20.1776 C.ar    1  UNL1        0.1946
     31 O         -63.9301  -36.6745  -19.5190 O.2     1  UNL1       -0.4492
     32 C         -64.9370  -35.9191  -19.1539 C.ar    1  UNL1        0.1452
     33 C         -64.8846  -34.7303  -18.4343 C.ar    1  UNL1        0.0375
     34 C         -66.0969  -34.0786  -18.1475 C.ar    1  UNL1        0.0031
     35 C         -67.3367  -34.6218  -18.5814 C.ar    1  UNL1        0.0002
     36 C         -67.3449  -35.8341  -19.3122 C.ar    1  UNL1        0.0028
     37 C         -66.1231  -36.4528  -19.5788 C.ar    1  UNL1        0.0337
     38 C         -65.8123  -37.6108  -20.2635 C.ar    1  UNL1        0.0202
     39 C         -66.7749  -38.5375  -20.9427 C.3     1  UNL1        0.0345
     40 C         -68.6111  -33.9254  -18.2715 C.ar    1  UNL1        0.0000
     41 C         -69.8342  -34.4171  -18.7664 C.ar    1  UNL1        0.0000
     42 C         -71.0327  -33.7599  -18.4721 C.ar    1  UNL1        0.0000
     43 C         -71.0251  -32.6074  -17.6834 C.ar    1  UNL1        0.0000
     44 C         -69.8185  -32.1096  -17.1866 C.ar    1  UNL1        0.0000
     45 C         -68.6170  -32.7630  -17.4770 C.ar    1  UNL1        0.0000
@<TRIPOS>BOND
     1    15    16    1
     2    16    17   ar
     3    17    18   ar
     4    18    19   ar
     5    19    22    1
     6    22    23    2
     7    22    24    1
     8    19    20   ar
     9    20    21   ar
    10    21    14    1
    11    14    13    1
    12    13     7    1
    13     7     8    1
    14     8     9    1
    15     9    10    1
    16    10     1    1
    17     1     2   ar
    18     2     3   ar
    19     3     4   ar
    20     4    26    1
    21    26    27   am
    22    27    28    2
    23    27    30    1
    24    30    31   ar
    25    31    32   ar
    26    32    33   ar
    27    33    34   ar
    28    34    35   ar
    29    35    40    1
    30    40    41   ar
    31    41    42   ar
    32    42    43   ar
    33    43    44   ar
    34    44    45   ar
    35    35    36   ar
    36    36    37   ar
    37    37    38   ar
    38    38    39    1
    39     4     5   ar
    40     5     6   ar
    41    10    11    1
    42    11    12    1
    43    21    16   ar
    44    12     7    1
    45     6     1   ar
    46    38    30   ar
    47    37    32   ar
    48    45    40   ar
    49    24    25    1
    50    26    29    1
@<TRIPOS>MOLECULE
*****
 45 50 0 0 0
SMALL
GASTEIGER

@<TRIPOS>ATOM
      1 C         -62.2037  -43.2825  -23.5845 C.ar    1  UNL1        0.1318
      2 C         -61.9421  -43.4081  -22.2092 C.ar    1  UNL1        0.0356
      3 C         -62.4983  -42.4934  -21.3137 C.ar    1  UNL1        0.0191
      4 C         -63.3225  -41.4588  -21.7828 C.ar    1  UNL1        0.0702
      5 C         -63.5383  -41.3515  -23.1623 C.ar    1  UNL1        0.1149
      6 N         -62.9870  -42.2541  -24.0157 N.ar    1  UNL1       -0.2279
      7 C         -60.3456  -45.9938  -26.5021 C.3     1  UNL1        0.0471
      8 C         -60.9771  -46.5085  -25.1869 C.3     1  UNL1        0.0252
      9 C         -60.9692  -45.4371  -24.0915 C.3     1  UNL1        0.0923
     10 N         -61.6466  -44.2088  -24.5426 N.pl3   1  UNL1       -0.2932
     11 C         -61.8492  -43.9771  -25.9813 C.3     1  UNL1        0.0923
     12 C         -60.6455  -44.4947  -26.7756 C.3     1  UNL1        0.0252
     13 C         -60.7668  -46.8786  -27.6872 C.3     1  UNL1        0.2054
     14 O         -62.1744  -47.1070  -27.6533 O.3     1  UNL1       -0.4758
     15 C         -63.9287  -49.1795  -28.4656 C.3     1  UNL1        0.0342
     16 C         -63.9409  -47.8329  -29.1338 C.ar    1  UNL1        0.0121
     17 C         -64.8454  -47.5711  -30.1732 C.ar    1  UNL1       -0.0011
     18 C         -64.8717  -46.3195  -30.7904 C.ar    1  UNL1        0.0063
     19 C         -63.9962  -45.3026  -30.3768 C.ar    1  UNL1        0.0785
     20 C         -63.0939  -45.5615  -29.3309 C.ar    1  UNL1        0.0430
     21 C         -63.0616  -46.8226  -28.7031 C.ar    1  UNL1        0.1347
     22 C         -64.0226  -43.9746  -31.0303 C.2     1  UNL1        0.3381
     23 O         -65.0537  -43.2517  -30.9663 O.2     1  UNL1       -0.2451
     24 O         -62.9075  -43.5100  -31.7232 O.3     1  UNL1       -0.4771
     25 H         -62.9155  -42.6028  -32.1737 H       1  UNL1        0.2954
     26 N         -63.8926  -40.4829  -20.8937 N.am    1  UNL1       -0.2766
     27 C         -63.3638  -39.1603  -20.7160 C.2     1  UNL1        0.2839
     28 O         -62.1438  -38.9345  -20.9381 O.2     1  UNL1       -0.2665
     29 H         -64.6668  -40.7865  -20.2619 H       1  UNL1        0.1553
     30 C         -64.2034  -38.0670  -20.1955 C.ar    1  UNL1        0.1946
     31 O         -63.7009  -37.0507  -19.5164 O.2     1  UNL1       -0.4492
     32 C         -64.6909  -36.2584  -19.1852 C.ar    1  UNL1        0.1452
     33 C         -64.6195  -35.0738  -18.4603 C.ar    1  UNL1        0.0375
     34 C         -65.8158  -34.3772  -18.2151 C.ar    1  UNL1        0.0031
     35 C         -67.0589  -34.8722  -18.6949 C.ar    1  UNL1        0.0002
     36 C         -67.0866  -36.0820  -19.4294 C.ar    1  UNL1        0.0028
     37 C         -65.8803  -36.7460  -19.6541 C.ar    1  UNL1        0.0337
     38 C         -65.5891  -37.9136  -20.3309 C.ar    1  UNL1        0.0202
     39 C         -66.5610  -38.8019  -21.0472 C.3     1  UNL1        0.0345
     40 C         -68.3164  -34.1286  -18.4286 C.ar    1  UNL1        0.0000
     41 C         -69.5421  -34.5853  -18.9499 C.ar    1  UNL1        0.0000
     42 C         -70.7247  -33.8836  -18.6966 C.ar    1  UNL1        0.0000
     43 C         -70.6984  -32.7212  -17.9230 C.ar    1  UNL1        0.0000
     44 C         -69.4890  -32.2579  -17.4004 C.ar    1  UNL1        0.0000
     45 C         -68.3034  -32.9558  -17.6497 C.ar    1  UNL1        0.0000
@<TRIPOS>BOND
     1    15    16    1
     2    16    17   ar
     3    17    18   ar
     4    18    19   ar
     5    19    22    1
     6    22    23    2
     7    22    24    1
     8    19    20   ar
     9    20    21   ar
    10    21    14    1
    11    14    13    1
    12    13     7    1
    13     7     8    1
    14     8     9    1
    15     9    10    1
    16    10     1    1
    17     1     2   ar
    18     2     3   ar
    19     3     4   ar
    20     4    26    1
    21    26    27   am
    22    27    28    2
    23    27    30    1
    24    30    31   ar
    25    31    32   ar
    26    32    33   ar
    27    33    34   ar
    28    34    35   ar
    29    35    40    1
    30    40    41   ar
    31    41    42   ar
    32    42    43   ar
    33    43    44   ar
    34    44    45   ar
    35    35    36   ar
    36    36    37   ar
    37    37    38   ar
    38    38    39    1
    39     4     5   ar
    40     5     6   ar
    41    10    11    1
    42    11    12    1
    43    21    16   ar
    44    12     7    1
    45     6     1   ar
    46    38    30   ar
    47    37    32   ar
    48    45    40   ar
    49    24    25    1
    50    26    29    1
