@<TRIPOS>MOLECULE
*****
 43 47 0 0 0
SMALL
GASTEIGER

@<TRIPOS>ATOM
      1 C         -31.3595   48.5687   -9.2053 C.3     1  UNL1        0.1332
      2 N         -30.3805   49.1539  -10.1210 N.ar    1  UNL1       -0.2977
      3 C         -30.3726   49.1186  -11.4812 C.ar    1  UNL1        0.2018
      4 N         -29.3104   49.7585  -12.0366 N.ar    1  UNL1       -0.2133
      5 C         -28.6216   50.2011  -10.9679 C.ar    1  UNL1        0.1061
      6 C         -27.4227   50.9442  -10.9689 C.ar    1  UNL1        0.1018
      7 C         -26.8518   51.2781   -9.6989 C.ar    1  UNL1        0.0950
      8 C         -27.5465   50.8836   -8.5310 C.ar    1  UNL1        0.1403
      9 C         -28.7293   50.1879   -8.5723 C.ar    1  UNL1        0.0327
     10 C         -29.2623   49.8374   -9.8121 C.ar    1  UNL1        0.0791
     11 C         -29.2032   49.9011   -7.1905 C.3     1  UNL1        0.0709
     12 C         -28.0711   50.5193   -6.3059 C.3     1  UNL1        0.1375
     13 C         -27.3556   49.4396   -5.4825 C.3     1  UNL1        0.0439
     14 C         -28.6158   51.6202   -5.3860 C.3     1  UNL1        0.0439
     15 O         -27.1437   51.0950   -7.2281 O.3     1  UNL1       -0.4824
     16 C         -26.8369   51.3858  -12.2553 C.2     1  UNL1        0.3398
     17 O         -25.6159   51.1855  -12.4896 O.2     1  UNL1       -0.2450
     18 O         -27.6224   51.9886  -13.2351 O.3     1  UNL1       -0.4771
     19 H         -28.6250   52.0827  -13.1287 H       1  UNL1        0.2954
     20 C         -25.5404   51.9514   -9.5642 C.2     1  UNL1        0.2527
     21 O         -25.4996   53.1677   -9.2334 O.2     1  UNL1       -0.2697
     22 N         -24.3215   51.2090   -9.7279 N.am    1  UNL1       -0.2803
     23 H         -24.3602   50.1739   -9.5871 H       1  UNL1        0.1552
     24 C         -23.0383   51.8133   -9.9637 C.ar    1  UNL1        0.0505
     25 C         -22.7360   52.3064  -11.2406 C.ar    1  UNL1        0.0147
     26 C         -21.5000   52.9045  -11.4927 C.ar    1  UNL1        0.0012
     27 C         -20.5622   53.0385  -10.4668 C.ar    1  UNL1        0.0039
     28 C         -20.8638   52.5980   -9.1667 C.ar    1  UNL1        0.0726
     29 C         -22.0996   51.9703   -8.9269 C.ar    1  UNL1        0.0185
     30 C         -19.8431   52.7141   -8.0622 C.3     1  UNL1        0.4186
     31 F         -19.2398   51.4907   -7.8268 F       1  UNL1       -0.1659
     32 F         -20.4369   53.1360   -6.8851 F       1  UNL1       -0.1659
     33 F         -18.8757   53.6297   -8.4316 F       1  UNL1       -0.1659
     34 N         -31.3564   48.4316  -12.2694 N.pl3   1  UNL1       -0.2814
     35 H         -32.2837   48.2191  -11.8402 H       1  UNL1        0.1551
     36 C         -31.0156   47.7585  -13.4901 C.ar    1  UNL1        0.0889
     37 C         -30.6754   46.3959  -13.4523 C.ar    1  UNL1        0.1543
     38 F         -30.6535   45.7285  -12.2712 F       1  UNL1       -0.2028
     39 C         -30.3342   45.7211  -14.6281 C.ar    1  UNL1        0.0310
     40 C         -30.3431   46.3951  -15.8506 C.ar    1  UNL1        0.0033
     41 C         -30.7038   47.7433  -15.9034 C.ar    1  UNL1        0.0128
     42 C         -31.0471   48.4296  -14.7321 C.ar    1  UNL1        0.0733
     43 CL        -31.5840   50.1003  -14.8672 Cl      1  UNL1       -0.0809
@<TRIPOS>BOND
     1     1     2    1
     2     2     3   ar
     3     3    34    1
     4    34    36    1
     5    36    37   ar
     6    37    38    1
     7    37    39   ar
     8    39    40   ar
     9    40    41   ar
    10    41    42   ar
    11    42    43    1
    12     3     4   ar
    13     4     5   ar
    14     5     6   ar
    15     6    16    1
    16    16    17    2
    17    16    18    1
    18     6     7   ar
    19     7    20    1
    20    20    21    2
    21    20    22   am
    22    22    24    1
    23    24    25   ar
    24    25    26   ar
    25    26    27   ar
    26    27    28   ar
    27    28    30    1
    28    30    31    1
    29    30    32    1
    30    30    33    1
    31    28    29   ar
    32     7     8   ar
    33     8     9   ar
    34     9    10   ar
    35     9    11    1
    36    11    12    1
    37    12    13    1
    38    12    14    1
    39    12    15    1
    40    10     2   ar
    41    42    36   ar
    42    10     5   ar
    43    29    24   ar
    44    15     8    1
    45    34    35    1
    46    18    19    1
    47    22    23    1
@<TRIPOS>MOLECULE
*****
 43 47 0 0 0
SMALL
GASTEIGER

@<TRIPOS>ATOM
      1 C         -31.2872   49.6279   -7.9079 C.3     1  UNL1        0.1332
      2 N         -29.8468   49.5676   -7.6606 N.ar    1  UNL1       -0.2977
      3 C         -29.2004   49.1146   -6.5522 C.ar    1  UNL1        0.2018
      4 N         -27.8471   49.2011   -6.6376 N.ar    1  UNL1       -0.2133
      5 C         -27.6470   49.7446   -7.8529 C.ar    1  UNL1        0.1061
      6 C         -26.4122   50.0500   -8.4624 C.ar    1  UNL1        0.1018
      7 C         -26.4479   50.6582   -9.7582 C.ar    1  UNL1        0.0950
      8 C         -27.7106   50.8707  -10.3605 C.ar    1  UNL1        0.1403
      9 C         -28.8905   50.5298   -9.7471 C.ar    1  UNL1        0.0327
     10 C         -28.8495   49.9683   -8.4715 C.ar    1  UNL1        0.0791
     11 C         -30.0431   50.8935  -10.6162 C.3     1  UNL1        0.0709
     12 C         -29.3452   51.5503  -11.8522 C.3     1  UNL1        0.1375
     13 C         -29.7352   53.0281  -11.9918 C.3     1  UNL1        0.0439
     14 C         -29.6625   50.7888  -13.1462 C.3     1  UNL1        0.0439
     15 O         -27.9440   51.4598  -11.5864 O.3     1  UNL1       -0.4824
     16 C         -25.1496   49.6922   -7.7762 C.2     1  UNL1        0.3398
     17 O         -24.2457   50.5578   -7.6353 O.2     1  UNL1       -0.2450
     18 O         -24.9540   48.4193   -7.2453 O.3     1  UNL1       -0.4771
     19 H         -25.6889   47.7227   -7.2511 H       1  UNL1        0.2954
     20 C         -25.2296   51.1322  -10.4525 C.2     1  UNL1        0.2527
     21 O         -24.8773   50.5817  -11.5311 O.2     1  UNL1       -0.2697
     22 N         -24.4986   52.2618   -9.9492 N.am    1  UNL1       -0.2803
     23 H         -25.0086   52.9361   -9.3344 H       1  UNL1        0.1552
     24 C         -23.1477   52.5777  -10.3271 C.ar    1  UNL1        0.0505
     25 C         -22.9093   53.2205  -11.5497 C.ar    1  UNL1        0.0147
     26 C         -21.6075   53.5449  -11.9356 C.ar    1  UNL1        0.0012
     27 C         -20.5321   53.2527  -11.0941 C.ar    1  UNL1        0.0039
     28 C         -20.7525   52.6552   -9.8412 C.ar    1  UNL1        0.0726
     29 C         -22.0638   52.3050   -9.4718 C.ar    1  UNL1        0.0185
     30 C         -19.5916   52.3111   -8.9415 C.3     1  UNL1        0.4186
     31 F         -18.7237   53.3843   -8.8355 F       1  UNL1       -0.1659
     32 F         -18.8840   51.2315   -9.4415 F       1  UNL1       -0.1659
     33 F         -20.0697   51.9925   -7.6843 F       1  UNL1       -0.1659
     34 N         -29.8691   48.6357   -5.3757 N.pl3   1  UNL1       -0.2814
     35 H         -30.5583   49.2598   -4.9014 H       1  UNL1        0.1551
     36 C         -29.4078   47.4823   -4.6572 C.ar    1  UNL1        0.0889
     37 C         -28.5780   47.6563   -3.5370 C.ar    1  UNL1        0.1543
     38 F         -28.2038   48.9016   -3.1493 F       1  UNL1       -0.2028
     39 C         -28.1118   46.5471   -2.8253 C.ar    1  UNL1        0.0310
     40 C         -28.4802   45.2585   -3.2160 C.ar    1  UNL1        0.0033
     41 C         -29.3247   45.0748   -4.3130 C.ar    1  UNL1        0.0128
     42 C         -29.7976   46.1783   -5.0337 C.ar    1  UNL1        0.0733
     43 CL        -30.9332   45.8959   -6.3483 Cl      1  UNL1       -0.0809
@<TRIPOS>BOND
     1     1     2    1
     2     2     3   ar
     3     3    34    1
     4    34    36    1
     5    36    37   ar
     6    37    38    1
     7    37    39   ar
     8    39    40   ar
     9    40    41   ar
    10    41    42   ar
    11    42    43    1
    12     3     4   ar
    13     4     5   ar
    14     5     6   ar
    15     6    16    1
    16    16    17    2
    17    16    18    1
    18     6     7   ar
    19     7    20    1
    20    20    21    2
    21    20    22   am
    22    22    24    1
    23    24    25   ar
    24    25    26   ar
    25    26    27   ar
    26    27    28   ar
    27    28    30    1
    28    30    31    1
    29    30    32    1
    30    30    33    1
    31    28    29   ar
    32     7     8   ar
    33     8     9   ar
    34     9    10   ar
    35     9    11    1
    36    11    12    1
    37    12    13    1
    38    12    14    1
    39    12    15    1
    40    10     2   ar
    41    42    36   ar
    42    10     5   ar
    43    29    24   ar
    44    15     8    1
    45    34    35    1
    46    18    19    1
    47    22    23    1
@<TRIPOS>MOLECULE
*****
 43 47 0 0 0
SMALL
GASTEIGER

@<TRIPOS>ATOM
      1 C         -28.4900   50.7940   -7.0189 C.3     1  UNL1        0.1332
      2 N         -28.3552   49.4193   -7.5000 N.ar    1  UNL1       -0.2977
      3 C         -27.8453   48.3426   -6.8426 C.ar    1  UNL1        0.2018
      4 N         -27.8568   47.2000   -7.5777 N.ar    1  UNL1       -0.2133
      5 C         -28.3889   47.5913   -8.7508 C.ar    1  UNL1        0.1061
      6 C         -28.6394   46.7935   -9.8868 C.ar    1  UNL1        0.1018
      7 C         -29.1861   47.4411  -11.0409 C.ar    1  UNL1        0.0950
      8 C         -29.4814   48.8222  -10.9535 C.ar    1  UNL1        0.1403
      9 C         -29.2522   49.5580   -9.8174 C.ar    1  UNL1        0.0327
     10 C         -28.6889   48.9280   -8.7083 C.ar    1  UNL1        0.0791
     11 C         -29.6430   50.9772  -10.0390 C.3     1  UNL1        0.0709
     12 C         -30.1166   50.9724  -11.5297 C.3     1  UNL1        0.1375
     13 C         -29.2213   51.8637  -12.4012 C.3     1  UNL1        0.0439
     14 C         -31.5840   51.4039  -11.6538 C.3     1  UNL1        0.0439
     15 O         -29.9883   49.6163  -11.9618 O.3     1  UNL1       -0.4824
     16 C         -28.3802   45.3366   -9.8290 C.2     1  UNL1        0.3398
     17 O         -29.2057   44.5752   -9.2592 O.2     1  UNL1       -0.2450
     18 O         -27.2526   44.7814  -10.4296 O.3     1  UNL1       -0.4771
     19 H         -26.6131   45.3420  -10.9793 H       1  UNL1        0.2954
     20 C         -29.3854   46.7420  -12.3304 C.2     1  UNL1        0.2527
     21 O         -28.7801   45.6568  -12.5468 O.2     1  UNL1       -0.2697
     22 N         -30.3211   47.2486  -13.2954 N.am    1  UNL1       -0.2803
     23 H         -31.0859   47.8720  -12.9501 H       1  UNL1        0.1552
     24 C         -30.3340   46.8639  -14.6807 C.ar    1  UNL1        0.0505
     25 C         -30.8854   45.6276  -15.0447 C.ar    1  UNL1        0.0147
     26 C         -30.9169   45.2346  -16.3840 C.ar    1  UNL1        0.0012
     27 C         -30.4203   46.0822  -17.3764 C.ar    1  UNL1        0.0039
     28 C         -29.9101   47.3478  -17.0399 C.ar    1  UNL1        0.0726
     29 C         -29.8551   47.7248  -15.6858 C.ar    1  UNL1        0.0185
     30 C         -29.3460   48.2546  -18.1051 C.3     1  UNL1        0.4186
     31 F         -30.3583   48.7473  -18.9105 F       1  UNL1       -0.1659
     32 F         -28.4489   47.5720  -18.9086 F       1  UNL1       -0.1659
     33 F         -28.6943   49.3139  -17.5020 F       1  UNL1       -0.1659
     34 N         -27.2960   48.4008   -5.5176 N.pl3   1  UNL1       -0.2814
     35 H         -26.7891   49.2640   -5.2222 H       1  UNL1        0.1551
     36 C         -27.1423   47.2261   -4.7076 C.ar    1  UNL1        0.0889
     37 C         -26.1014   46.3263   -4.9915 C.ar    1  UNL1        0.1543
     38 F         -25.2609   46.5581   -6.0311 F       1  UNL1       -0.2028
     39 C         -25.9361   45.1725   -4.2197 C.ar    1  UNL1        0.0310
     40 C         -26.7976   44.9145   -3.1518 C.ar    1  UNL1        0.0033
     41 C         -27.8205   45.8145   -2.8451 C.ar    1  UNL1        0.0128
     42 C         -27.9958   46.9734   -3.6114 C.ar    1  UNL1        0.0733
     43 CL        -29.2397   48.1193   -3.1243 Cl      1  UNL1       -0.0809
@<TRIPOS>BOND
     1     1     2    1
     2     2     3   ar
     3     3    34    1
     4    34    36    1
     5    36    37   ar
     6    37    38    1
     7    37    39   ar
     8    39    40   ar
     9    40    41   ar
    10    41    42   ar
    11    42    43    1
    12     3     4   ar
    13     4     5   ar
    14     5     6   ar
    15     6    16    1
    16    16    17    2
    17    16    18    1
    18     6     7   ar
    19     7    20    1
    20    20    21    2
    21    20    22   am
    22    22    24    1
    23    24    25   ar
    24    25    26   ar
    25    26    27   ar
    26    27    28   ar
    27    28    30    1
    28    30    31    1
    29    30    32    1
    30    30    33    1
    31    28    29   ar
    32     7     8   ar
    33     8     9   ar
    34     9    10   ar
    35     9    11    1
    36    11    12    1
    37    12    13    1
    38    12    14    1
    39    12    15    1
    40    10     2   ar
    41    42    36   ar
    42    10     5   ar
    43    29    24   ar
    44    15     8    1
    45    34    35    1
    46    18    19    1
    47    22    23    1
@<TRIPOS>MOLECULE
*****
 43 47 0 0 0
SMALL
GASTEIGER

@<TRIPOS>ATOM
      1 C         -25.1977   51.5169  -12.4070 C.3     1  UNL1        0.1332
      2 N         -25.2448   51.4491  -10.9467 N.ar    1  UNL1       -0.2977
      3 C         -24.2047   51.4425  -10.0694 C.ar    1  UNL1        0.2018
      4 N         -24.5897   51.3643   -8.7687 N.ar    1  UNL1       -0.2133
      5 C         -25.9326   51.3079   -8.8456 C.ar    1  UNL1        0.1061
      6 C         -26.8495   51.2243   -7.7770 C.ar    1  UNL1        0.1018
      7 C         -28.2408   51.1431   -8.1055 C.ar    1  UNL1        0.0950
      8 C         -28.6079   51.1979   -9.4710 C.ar    1  UNL1        0.1403
      9 C         -27.6859   51.3118  -10.4817 C.ar    1  UNL1        0.0327
     10 C         -26.3308   51.3571  -10.1562 C.ar    1  UNL1        0.0791
     11 C         -28.3728   51.3232  -11.8024 C.3     1  UNL1        0.0709
     12 C         -29.8769   51.1585  -11.4067 C.3     1  UNL1        0.1375
     13 C         -30.4569   49.8478  -11.9556 C.3     1  UNL1        0.0439
     14 C         -30.7156   52.3538  -11.8790 C.3     1  UNL1        0.0439
     15 O         -29.8884   51.1127   -9.9784 O.3     1  UNL1       -0.4824
     16 C         -26.3537   51.2731   -6.3824 C.2     1  UNL1        0.3398
     17 O         -25.4299   50.4986   -6.0181 O.2     1  UNL1       -0.2450
     18 O         -26.8652   52.1909   -5.4679 O.3     1  UNL1       -0.4771
     19 H         -27.5395   52.8948   -5.7424 H       1  UNL1        0.2954
     20 C         -29.2923   50.9349   -7.0846 C.2     1  UNL1        0.2527
     21 O         -30.4573   51.3685   -7.2978 O.2     1  UNL1       -0.2697
     22 N         -29.0133   50.1753   -5.8976 N.am    1  UNL1       -0.2803
     23 H         -28.2173   49.4986   -5.9295 H       1  UNL1        0.1552
     24 C         -29.8264   50.2098   -4.7123 C.ar    1  UNL1        0.0505
     25 C         -30.7770   51.2289   -4.5612 C.ar    1  UNL1        0.0147
     26 C         -31.5839   51.2796   -3.4231 C.ar    1  UNL1        0.0012
     27 C         -31.4671   50.2996   -2.4352 C.ar    1  UNL1        0.0039
     28 C         -30.5570   49.2399   -2.5898 C.ar    1  UNL1        0.0726
     29 C         -29.7271   49.2115   -3.7252 C.ar    1  UNL1        0.0185
     30 C         -30.4067   48.1954   -1.5119 C.3     1  UNL1        0.4186
     31 F         -30.0907   46.9669   -2.0658 F       1  UNL1       -0.1659
     32 F         -31.5822   48.0557   -0.7941 F       1  UNL1       -0.1659
     33 F         -29.3952   48.5744   -0.6494 F       1  UNL1       -0.1659
     34 N         -22.8247   51.4637  -10.4644 N.pl3   1  UNL1       -0.2814
     35 H         -22.4153   50.6095  -10.9026 H       1  UNL1        0.1551
     36 C         -21.9193   52.4776  -10.0044 C.ar    1  UNL1        0.0889
     37 C         -21.3268   52.3470   -8.7373 C.ar    1  UNL1        0.1543
     38 F         -21.6212   51.2813   -7.9507 F       1  UNL1       -0.2028
     39 C         -20.4463   53.3251   -8.2659 C.ar    1  UNL1        0.0310
     40 C         -20.1394   54.4324   -9.0589 C.ar    1  UNL1        0.0033
     41 C         -20.7032   54.5600  -10.3303 C.ar    1  UNL1        0.0128
     42 C         -21.5867   53.5866  -10.8128 C.ar    1  UNL1        0.0733
     43 CL        -22.1945   53.7482  -12.4565 Cl      1  UNL1       -0.0809
@<TRIPOS>BOND
     1     1     2    1
     2     2     3   ar
     3     3    34    1
     4    34    36    1
     5    36    37   ar
     6    37    38    1
     7    37    39   ar
     8    39    40   ar
     9    40    41   ar
    10    41    42   ar
    11    42    43    1
    12     3     4   ar
    13     4     5   ar
    14     5     6   ar
    15     6    16    1
    16    16    17    2
    17    16    18    1
    18     6     7   ar
    19     7    20    1
    20    20    21    2
    21    20    22   am
    22    22    24    1
    23    24    25   ar
    24    25    26   ar
    25    26    27   ar
    26    27    28   ar
    27    28    30    1
    28    30    31    1
    29    30    32    1
    30    30    33    1
    31    28    29   ar
    32     7     8   ar
    33     8     9   ar
    34     9    10   ar
    35     9    11    1
    36    11    12    1
    37    12    13    1
    38    12    14    1
    39    12    15    1
    40    10     2   ar
    41    42    36   ar
    42    10     5   ar
    43    29    24   ar
    44    15     8    1
    45    34    35    1
    46    18    19    1
    47    22    23    1
@<TRIPOS>MOLECULE
*****
 43 47 0 0 0
SMALL
GASTEIGER

@<TRIPOS>ATOM
      1 C         -27.1315   51.4612  -11.5597 C.3     1  UNL1        0.1332
      2 N         -26.9660   51.5070  -10.1071 N.ar    1  UNL1       -0.2977
      3 C         -26.1327   52.2982   -9.3784 C.ar    1  UNL1        0.2018
      4 N         -26.2162   52.0888   -8.0385 N.ar    1  UNL1       -0.2133
      5 C         -27.1373   51.1126   -7.9340 C.ar    1  UNL1        0.1061
      6 C         -27.6183   50.5111   -6.7523 C.ar    1  UNL1        0.1018
      7 C         -28.5825   49.4616   -6.8907 C.ar    1  UNL1        0.0950
      8 C         -29.0229   49.1282   -8.1934 C.ar    1  UNL1        0.1403
      9 C         -28.5533   49.7599   -9.3182 C.ar    1  UNL1        0.0327
     10 C         -27.5901   50.7583   -9.1782 C.ar    1  UNL1        0.0791
     11 C         -29.1855   49.1780  -10.5339 C.3     1  UNL1        0.0709
     12 C         -30.0964   48.0536   -9.9404 C.3     1  UNL1        0.1375
     13 C         -29.6507   46.6652  -10.4192 C.3     1  UNL1        0.0439
     14 C         -31.5737   48.2889  -10.2829 C.3     1  UNL1        0.0439
     15 O         -29.9243   48.1371   -8.5242 O.3     1  UNL1       -0.4824
     16 C         -27.1559   51.0103   -5.4370 C.2     1  UNL1        0.3398
     17 O         -26.8131   50.1936   -4.5418 O.2     1  UNL1       -0.2450
     18 O         -27.0549   52.3756   -5.1798 O.3     1  UNL1       -0.4771
     19 H         -27.2281   53.0661   -5.9000 H       1  UNL1        0.2954
     20 C         -29.0771   48.6736   -5.7393 C.2     1  UNL1        0.2527
     21 O         -30.2933   48.7488   -5.4138 O.2     1  UNL1       -0.2697
     22 N         -28.2019   47.7684   -5.0479 N.am    1  UNL1       -0.2803
     23 H         -27.3631   47.4152   -5.5621 H       1  UNL1        0.1552
     24 C         -28.4677   47.2364   -3.7388 C.ar    1  UNL1        0.0505
     25 C         -28.0356   45.9407   -3.4236 C.ar    1  UNL1        0.0147
     26 C         -28.2746   45.4046   -2.1570 C.ar    1  UNL1        0.0012
     27 C         -28.9261   46.1652   -1.1839 C.ar    1  UNL1        0.0039
     28 C         -29.3222   47.4848   -1.4612 C.ar    1  UNL1        0.0726
     29 C         -29.1039   48.0080   -2.7486 C.ar    1  UNL1        0.0185
     30 C         -30.0521   48.3000   -0.4229 C.3     1  UNL1        0.4186
     31 F         -29.1770   48.7350    0.5574 F       1  UNL1       -0.1659
     32 F         -31.0432   47.5491    0.1856 F       1  UNL1       -0.1659
     33 F         -30.6296   49.3988   -1.0311 F       1  UNL1       -0.1659
     34 N         -25.2098   53.2339   -9.9560 N.pl3   1  UNL1       -0.2814
     35 H         -25.5867   54.0938  -10.4119 H       1  UNL1        0.1551
     36 C         -23.8392   52.8908  -10.2074 C.ar    1  UNL1        0.0889
     37 C         -23.4852   51.5398  -10.3601 C.ar    1  UNL1        0.1543
     38 F         -24.4275   50.5693  -10.2542 F       1  UNL1       -0.2028
     39 C         -22.1554   51.1817  -10.5997 C.ar    1  UNL1        0.0310
     40 C         -21.1719   52.1673  -10.7027 C.ar    1  UNL1        0.0033
     41 C         -21.5164   53.5149  -10.5775 C.ar    1  UNL1        0.0128
     42 C         -22.8452   53.8854  -10.3370 C.ar    1  UNL1        0.0733
     43 CL        -23.2396   55.5998  -10.2812 Cl      1  UNL1       -0.0809
@<TRIPOS>BOND
     1     1     2    1
     2     2     3   ar
     3     3    34    1
     4    34    36    1
     5    36    37   ar
     6    37    38    1
     7    37    39   ar
     8    39    40   ar
     9    40    41   ar
    10    41    42   ar
    11    42    43    1
    12     3     4   ar
    13     4     5   ar
    14     5     6   ar
    15     6    16    1
    16    16    17    2
    17    16    18    1
    18     6     7   ar
    19     7    20    1
    20    20    21    2
    21    20    22   am
    22    22    24    1
    23    24    25   ar
    24    25    26   ar
    25    26    27   ar
    26    27    28   ar
    27    28    30    1
    28    30    31    1
    29    30    32    1
    30    30    33    1
    31    28    29   ar
    32     7     8   ar
    33     8     9   ar
    34     9    10   ar
    35     9    11    1
    36    11    12    1
    37    12    13    1
    38    12    14    1
    39    12    15    1
    40    10     2   ar
    41    42    36   ar
    42    10     5   ar
    43    29    24   ar
    44    15     8    1
    45    34    35    1
    46    18    19    1
    47    22    23    1
