@<TRIPOS>MOLECULE
*****
 41 44 0 0 0
SMALL
GASTEIGER

@<TRIPOS>ATOM
      1 C         -24.3888   -7.4345  -13.7208 C.ar    1  UNL1        0.0568
      2 C         -23.1303   -7.1578  -13.1589 C.ar    1  UNL1        0.0420
      3 C         -22.1796   -8.1704  -12.9960 C.ar    1  UNL1        0.1455
      4 C         -22.4740   -9.4716  -13.4351 C.ar    1  UNL1        0.0390
      5 C         -23.7209   -9.7653  -14.0031 C.ar    1  UNL1        0.0205
      6 C         -24.6837   -8.7504  -14.1174 C.ar    1  UNL1        0.0062
      7 C         -24.0273  -11.1514  -14.4178 C.ar    1  UNL1        0.0776
      8 N         -24.5453  -11.9977  -13.4857 N.ar    1  UNL1       -0.2410
      9 C         -24.8758  -13.2834  -13.7699 C.ar    1  UNL1        0.1355
     10 C         -24.6918  -13.7875  -15.0665 C.ar    1  UNL1        0.1575
     11 C         -24.1480  -12.9469  -16.0398 C.ar    1  UNL1        0.0357
     12 C         -23.7859  -11.6275  -15.7291 C.ar    1  UNL1       -0.0011
     13 C         -23.1613  -10.7703  -16.7990 C.3     1  UNL1        0.0327
     14 O         -25.0277  -15.1018  -15.4230 O.3     1  UNL1       -0.4699
     15 C         -25.0764  -15.5828  -16.7623 C.3     1  UNL1        0.2525
     16 N         -25.7825   -5.8734  -15.1609 N.am    1  UNL1       -0.2644
     17 C         -25.3936   -6.3534  -13.8622 C.2     1  UNL1        0.2507
     18 O         -25.8897   -5.8334  -12.8252 O.2     1  UNL1       -0.2698
     19 H         -25.1951   -6.1168  -15.9895 H       1  UNL1        0.1566
     20 N         -28.9353   -4.2998  -15.3622 N.ar    1  UNL1       -0.2188
     21 C         -28.2071   -3.4121  -16.0673 C.ar    1  UNL1        0.1008
     22 C         -26.8992   -3.8483  -16.1014 C.ar    1  UNL1        0.0565
     23 C         -26.9192   -5.0279  -15.3819 C.ar    1  UNL1        0.1558
     24 N         -28.1659   -5.2922  -14.9446 N.ar    1  UNL1       -0.1518
     25 C         -30.3733   -4.2262  -15.1215 C.3     1  UNL1        0.2734
     26 O         -31.0259   -3.6271  -16.2231 O.3     1  UNL1       -0.3284
     27 C         -31.8313   -2.5514  -15.7858 C.3     1  UNL1        0.1764
     28 C         -32.0365   -2.6542  -14.2797 C.3     1  UNL1        0.1743
     29 C         -33.6533   -3.6946  -13.0142 C.3     1  UNL1        0.1742
     30 O         -33.4190   -2.7124  -13.9978 O.3     1  UNL1       -0.3484
     31 O         -20.9353   -7.8420  -12.4377 O.3     1  UNL1       -0.4535
     32 C         -20.6066   -7.9333  -11.0770 C.ar    1  UNL1        0.1454
     33 C         -21.0732   -6.9993  -10.1341 C.ar    1  UNL1        0.0388
     34 C         -20.7133   -7.1169   -8.7885 C.ar    1  UNL1        0.0215
     35 C         -19.8703   -8.1556   -8.3722 C.ar    1  UNL1        0.1059
     36 C         -19.3937   -9.0786   -9.3127 C.ar    1  UNL1        0.0215
     37 C         -19.7535   -8.9608  -10.6584 C.ar    1  UNL1        0.0388
     38 S         -19.4338   -8.3139   -6.6743 S.O2    1  UNL1        0.0105
     39 C         -18.2942   -9.6651   -6.4819 C.3     1  UNL1        0.1816
     40 O         -20.6661   -8.5741   -5.8540 O.2     1  UNL1       -0.1686
     41 O         -18.7926   -7.0431   -6.1913 O.2     1  UNL1       -0.1686
@<TRIPOS>BOND
     1    29    30    1
     2    30    28    1
     3    28    27    1
     4    27    26    1
     5    26    25    1
     6    25    20    1
     7    20    21   ar
     8    21    22   ar
     9    22    23   ar
    10    23    16    1
    11    16    17   am
    12    17    18    2
    13    17     1    1
    14     1     2   ar
    15     2     3   ar
    16     3    31    1
    17    31    32    1
    18    32    33   ar
    19    33    34   ar
    20    34    35   ar
    21    35    38    1
    22    38    39    1
    23    38    40    2
    24    38    41    2
    25    35    36   ar
    26    36    37   ar
    27     3     4   ar
    28     4     5   ar
    29     5     7    1
    30     7     8   ar
    31     8     9   ar
    32     9    10   ar
    33    10    14    1
    34    14    15    1
    35    10    11   ar
    36    11    12   ar
    37    12    13    1
    38     5     6   ar
    39    23    24   ar
    40    24    20   ar
    41     6     1   ar
    42    37    32   ar
    43    12     7   ar
    44    16    19    1
@<TRIPOS>MOLECULE
*****
 41 44 0 0 0
SMALL
GASTEIGER

@<TRIPOS>ATOM
      1 C         -23.8140   -7.7668  -11.3598 C.ar    1  UNL1        0.0568
      2 C         -24.8415   -6.8225  -11.5286 C.ar    1  UNL1        0.0420
      3 C         -25.8025   -6.9803  -12.5322 C.ar    1  UNL1        0.1455
      4 C         -25.7608   -8.1170  -13.3561 C.ar    1  UNL1        0.0390
      5 C         -24.7477   -9.0722  -13.1991 C.ar    1  UNL1        0.0205
      6 C         -23.7616   -8.8780  -12.2192 C.ar    1  UNL1        0.0062
      7 C         -24.6958  -10.2390  -14.1062 C.ar    1  UNL1        0.0776
      8 N         -25.4413  -11.3319  -13.7853 N.ar    1  UNL1       -0.2410
      9 C         -25.4756  -12.4461  -14.5602 C.ar    1  UNL1        0.1355
     10 C         -24.7275  -12.5019  -15.7461 C.ar    1  UNL1        0.1575
     11 C         -23.9413  -11.4016  -16.0933 C.ar    1  UNL1        0.0357
     12 C         -23.8930  -10.2651  -15.2721 C.ar    1  UNL1       -0.0011
     13 C         -22.9964   -9.1191  -15.6630 C.3     1  UNL1        0.0327
     14 O         -24.7343  -13.6194  -16.5940 O.3     1  UNL1       -0.4699
     15 C         -24.8846  -14.9636  -16.1492 C.3     1  UNL1        0.2525
     16 N         -22.3295   -8.6747   -9.5090 N.am    1  UNL1       -0.2644
     17 C         -22.7889   -7.5698  -10.3069 C.2     1  UNL1        0.2507
     18 O         -22.3380   -6.4107  -10.0947 O.2     1  UNL1       -0.2698
     19 H         -22.8783   -9.5634   -9.5077 H       1  UNL1        0.1566
     20 N         -19.9526   -8.4604   -6.9087 N.ar    1  UNL1       -0.2188
     21 C         -19.1143   -8.5026   -7.9628 C.ar    1  UNL1        0.1008
     22 C         -19.8654   -8.6007   -9.1153 C.ar    1  UNL1        0.0565
     23 C         -21.1719   -8.6113   -8.6653 C.ar    1  UNL1        0.1558
     24 N         -21.2085   -8.5187   -7.3217 N.ar    1  UNL1       -0.1518
     25 C         -19.5600   -8.3213   -5.5095 C.3     1  UNL1        0.2734
     26 O         -19.0116   -7.0391   -5.2783 O.3     1  UNL1       -0.3284
     27 C         -17.8873   -7.1367   -4.4277 C.3     1  UNL1        0.1764
     28 C         -16.6205   -6.8801   -5.2341 C.3     1  UNL1        0.1743
     29 C         -15.7341   -8.6089   -3.9998 C.3     1  UNL1        0.1742
     30 O         -15.8552   -8.0652   -5.2947 O.3     1  UNL1       -0.3484
     31 O         -26.8126   -6.0146  -12.6548 O.3     1  UNL1       -0.4535
     32 C         -27.1894   -5.3811  -13.8484 C.ar    1  UNL1        0.1454
     33 C         -28.5214   -5.3780  -14.3012 C.ar    1  UNL1        0.0388
     34 C         -28.8555   -4.7464  -15.5026 C.ar    1  UNL1        0.0215
     35 C         -27.8629   -4.1276  -16.2738 C.ar    1  UNL1        0.1059
     36 C         -26.5336   -4.1420  -15.8308 C.ar    1  UNL1        0.0215
     37 C         -26.1995   -4.7738  -14.6293 C.ar    1  UNL1        0.0388
     38 S         -28.2882   -3.3158  -17.7767 S.O2    1  UNL1        0.0105
     39 C         -30.0321   -3.4973  -18.0720 C.3     1  UNL1        0.1816
     40 O         -27.5188   -3.9208  -18.9174 O.2     1  UNL1       -0.1686
     41 O         -27.9436   -1.8557  -17.6835 O.2     1  UNL1       -0.1686
@<TRIPOS>BOND
     1    29    30    1
     2    30    28    1
     3    28    27    1
     4    27    26    1
     5    26    25    1
     6    25    20    1
     7    20    21   ar
     8    21    22   ar
     9    22    23   ar
    10    23    16    1
    11    16    17   am
    12    17    18    2
    13    17     1    1
    14     1     2   ar
    15     2     3   ar
    16     3    31    1
    17    31    32    1
    18    32    33   ar
    19    33    34   ar
    20    34    35   ar
    21    35    38    1
    22    38    39    1
    23    38    40    2
    24    38    41    2
    25    35    36   ar
    26    36    37   ar
    27     3     4   ar
    28     4     5   ar
    29     5     7    1
    30     7     8   ar
    31     8     9   ar
    32     9    10   ar
    33    10    14    1
    34    14    15    1
    35    10    11   ar
    36    11    12   ar
    37    12    13    1
    38     5     6   ar
    39    23    24   ar
    40    24    20   ar
    41     6     1   ar
    42    37    32   ar
    43    12     7   ar
    44    16    19    1
@<TRIPOS>MOLECULE
*****
 41 44 0 0 0
SMALL
GASTEIGER

@<TRIPOS>ATOM
      1 C         -24.1260   -8.5976  -11.3768 C.ar    1  UNL1        0.0568
      2 C         -25.2359   -7.7526  -11.5508 C.ar    1  UNL1        0.0420
      3 C         -26.2314   -8.0597  -12.4837 C.ar    1  UNL1        0.1455
      4 C         -26.1383   -9.2473  -13.2278 C.ar    1  UNL1        0.0390
      5 C         -25.0424  -10.1051  -13.0638 C.ar    1  UNL1        0.0205
      6 C         -24.0263   -9.7616  -12.1586 C.ar    1  UNL1        0.0062
      7 C         -24.9410  -11.3279  -13.8893 C.ar    1  UNL1        0.0776
      8 N         -25.5120  -12.4689  -13.4145 N.ar    1  UNL1       -0.2410
      9 C         -25.4888  -13.6387  -14.1030 C.ar    1  UNL1        0.1355
     10 C         -24.8630  -13.7050  -15.3572 C.ar    1  UNL1        0.1575
     11 C         -24.2553  -12.5541  -15.8630 C.ar    1  UNL1        0.0357
     12 C         -24.2628  -11.3568  -15.1317 C.ar    1  UNL1       -0.0011
     13 C         -23.5561  -10.1519  -15.6961 C.3     1  UNL1        0.0327
     14 O         -24.8195  -14.8808  -16.1208 O.3     1  UNL1       -0.4699
     15 C         -23.6354  -15.6294  -16.3752 C.3     1  UNL1        0.2525
     16 N         -22.3444   -9.2647   -9.6933 N.am    1  UNL1       -0.2644
     17 C         -23.0674   -8.2427  -10.4012 C.2     1  UNL1        0.2507
     18 O         -22.8215   -7.0264  -10.1735 O.2     1  UNL1       -0.2698
     19 H         -22.7175  -10.2403   -9.6883 H       1  UNL1        0.1566
     20 N         -19.8471   -8.5655   -7.2992 N.ar    1  UNL1       -0.2188
     21 C         -19.0731   -8.6467   -8.3992 C.ar    1  UNL1        0.1008
     22 C         -19.8791   -8.9332   -9.4810 C.ar    1  UNL1        0.0565
     23 C         -21.1495   -9.0101   -8.9427 C.ar    1  UNL1        0.1558
     24 N         -21.1143   -8.7777   -7.6160 N.ar    1  UNL1       -0.1518
     25 C         -19.3863   -8.2435   -5.9519 C.3     1  UNL1        0.2734
     26 O         -20.4802   -8.1909   -5.0580 O.3     1  UNL1       -0.3284
     27 C         -20.0732   -8.5947   -3.7663 C.3     1  UNL1        0.1764
     28 C         -21.2055   -9.3640   -3.0978 C.3     1  UNL1        0.1743
     29 C         -20.7763   -7.6374   -1.6375 C.3     1  UNL1        0.1742
     30 O         -21.3547   -8.9164   -1.7669 O.3     1  UNL1       -0.3484
     31 O         -27.3232   -7.1888  -12.6144 O.3     1  UNL1       -0.4535
     32 C         -27.5243   -6.2924  -13.6746 C.ar    1  UNL1        0.1454
     33 C         -28.7847   -6.1206  -14.2754 C.ar    1  UNL1        0.0388
     34 C         -28.9424   -5.2266  -15.3383 C.ar    1  UNL1        0.0215
     35 C         -27.8422   -4.5087  -15.8251 C.ar    1  UNL1        0.1059
     36 C         -26.5834   -4.6892  -15.2366 C.ar    1  UNL1        0.0215
     37 C         -26.4257   -5.5834  -14.1736 C.ar    1  UNL1        0.0388
     38 S         -28.0461   -3.3688  -17.1508 S.O2    1  UNL1        0.0105
     39 C         -29.7552   -2.8905  -17.2597 C.3     1  UNL1        0.1816
     40 O         -27.6192   -4.0083  -18.4423 O.2     1  UNL1       -0.1686
     41 O         -27.1978   -2.1512  -16.9123 O.2     1  UNL1       -0.1686
@<TRIPOS>BOND
     1    29    30    1
     2    30    28    1
     3    28    27    1
     4    27    26    1
     5    26    25    1
     6    25    20    1
     7    20    21   ar
     8    21    22   ar
     9    22    23   ar
    10    23    16    1
    11    16    17   am
    12    17    18    2
    13    17     1    1
    14     1     2   ar
    15     2     3   ar
    16     3    31    1
    17    31    32    1
    18    32    33   ar
    19    33    34   ar
    20    34    35   ar
    21    35    38    1
    22    38    39    1
    23    38    40    2
    24    38    41    2
    25    35    36   ar
    26    36    37   ar
    27     3     4   ar
    28     4     5   ar
    29     5     7    1
    30     7     8   ar
    31     8     9   ar
    32     9    10   ar
    33    10    14    1
    34    14    15    1
    35    10    11   ar
    36    11    12   ar
    37    12    13    1
    38     5     6   ar
    39    23    24   ar
    40    24    20   ar
    41     6     1   ar
    42    37    32   ar
    43    12     7   ar
    44    16    19    1
@<TRIPOS>MOLECULE
*****
 41 44 0 0 0
SMALL
GASTEIGER

@<TRIPOS>ATOM
      1 C         -25.0433   -6.6413  -13.4484 C.ar    1  UNL1        0.0568
      2 C         -24.5631   -7.4375  -14.5027 C.ar    1  UNL1        0.0420
      3 C         -23.3604   -8.1405  -14.3799 C.ar    1  UNL1        0.1455
      4 C         -22.6444   -8.0791  -13.1731 C.ar    1  UNL1        0.0390
      5 C         -23.1104   -7.2955  -12.1089 C.ar    1  UNL1        0.0205
      6 C         -24.2942   -6.5572  -12.2619 C.ar    1  UNL1        0.0062
      7 C         -22.3184   -7.2090  -10.8630 C.ar    1  UNL1        0.0776
      8 N         -22.2787   -8.3028  -10.0535 N.ar    1  UNL1       -0.2410
      9 C         -21.5675   -8.3307   -8.8974 C.ar    1  UNL1        0.1355
     10 C         -20.8315   -7.2052   -8.4965 C.ar    1  UNL1        0.1575
     11 C         -20.8655   -6.0632   -9.2991 C.ar    1  UNL1        0.0357
     12 C         -21.6244   -6.0363  -10.4789 C.ar    1  UNL1       -0.0011
     13 C         -21.6677   -4.7678  -11.2906 C.3     1  UNL1        0.0327
     14 O         -20.0669   -7.1796   -7.3208 O.3     1  UNL1       -0.4699
     15 C         -19.3644   -8.3012   -6.7956 C.3     1  UNL1        0.2525
     16 N         -26.9284   -5.7442  -14.8959 N.am    1  UNL1       -0.2644
     17 C         -26.3075   -5.8827  -13.6060 C.2     1  UNL1        0.2507
     18 O         -26.8253   -5.3310  -12.5965 O.2     1  UNL1       -0.2698
     19 H         -26.3769   -5.9738  -15.7527 H       1  UNL1        0.1566
     20 N         -29.8939   -3.9567  -15.5794 N.ar    1  UNL1       -0.2188
     21 C         -30.4336   -5.0783  -15.0633 C.ar    1  UNL1        0.1008
     22 C         -29.4115   -5.9420  -14.7297 C.ar    1  UNL1        0.0565
     23 C         -28.2640   -5.2565  -15.0804 C.ar    1  UNL1        0.1558
     24 N         -28.5738   -4.0481  -15.5897 N.ar    1  UNL1       -0.1518
     25 C         -30.6331   -2.7788  -16.0239 C.3     1  UNL1        0.2734
     26 O         -29.9006   -2.0834  -17.0129 O.3     1  UNL1       -0.3284
     27 C         -29.8787   -2.8263  -18.2150 C.3     1  UNL1        0.1764
     28 C         -28.4709   -2.8037  -18.7967 C.3     1  UNL1        0.1743
     29 C         -27.8321   -1.7683  -20.7507 C.3     1  UNL1        0.1742
     30 O         -28.2404   -1.5568  -19.4182 O.3     1  UNL1       -0.3484
     31 O         -22.9278   -8.9277  -15.4573 O.3     1  UNL1       -0.4535
     32 C         -23.0375  -10.3239  -15.5382 C.ar    1  UNL1        0.1454
     33 C         -22.4804  -11.0539  -16.6038 C.ar    1  UNL1        0.0388
     34 C         -22.6218  -12.4436  -16.6556 C.ar    1  UNL1        0.0215
     35 C         -23.3354  -13.1176  -15.6558 C.ar    1  UNL1        0.1059
     36 C         -23.9027  -12.3900  -14.6011 C.ar    1  UNL1        0.0215
     37 C         -23.7613  -11.0002  -14.5495 C.ar    1  UNL1        0.0388
     38 S         -23.4960  -14.8696  -15.7119 S.O2    1  UNL1        0.0105
     39 C         -24.9965  -15.2973  -16.5646 C.3     1  UNL1        0.1816
     40 O         -23.5362  -15.4221  -14.3146 O.2     1  UNL1       -0.1686
     41 O         -22.3204  -15.4672  -16.4329 O.2     1  UNL1       -0.1686
@<TRIPOS>BOND
     1    29    30    1
     2    30    28    1
     3    28    27    1
     4    27    26    1
     5    26    25    1
     6    25    20    1
     7    20    21   ar
     8    21    22   ar
     9    22    23   ar
    10    23    16    1
    11    16    17   am
    12    17    18    2
    13    17     1    1
    14     1     2   ar
    15     2     3   ar
    16     3    31    1
    17    31    32    1
    18    32    33   ar
    19    33    34   ar
    20    34    35   ar
    21    35    38    1
    22    38    39    1
    23    38    40    2
    24    38    41    2
    25    35    36   ar
    26    36    37   ar
    27     3     4   ar
    28     4     5   ar
    29     5     7    1
    30     7     8   ar
    31     8     9   ar
    32     9    10   ar
    33    10    14    1
    34    14    15    1
    35    10    11   ar
    36    11    12   ar
    37    12    13    1
    38     5     6   ar
    39    23    24   ar
    40    24    20   ar
    41     6     1   ar
    42    37    32   ar
    43    12     7   ar
    44    16    19    1
@<TRIPOS>MOLECULE
*****
 41 44 0 0 0
SMALL
GASTEIGER

@<TRIPOS>ATOM
      1 C         -20.6119   -8.8563   -8.7498 C.ar    1  UNL1        0.0568
      2 C         -20.2164   -9.9713   -9.5089 C.ar    1  UNL1        0.0420
      3 C         -20.7639  -10.2082  -10.7738 C.ar    1  UNL1        0.1455
      4 C         -21.6921   -9.2986  -11.3062 C.ar    1  UNL1        0.0390
      5 C         -22.0942   -8.1782  -10.5668 C.ar    1  UNL1        0.0205
      6 C         -21.5729   -7.9775   -9.2792 C.ar    1  UNL1        0.0062
      7 C         -23.1063   -7.2570  -11.1272 C.ar    1  UNL1        0.0776
      8 N         -24.3456   -7.7539  -11.3927 N.ar    1  UNL1       -0.2410
      9 C         -25.3486   -6.9872  -11.8919 C.ar    1  UNL1        0.1355
     10 C         -25.1313   -5.6252  -12.1510 C.ar    1  UNL1        0.1575
     11 C         -23.8654   -5.0910  -11.9028 C.ar    1  UNL1        0.0357
     12 C         -22.8285   -5.8980  -11.4110 C.ar    1  UNL1       -0.0011
     13 C         -21.4665   -5.2894  -11.2002 C.3     1  UNL1        0.0327
     14 O         -26.1323   -4.7806  -12.6530 O.3     1  UNL1       -0.4699
     15 C         -27.0978   -5.1692  -13.6246 C.3     1  UNL1        0.2525
     16 N         -18.6186   -8.6841   -7.1845 N.am    1  UNL1       -0.2644
     17 C         -20.0397   -8.6352   -7.3999 C.2     1  UNL1        0.2507
     18 O         -20.8164   -8.4294   -6.4272 O.2     1  UNL1       -0.2698
     19 H         -18.0070   -9.1022   -7.9207 H       1  UNL1        0.1566
     20 N         -17.3650   -8.1365   -3.9309 N.ar    1  UNL1       -0.2188
     21 C         -16.8849   -7.0317   -4.5345 C.ar    1  UNL1        0.1008
     22 C         -17.2659   -7.0568   -5.8598 C.ar    1  UNL1        0.0565
     23 C         -17.9869   -8.2295   -5.9802 C.ar    1  UNL1        0.1558
     24 N         -18.0437   -8.8716   -4.7970 N.ar    1  UNL1       -0.1518
     25 C         -17.2142   -8.4725   -2.5182 C.3     1  UNL1        0.2734
     26 O         -18.4771   -8.7260   -1.9360 O.3     1  UNL1       -0.3284
     27 C         -19.1397   -7.5084   -1.6609 C.3     1  UNL1        0.1764
     28 C         -20.6401   -7.6976   -1.8444 C.3     1  UNL1        0.1743
     29 C         -21.2968   -9.4643   -3.1656 C.3     1  UNL1        0.1742
     30 O         -20.9021   -8.1111   -3.1689 O.3     1  UNL1       -0.3484
     31 O         -20.3304  -11.3303  -11.4955 O.3     1  UNL1       -0.4535
     32 C         -21.0742  -12.0004  -12.4781 C.ar    1  UNL1        0.1454
     33 C         -22.4081  -11.6579  -12.7649 C.ar    1  UNL1        0.0388
     34 C         -23.1205  -12.3578  -13.7429 C.ar    1  UNL1        0.0215
     35 C         -22.5167  -13.4179  -14.4319 C.ar    1  UNL1        0.1059
     36 C         -21.1926  -13.7691  -14.1375 C.ar    1  UNL1        0.0215
     37 C         -20.4802  -13.0691  -13.1592 C.ar    1  UNL1        0.0388
     38 S         -23.4086  -14.2857  -15.6770 S.O2    1  UNL1        0.0105
     39 C         -25.0705  -14.5780  -15.1165 C.3     1  UNL1        0.1816
     40 O         -22.7356  -15.5988  -15.9633 O.2     1  UNL1       -0.1686
     41 O         -23.4402  -13.4742  -16.9418 O.2     1  UNL1       -0.1686
@<TRIPOS>BOND
     1    29    30    1
     2    30    28    1
     3    28    27    1
     4    27    26    1
     5    26    25    1
     6    25    20    1
     7    20    21   ar
     8    21    22   ar
     9    22    23   ar
    10    23    16    1
    11    16    17   am
    12    17    18    2
    13    17     1    1
    14     1     2   ar
    15     2     3   ar
    16     3    31    1
    17    31    32    1
    18    32    33   ar
    19    33    34   ar
    20    34    35   ar
    21    35    38    1
    22    38    39    1
    23    38    40    2
    24    38    41    2
    25    35    36   ar
    26    36    37   ar
    27     3     4   ar
    28     4     5   ar
    29     5     7    1
    30     7     8   ar
    31     8     9   ar
    32     9    10   ar
    33    10    14    1
    34    14    15    1
    35    10    11   ar
    36    11    12   ar
    37    12    13    1
    38     5     6   ar
    39    23    24   ar
    40    24    20   ar
    41     6     1   ar
    42    37    32   ar
    43    12     7   ar
    44    16    19    1
@<TRIPOS>MOLECULE
*****
 41 44 0 0 0
SMALL
GASTEIGER

@<TRIPOS>ATOM
      1 C         -24.6908   -7.3214  -12.8375 C.ar    1  UNL1        0.0568
      2 C         -23.6827   -7.0543  -11.8949 C.ar    1  UNL1        0.0420
      3 C         -22.8077   -8.0616  -11.4762 C.ar    1  UNL1        0.1455
      4 C         -22.9150   -9.3460  -12.0343 C.ar    1  UNL1        0.0390
      5 C         -23.9098   -9.6297  -12.9796 C.ar    1  UNL1        0.0205
      6 C         -24.8118   -8.6223  -13.3560 C.ar    1  UNL1        0.0062
      7 C         -24.0341  -11.0000  -13.5215 C.ar    1  UNL1        0.0776
      8 N         -24.8973  -11.8546  -12.9068 N.ar    1  UNL1       -0.2410
      9 C         -25.0960  -13.1269  -13.3368 C.ar    1  UNL1        0.1355
     10 C         -24.4024  -13.6075  -14.4580 C.ar    1  UNL1        0.1575
     11 C         -23.4987  -12.7584  -15.0998 C.ar    1  UNL1        0.0357
     12 C         -23.2818  -11.4537  -14.6318 C.ar    1  UNL1       -0.0011
     13 C         -22.2646  -10.5876  -15.3283 C.3     1  UNL1        0.0327
     14 O         -24.5767  -14.9068  -14.9569 O.3     1  UNL1       -0.4699
     15 C         -24.7686  -15.2193  -16.3327 C.3     1  UNL1        0.2525
     16 N         -25.9199   -6.0196  -14.6397 N.am    1  UNL1       -0.2644
     17 C         -25.6257   -6.2472  -13.2505 C.2     1  UNL1        0.2507
     18 O         -26.1452   -5.5094  -12.3687 O.2     1  UNL1       -0.2698
     19 H         -25.3049   -6.4491  -15.3665 H       1  UNL1        0.1566
     20 N         -28.9743   -4.4178  -15.3895 N.ar    1  UNL1       -0.2188
     21 C         -28.1435   -3.6479  -16.1193 C.ar    1  UNL1        0.1008
     22 C         -26.8560   -4.1134  -15.9522 C.ar    1  UNL1        0.0565
     23 C         -26.9953   -5.1862  -15.0924 C.ar    1  UNL1        0.1558
     24 N         -28.2902   -5.3625  -14.7644 N.ar    1  UNL1       -0.1518
     25 C         -30.4261   -4.2812  -15.3202 C.3     1  UNL1        0.2734
     26 O         -30.8888   -3.4272  -16.3472 O.3     1  UNL1       -0.3284
     27 C         -31.8520   -2.5283  -15.8360 C.3     1  UNL1        0.1764
     28 C         -31.9077   -2.6572  -14.3190 C.3     1  UNL1        0.1743
     29 C         -33.6082   -3.6263  -13.1078 C.3     1  UNL1        0.1742
     30 O         -33.2430   -2.5081  -13.8845 O.3     1  UNL1       -0.3484
     31 O         -21.8132   -7.7429  -10.5395 O.3     1  UNL1       -0.4535
     32 C         -20.7948   -8.6072  -10.1110 C.ar    1  UNL1        0.1454
     33 C         -20.0931   -8.3935   -8.9106 C.ar    1  UNL1        0.0388
     34 C         -19.0757   -9.2705   -8.5237 C.ar    1  UNL1        0.0215
     35 C         -18.7351  -10.3586   -9.3379 C.ar    1  UNL1        0.1059
     36 C         -19.4239  -10.5647  -10.5406 C.ar    1  UNL1        0.0215
     37 C         -20.4413   -9.6875  -10.9276 C.ar    1  UNL1        0.0388
     38 S         -17.4670  -11.4733   -8.8399 S.O2    1  UNL1        0.0105
     39 C         -17.7919  -13.0809   -9.5264 C.3     1  UNL1        0.1816
     40 O         -17.4297  -11.5646   -7.3401 O.2     1  UNL1       -0.1686
     41 O         -16.1332  -10.9794   -9.3261 O.2     1  UNL1       -0.1686
@<TRIPOS>BOND
     1    29    30    1
     2    30    28    1
     3    28    27    1
     4    27    26    1
     5    26    25    1
     6    25    20    1
     7    20    21   ar
     8    21    22   ar
     9    22    23   ar
    10    23    16    1
    11    16    17   am
    12    17    18    2
    13    17     1    1
    14     1     2   ar
    15     2     3   ar
    16     3    31    1
    17    31    32    1
    18    32    33   ar
    19    33    34   ar
    20    34    35   ar
    21    35    38    1
    22    38    39    1
    23    38    40    2
    24    38    41    2
    25    35    36   ar
    26    36    37   ar
    27     3     4   ar
    28     4     5   ar
    29     5     7    1
    30     7     8   ar
    31     8     9   ar
    32     9    10   ar
    33    10    14    1
    34    14    15    1
    35    10    11   ar
    36    11    12   ar
    37    12    13    1
    38     5     6   ar
    39    23    24   ar
    40    24    20   ar
    41     6     1   ar
    42    37    32   ar
    43    12     7   ar
    44    16    19    1
@<TRIPOS>MOLECULE
*****
 41 44 0 0 0
SMALL
GASTEIGER

@<TRIPOS>ATOM
      1 C         -26.4488   -7.7594  -13.2714 C.ar    1  UNL1        0.0568
      2 C         -26.1087   -7.6039  -11.9164 C.ar    1  UNL1        0.0420
      3 C         -25.4220   -8.6101  -11.2296 C.ar    1  UNL1        0.1455
      4 C         -25.0348   -9.7735  -11.9144 C.ar    1  UNL1        0.0390
      5 C         -25.3596   -9.9439  -13.2669 C.ar    1  UNL1        0.0205
      6 C         -26.0906   -8.9473  -13.9321 C.ar    1  UNL1        0.0062
      7 C         -24.9818  -11.1958  -13.9576 C.ar    1  UNL1        0.0776
      8 N         -25.6968  -12.3203  -13.6791 N.ar    1  UNL1       -0.2410
      9 C         -25.4405  -13.5144  -14.2719 C.ar    1  UNL1        0.1355
     10 C         -24.4076  -13.6247  -15.2154 C.ar    1  UNL1        0.1575
     11 C         -23.6471  -12.4913  -15.5099 C.ar    1  UNL1        0.0357
     12 C         -23.9038  -11.2681  -14.8725 C.ar    1  UNL1       -0.0011
     13 C         -23.0294  -10.0825  -15.1881 C.3     1  UNL1        0.0327
     14 O         -24.1055  -14.8275  -15.8707 O.3     1  UNL1       -0.4699
     15 C         -22.9075  -15.5709  -15.6723 C.3     1  UNL1        0.2525
     16 N         -26.5137   -5.5745  -14.5658 N.am    1  UNL1       -0.2644
     17 C         -27.1996   -6.6928  -13.9765 C.2     1  UNL1        0.2507
     18 O         -28.4583   -6.7590  -14.0328 O.2     1  UNL1       -0.2698
     19 H         -25.5205   -5.3901  -14.3002 H       1  UNL1        0.1566
     20 N         -28.6485   -3.5351  -16.4999 N.ar    1  UNL1       -0.2188
     21 C         -27.4709   -3.2160  -17.0716 C.ar    1  UNL1        0.1008
     22 C         -26.4704   -3.9200  -16.4348 C.ar    1  UNL1        0.0565
     23 C         -27.1367   -4.6558  -15.4734 C.ar    1  UNL1        0.1558
     24 N         -28.4612   -4.4158  -15.5300 N.ar    1  UNL1       -0.1518
     25 C         -29.9587   -3.0342  -16.9046 C.3     1  UNL1        0.2734
     26 O         -30.5134   -2.2288  -15.8839 O.3     1  UNL1       -0.3284
     27 C         -31.6825   -2.8328  -15.3684 C.3     1  UNL1        0.1764
     28 C         -32.0231   -2.2057  -14.0224 C.3     1  UNL1        0.1743
     29 C         -33.2285   -4.1169  -13.5840 C.3     1  UNL1        0.1742
     30 O         -33.2636   -2.7078  -13.5718 O.3     1  UNL1       -0.3484
     31 O         -25.0984   -8.4038   -9.8803 O.3     1  UNL1       -0.4535
     32 C         -23.7984   -8.3592   -9.3549 C.ar    1  UNL1        0.1454
     33 C         -22.8578   -7.4015   -9.7758 C.ar    1  UNL1        0.0388
     34 C         -21.5678   -7.3973   -9.2375 C.ar    1  UNL1        0.0215
     35 C         -21.1966   -8.3585   -8.2882 C.ar    1  UNL1        0.1059
     36 C         -22.1283   -9.3216   -7.8784 C.ar    1  UNL1        0.0215
     37 C         -23.4184   -9.3258   -8.4169 C.ar    1  UNL1        0.0388
     38 S         -19.5779   -8.3400   -7.5968 S.O2    1  UNL1        0.0105
     39 C         -19.6892   -8.5074   -5.8302 C.3     1  UNL1        0.1816
     40 O         -18.8936   -7.0459   -7.9377 O.2     1  UNL1       -0.1686
     41 O         -18.7695   -9.4756   -8.1592 O.2     1  UNL1       -0.1686
@<TRIPOS>BOND
     1    29    30    1
     2    30    28    1
     3    28    27    1
     4    27    26    1
     5    26    25    1
     6    25    20    1
     7    20    21   ar
     8    21    22   ar
     9    22    23   ar
    10    23    16    1
    11    16    17   am
    12    17    18    2
    13    17     1    1
    14     1     2   ar
    15     2     3   ar
    16     3    31    1
    17    31    32    1
    18    32    33   ar
    19    33    34   ar
    20    34    35   ar
    21    35    38    1
    22    38    39    1
    23    38    40    2
    24    38    41    2
    25    35    36   ar
    26    36    37   ar
    27     3     4   ar
    28     4     5   ar
    29     5     7    1
    30     7     8   ar
    31     8     9   ar
    32     9    10   ar
    33    10    14    1
    34    14    15    1
    35    10    11   ar
    36    11    12   ar
    37    12    13    1
    38     5     6   ar
    39    23    24   ar
    40    24    20   ar
    41     6     1   ar
    42    37    32   ar
    43    12     7   ar
    44    16    19    1
@<TRIPOS>MOLECULE
*****
 41 44 0 0 0
SMALL
GASTEIGER

@<TRIPOS>ATOM
      1 C         -25.0442   -7.7792  -13.9743 C.ar    1  UNL1        0.0568
      2 C         -24.3573   -7.1209  -12.9396 C.ar    1  UNL1        0.0420
      3 C         -24.7300   -5.8347  -12.5365 C.ar    1  UNL1        0.1455
      4 C         -25.8289   -5.2101  -13.1488 C.ar    1  UNL1        0.0390
      5 C         -26.5298   -5.8530  -14.1779 C.ar    1  UNL1        0.0205
      6 C         -26.1159   -7.1242  -14.6055 C.ar    1  UNL1        0.0062
      7 C         -27.6558   -5.1597  -14.8399 C.ar    1  UNL1        0.0776
      8 N         -28.9216   -5.5063  -14.4780 N.ar    1  UNL1       -0.2410
      9 C         -30.0215   -4.9180  -15.0137 C.ar    1  UNL1        0.1355
     10 C         -29.8807   -3.9074  -15.9771 C.ar    1  UNL1        0.1575
     11 C         -28.5947   -3.5415  -16.3792 C.ar    1  UNL1        0.0357
     12 C         -27.4652   -4.1738  -15.8381 C.ar    1  UNL1       -0.0011
     13 C         -26.0988   -3.7780  -16.3340 C.3     1  UNL1        0.0327
     14 O         -30.9788   -3.2537  -16.5552 O.3     1  UNL1       -0.4699
     15 C         -30.8813   -2.2922  -17.6008 C.3     1  UNL1        0.2525
     16 N         -23.7538   -9.3063  -15.5416 N.am    1  UNL1       -0.2644
     17 C         -24.6186   -9.1324  -14.4057 C.2     1  UNL1        0.2507
     18 O         -25.0462  -10.1416  -13.7807 O.2     1  UNL1       -0.2698
     19 H         -23.6136   -8.5081  -16.2005 H       1  UNL1        0.1566
     20 N         -22.1780  -12.4636  -15.6125 N.ar    1  UNL1       -0.2188
     21 C         -22.0892  -12.1501  -16.9199 C.ar    1  UNL1        0.1008
     22 C         -22.6751  -10.9169  -17.1148 C.ar    1  UNL1        0.0565
     23 C         -23.1008  -10.5439  -15.8541 C.ar    1  UNL1        0.1558
     24 N         -22.7853  -11.4921  -14.9503 N.ar    1  UNL1       -0.1518
     25 C         -21.6465  -13.6698  -14.9849 C.3     1  UNL1        0.2734
     26 O         -22.2566  -14.8199  -15.5357 O.3     1  UNL1       -0.3284
     27 C         -23.4901  -15.0715  -14.8936 C.3     1  UNL1        0.1764
     28 C         -24.6293  -14.8260  -15.8749 C.3     1  UNL1        0.1743
     29 C         -25.6794  -13.6873  -14.1723 C.3     1  UNL1        0.1742
     30 O         -25.2975  -13.6313  -15.5281 O.3     1  UNL1       -0.3484
     31 O         -24.0182   -5.2233  -11.4937 O.3     1  UNL1       -0.4535
     32 C         -23.0604   -5.8539  -10.6858 C.ar    1  UNL1        0.1454
     33 C         -21.8677   -5.2117  -10.3060 C.ar    1  UNL1        0.0388
     34 C         -20.9316   -5.8781   -9.5100 C.ar    1  UNL1        0.0215
     35 C         -21.1661   -7.1971   -9.0999 C.ar    1  UNL1        0.1059
     36 C         -22.3473   -7.8426   -9.4891 C.ar    1  UNL1        0.0215
     37 C         -23.2835   -7.1762  -10.2853 C.ar    1  UNL1        0.0388
     38 S         -19.9954   -8.0282   -8.0815 S.O2    1  UNL1        0.0105
     39 C         -19.3446   -9.4327   -8.9564 C.3     1  UNL1        0.1816
     40 O         -20.6594   -8.4883   -6.8139 O.2     1  UNL1       -0.1686
     41 O         -18.8733   -7.0934   -7.7261 O.2     1  UNL1       -0.1686
@<TRIPOS>BOND
     1    29    30    1
     2    30    28    1
     3    28    27    1
     4    27    26    1
     5    26    25    1
     6    25    20    1
     7    20    21   ar
     8    21    22   ar
     9    22    23   ar
    10    23    16    1
    11    16    17   am
    12    17    18    2
    13    17     1    1
    14     1     2   ar
    15     2     3   ar
    16     3    31    1
    17    31    32    1
    18    32    33   ar
    19    33    34   ar
    20    34    35   ar
    21    35    38    1
    22    38    39    1
    23    38    40    2
    24    38    41    2
    25    35    36   ar
    26    36    37   ar
    27     3     4   ar
    28     4     5   ar
    29     5     7    1
    30     7     8   ar
    31     8     9   ar
    32     9    10   ar
    33    10    14    1
    34    14    15    1
    35    10    11   ar
    36    11    12   ar
    37    12    13    1
    38     5     6   ar
    39    23    24   ar
    40    24    20   ar
    41     6     1   ar
    42    37    32   ar
    43    12     7   ar
    44    16    19    1
@<TRIPOS>MOLECULE
*****
 41 44 0 0 0
SMALL
GASTEIGER

@<TRIPOS>ATOM
      1 C         -24.7948   -6.7323  -13.8079 C.ar    1  UNL1        0.0568
      2 C         -24.2784   -7.5870  -14.7973 C.ar    1  UNL1        0.0420
      3 C         -23.1091   -8.3203  -14.5721 C.ar    1  UNL1        0.1455
      4 C         -22.4655   -8.2293  -13.3271 C.ar    1  UNL1        0.0390
      5 C         -22.9687   -7.3872  -12.3264 C.ar    1  UNL1        0.0205
      6 C         -24.1162   -6.6204  -12.5820 C.ar    1  UNL1        0.0062
      7 C         -22.2508   -7.2716  -11.0387 C.ar    1  UNL1        0.0776
      8 N         -22.0944   -8.3982  -10.2906 N.ar    1  UNL1       -0.2410
      9 C         -21.4367   -8.4011   -9.1030 C.ar    1  UNL1        0.1355
     10 C         -20.8821   -7.2132   -8.6026 C.ar    1  UNL1        0.1575
     11 C         -21.0398   -6.0386   -9.3408 C.ar    1  UNL1        0.0357
     12 C         -21.7436   -6.0416  -10.5546 C.ar    1  UNL1       -0.0011
     13 C         -21.9277   -4.7427  -11.2953 C.3     1  UNL1        0.0327
     14 O         -20.1798   -7.1573   -7.3897 O.3     1  UNL1       -0.4699
     15 C         -19.4161   -8.2330   -6.8539 C.3     1  UNL1        0.2525
     16 N         -26.0575   -4.9707  -15.1329 N.am    1  UNL1       -0.2644
     17 C         -26.0215   -5.9431  -14.0739 C.2     1  UNL1        0.2507
     18 O         -27.0343   -6.1119  -13.3407 O.2     1  UNL1       -0.2698
     19 H         -25.1597   -4.6526  -15.5616 H       1  UNL1        0.1566
     20 N         -29.3542   -3.9677  -15.8965 N.ar    1  UNL1       -0.2188
     21 C         -28.6812   -3.1283  -16.7077 C.ar    1  UNL1        0.1008
     22 C         -27.3303   -3.3566  -16.5497 C.ar    1  UNL1        0.0565
     23 C         -27.2678   -4.3674  -15.6095 C.ar    1  UNL1        0.1558
     24 N         -28.5070   -4.7327  -15.2270 N.ar    1  UNL1       -0.1518
     25 C         -30.8064   -4.0719  -15.7894 C.3     1  UNL1        0.2734
     26 O         -31.1598   -4.9670  -14.7539 O.3     1  UNL1       -0.3284
     27 C         -32.4320   -4.6345  -14.2360 C.3     1  UNL1        0.1764
     28 C         -32.6314   -3.1264  -14.3168 C.3     1  UNL1        0.1743
     29 C         -34.0475   -3.8338  -12.6457 C.3     1  UNL1        0.1742
     30 O         -33.4610   -2.7056  -13.2543 O.3     1  UNL1       -0.3484
     31 O         -22.6386   -9.1656  -15.5879 O.3     1  UNL1       -0.4535
     32 C         -22.8021  -10.5584  -15.6257 C.ar    1  UNL1        0.1454
     33 C         -21.7175  -11.4399  -15.4660 C.ar    1  UNL1        0.0388
     34 C         -21.9189  -12.8220  -15.5225 C.ar    1  UNL1        0.0215
     35 C         -23.1998  -13.3390  -15.7570 C.ar    1  UNL1        0.1059
     36 C         -24.2787  -12.4617  -15.9301 C.ar    1  UNL1        0.0215
     37 C         -24.0771  -11.0795  -15.8737 C.ar    1  UNL1        0.0388
     38 S         -23.4553  -15.0799  -15.8084 S.O2    1  UNL1        0.0105
     39 C         -25.0334  -15.4226  -16.5525 C.3     1  UNL1        0.1816
     40 O         -23.4239  -15.6404  -14.4141 O.2     1  UNL1       -0.1686
     41 O         -22.3672  -15.7320  -16.6148 O.2     1  UNL1       -0.1686
@<TRIPOS>BOND
     1    29    30    1
     2    30    28    1
     3    28    27    1
     4    27    26    1
     5    26    25    1
     6    25    20    1
     7    20    21   ar
     8    21    22   ar
     9    22    23   ar
    10    23    16    1
    11    16    17   am
    12    17    18    2
    13    17     1    1
    14     1     2   ar
    15     2     3   ar
    16     3    31    1
    17    31    32    1
    18    32    33   ar
    19    33    34   ar
    20    34    35   ar
    21    35    38    1
    22    38    39    1
    23    38    40    2
    24    38    41    2
    25    35    36   ar
    26    36    37   ar
    27     3     4   ar
    28     4     5   ar
    29     5     7    1
    30     7     8   ar
    31     8     9   ar
    32     9    10   ar
    33    10    14    1
    34    14    15    1
    35    10    11   ar
    36    11    12   ar
    37    12    13    1
    38     5     6   ar
    39    23    24   ar
    40    24    20   ar
    41     6     1   ar
    42    37    32   ar
    43    12     7   ar
    44    16    19    1
