@<TRIPOS>MOLECULE
*****
 54 60 0 0 0
SMALL
GASTEIGER

@<TRIPOS>ATOM
      1 C          60.0621   87.0463   10.1112 C.ar    1  UNL1        0.0481
      2 C          61.2292   86.6443   10.7782 C.ar    1  UNL1        0.0176
      3 C          61.1535   85.7988   11.8882 C.ar    1  UNL1        0.0382
      4 C          59.9158   85.3360   12.3489 C.ar    1  UNL1        0.1388
      5 C          58.7424   85.7436   11.6854 C.ar    1  UNL1        0.0382
      6 C          58.8178   86.5883   10.5742 C.ar    1  UNL1        0.0176
      7 N          59.8103   89.7664    6.9245 N.pl3   1  UNL1       -0.3041
      8 C          60.2238   90.2570    8.2446 C.3     1  UNL1        0.1122
      9 C          60.9361   89.1471    9.0182 C.3     1  UNL1        0.1122
     10 N          60.1463   87.9111    8.9629 N.pl3   1  UNL1       -0.3041
     11 C          59.7311   87.4208    7.6429 C.3     1  UNL1        0.1122
     12 C          59.0196   88.5312    6.8690 C.3     1  UNL1        0.1122
     13 C          60.0725   92.2842    3.5003 C.ar    1  UNL1        0.0682
     14 C          58.9091   92.2643    4.2830 C.ar    1  UNL1        0.0187
     15 C          58.8226   91.4458    5.4089 C.ar    1  UNL1        0.0160
     16 C          59.9007   90.6288    5.7750 C.ar    1  UNL1        0.0478
     17 C          61.0738   90.6565    5.0070 C.ar    1  UNL1        0.0141
     18 C          61.1891   91.5027    3.8886 C.ar    1  UNL1        0.0248
     19 N          59.9200   93.7910    0.2140 N.ar    1  UNL1       -0.2024
     20 N          60.0959   94.8706    0.9630 N.ar    1  UNL1       -0.1442
     21 C          60.1924   94.4393    2.2403 C.ar    1  UNL1        0.2073
     22 N          60.0947   93.0952    2.3154 N.ar    1  UNL1       -0.2400
     23 C          59.9052   92.7241    1.0369 C.ar    1  UNL1        0.3522
     24 O          59.7088   91.5358    0.6642 O.2     1  UNL1       -0.2444
     25 C          59.7556   93.8260   -1.2437 C.3     1  UNL1        0.1099
     26 C          60.8283   94.7242   -1.8741 C.3     1  UNL1        0.0265
     27 C          57.3056   93.1375   -1.4933 C.3     1  UNL1        0.0021
     28 C          58.3237   94.2720   -1.6073 C.3     1  UNL1        0.0245
     29 C          62.4900   91.5263    3.1191 C.3     1  UNL1        0.1702
     30 O          63.1165   92.7838    3.2747 O.3     1  UNL1       -0.3463
     31 C          63.7505   93.1452    2.0682 C.3     1  UNL1        0.1746
     32 O          59.9019   84.4832   13.4648 O.3     1  UNL1       -0.4727
     33 C          58.9253   83.4747   13.7273 C.3     1  UNL1        0.2374
     34 C          58.7592   82.5531   12.5124 C.3     1  UNL1        0.1909
     35 C          58.7940   81.0987   12.8805 C.3     1  UNL1        0.1783
     36 O          59.4372   80.4526   11.8279 O.3     1  UNL1       -0.3271
     37 C          60.0274   81.4629   11.0321 C.3     1  UNL1        0.2232
     38 O          59.8148   82.7294   11.6254 O.3     1  UNL1       -0.3258
     39 C          59.4400   81.4589    9.6139 C.ar    1  UNL1        0.0404
     40 C          58.3521   80.6006    9.3408 C.ar    1  UNL1        0.0021
     41 C          57.7477   80.5787    8.0835 C.ar    1  UNL1        0.0113
     42 C          58.2000   81.4261    7.0747 C.ar    1  UNL1        0.0585
     43 CL         57.4343   81.3998    5.4967 Cl      1  UNL1       -0.0822
     44 C          59.2522   82.3063    7.3263 C.ar    1  UNL1        0.0226
     45 C          59.8712   82.3420    8.5826 C.ar    1  UNL1        0.0591
     46 CL         61.1493   83.5385    8.7902 Cl      1  UNL1       -0.0824
     47 C          61.5464   81.2255   10.9675 C.3     1  UNL1        0.1338
     48 N          62.2602   82.2130   11.8104 N.3     1  UNL1       -0.2659
     49 C          62.4594   81.7160   13.1844 C.3     1  UNL1        0.0898
     50 C          63.1171   82.8014   14.0405 C.3     1  UNL1        0.0897
     51 N          64.4076   83.1990   13.4475 N.3     1  UNL1       -0.2691
     52 C          65.0415   84.2389   14.2715 C.3     1  UNL1        0.0897
     53 C          64.2074   83.6957   12.0731 C.3     1  UNL1        0.0897
     54 C          63.5484   82.6124   11.2142 C.3     1  UNL1        0.0898
@<TRIPOS>BOND
     1    27    28    1
     2    28    25    1
     3    25    26    1
     4    25    19    1
     5    19    20   ar
     6    20    21   ar
     7    21    22   ar
     8    22    13    1
     9    13    14   ar
    10    14    15   ar
    11    15    16   ar
    12    16     7    1
    13     7     8    1
    14     8     9    1
    15     9    10    1
    16    10     1    1
    17     1     2   ar
    18     2     3   ar
    19     3     4   ar
    20     4    32    1
    21    32    33    1
    22    33    34    1
    23    34    35    1
    24    35    36    1
    25    36    37    1
    26    37    47    1
    27    47    48    1
    28    48    49    1
    29    49    50    1
    30    50    51    1
    31    51    52    1
    32    51    53    1
    33    53    54    1
    34    37    39    1
    35    39    40   ar
    36    40    41   ar
    37    41    42   ar
    38    42    43    1
    39    42    44   ar
    40    44    45   ar
    41    45    46    1
    42    37    38    1
    43     4     5   ar
    44     5     6   ar
    45    10    11    1
    46    11    12    1
    47    16    17   ar
    48    17    18   ar
    49    18    29    1
    50    29    30    1
    51    30    31    1
    52    22    23   ar
    53    23    24    2
    54    23    19   ar
    55    18    13   ar
    56    12     7    1
    57     6     1   ar
    58    38    34    1
    59    54    48    1
    60    45    39   ar
@<TRIPOS>MOLECULE
*****
 54 60 0 0 0
SMALL
GASTEIGER

@<TRIPOS>ATOM
      1 C          59.0566   87.2462    9.8571 C.ar    1  UNL1        0.0481
      2 C          59.5479   87.5803   11.1281 C.ar    1  UNL1        0.0176
      3 C          59.2553   86.7763   12.2329 C.ar    1  UNL1        0.0382
      4 C          58.4735   85.6246   12.0896 C.ar    1  UNL1        0.1388
      5 C          57.9734   85.2908   10.8160 C.ar    1  UNL1        0.0382
      6 C          58.2669   86.0941    9.7104 C.ar    1  UNL1        0.0176
      7 N          59.5253   89.9692    6.6975 N.pl3   1  UNL1       -0.3041
      8 C          60.0164   90.3384    8.0306 C.3     1  UNL1        0.1122
      9 C          60.4279   89.0856    8.8044 C.3     1  UNL1        0.1122
     10 N          59.3679   88.0737    8.7204 N.pl3   1  UNL1       -0.3041
     11 C          58.8753   87.7053    7.3875 C.3     1  UNL1        0.1122
     12 C          58.4646   88.9583    6.6133 C.3     1  UNL1        0.1122
     13 C          60.4564   92.3729    3.3080 C.ar    1  UNL1        0.0682
     14 C          59.2137   92.4922    3.9468 C.ar    1  UNL1        0.0187
     15 C          58.9082   91.7113    5.0612 C.ar    1  UNL1        0.0160
     16 C          59.8420   90.7929    5.5598 C.ar    1  UNL1        0.0478
     17 C          61.0934   90.6806    4.9367 C.ar    1  UNL1        0.0141
     18 C          61.4294   91.4862    3.8330 C.ar    1  UNL1        0.0248
     19 N          60.8810   93.8074    0.0132 N.ar    1  UNL1       -0.2024
     20 N          61.0234   94.8904    0.7646 N.ar    1  UNL1       -0.1442
     21 C          60.9058   94.4842    2.0484 C.ar    1  UNL1        0.2073
     22 N          60.7044   93.1520    2.1274 N.ar    1  UNL1       -0.2400
     23 C          60.6739   92.7639    0.8403 C.ar    1  UNL1        0.3522
     24 O          60.4500   91.5830    0.4599 O.2     1  UNL1       -0.2444
     25 C          60.9294   93.8185   -1.4532 C.3     1  UNL1        0.1099
     26 C          62.2326   94.4715   -1.9331 C.3     1  UNL1        0.0265
     27 C          58.3812   94.0180   -1.3785 C.3     1  UNL1        0.0021
     28 C          59.6754   94.5154   -2.0220 C.3     1  UNL1        0.0245
     29 C          62.8066   91.3563    3.2236 C.3     1  UNL1        0.1702
     30 O          63.4584   92.6105    3.2397 O.3     1  UNL1       -0.3463
     31 C          64.1534   92.7943    2.0268 C.3     1  UNL1        0.1746
     32 O          58.2178   84.8516   13.2341 O.3     1  UNL1       -0.4727
     33 C          58.8426   83.6075   13.5527 C.3     1  UNL1        0.2374
     34 C          59.9017   83.2493   12.5025 C.3     1  UNL1        0.1909
     35 C          60.6775   82.0157   12.8607 C.3     1  UNL1        0.1783
     36 O          61.9774   82.2374   12.4131 O.3     1  UNL1       -0.3271
     37 C          62.0671   83.6130   12.0937 C.3     1  UNL1        0.2232
     38 O          60.8500   84.2614   12.4093 O.3     1  UNL1       -0.3258
     39 C          62.3799   83.8122   10.6041 C.ar    1  UNL1        0.0404
     40 C          61.4057   84.4328    9.7913 C.ar    1  UNL1        0.0021
     41 C          61.6443   84.6787    8.4388 C.ar    1  UNL1        0.0113
     42 C          62.8668   84.3305    7.8691 C.ar    1  UNL1        0.0585
     43 CL         63.1654   84.6461    6.1696 Cl      1  UNL1       -0.0822
     44 C          63.8585   83.7450    8.6558 C.ar    1  UNL1        0.0226
     45 C          63.6366   83.4905   10.0156 C.ar    1  UNL1        0.0591
     46 CL         64.9890   82.8010   10.9122 Cl      1  UNL1       -0.0824
     47 C          63.1741   84.2541   12.9488 C.3     1  UNL1        0.1338
     48 N          62.6536   85.4448   13.6603 N.3     1  UNL1       -0.2659
     49 C          62.8821   85.3558   15.1144 C.3     1  UNL1        0.0898
     50 C          62.2491   86.5604   15.8157 C.3     1  UNL1        0.0897
     51 N          62.8200   87.8117   15.2832 N.3     1  UNL1       -0.2691
     52 C          62.2150   88.9690   15.9591 C.3     1  UNL1        0.0897
     53 C          62.5912   87.8998   13.8286 C.3     1  UNL1        0.0897
     54 C          63.2222   86.6953   13.1241 C.3     1  UNL1        0.0898
@<TRIPOS>BOND
     1    27    28    1
     2    28    25    1
     3    25    26    1
     4    25    19    1
     5    19    20   ar
     6    20    21   ar
     7    21    22   ar
     8    22    13    1
     9    13    14   ar
    10    14    15   ar
    11    15    16   ar
    12    16     7    1
    13     7     8    1
    14     8     9    1
    15     9    10    1
    16    10     1    1
    17     1     2   ar
    18     2     3   ar
    19     3     4   ar
    20     4    32    1
    21    32    33    1
    22    33    34    1
    23    34    35    1
    24    35    36    1
    25    36    37    1
    26    37    47    1
    27    47    48    1
    28    48    49    1
    29    49    50    1
    30    50    51    1
    31    51    52    1
    32    51    53    1
    33    53    54    1
    34    37    39    1
    35    39    40   ar
    36    40    41   ar
    37    41    42   ar
    38    42    43    1
    39    42    44   ar
    40    44    45   ar
    41    45    46    1
    42    37    38    1
    43     4     5   ar
    44     5     6   ar
    45    10    11    1
    46    11    12    1
    47    16    17   ar
    48    17    18   ar
    49    18    29    1
    50    29    30    1
    51    30    31    1
    52    22    23   ar
    53    23    24    2
    54    23    19   ar
    55    18    13   ar
    56    12     7    1
    57     6     1   ar
    58    38    34    1
    59    54    48    1
    60    45    39   ar
@<TRIPOS>MOLECULE
*****
 54 60 0 0 0
SMALL
GASTEIGER

@<TRIPOS>ATOM
      1 C          59.7556   87.8865   10.6540 C.ar    1  UNL1        0.0481
      2 C          60.7716   88.1028   11.5972 C.ar    1  UNL1        0.0176
      3 C          60.8368   87.3258   12.7568 C.ar    1  UNL1        0.0382
      4 C          59.8952   86.3181   12.9938 C.ar    1  UNL1        0.1388
      5 C          58.8703   86.1036   12.0520 C.ar    1  UNL1        0.0382
      6 C          58.8055   86.8798   10.8913 C.ar    1  UNL1        0.0176
      7 N          60.0624   89.9578    7.0163 N.pl3   1  UNL1       -0.3041
      8 C          59.5425   88.5852    7.0091 C.3     1  UNL1        0.1122
      9 C          58.8425   88.2815    8.3340 C.3     1  UNL1        0.1122
     10 N          59.6978   88.6846    9.4568 N.pl3   1  UNL1       -0.3041
     11 C          60.2193   90.0568    9.4637 C.3     1  UNL1        0.1122
     12 C          60.9186   90.3608    8.1382 C.3     1  UNL1        0.1122
     13 C          59.8752   92.2909    3.4590 C.ar    1  UNL1        0.0682
     14 C          58.7285   92.0901    4.2408 C.ar    1  UNL1        0.0187
     15 C          58.7880   91.3322    5.4101 C.ar    1  UNL1        0.0160
     16 C          59.9986   90.7583    5.8211 C.ar    1  UNL1        0.0478
     17 C          61.1531   90.9694    5.0535 C.ar    1  UNL1        0.0141
     18 C          61.1166   91.7604    3.8904 C.ar    1  UNL1        0.0248
     19 N          59.3794   93.5765    0.1130 N.ar    1  UNL1       -0.2024
     20 N          59.5344   94.7099    0.7830 N.ar    1  UNL1       -0.1442
     21 C          59.7534   94.3663    2.0718 C.ar    1  UNL1        0.2073
     22 N          59.7547   93.0261    2.2312 N.ar    1  UNL1       -0.2400
     23 C          59.4985   92.5643    0.9946 C.ar    1  UNL1        0.3522
     24 O          59.3581   91.3449    0.7070 O.2     1  UNL1       -0.2444
     25 C          59.1071   93.5096   -1.3272 C.3     1  UNL1        0.1099
     26 C          59.9728   94.5319   -2.0758 C.3     1  UNL1        0.0265
     27 C          56.8654   92.3842   -1.8247 C.3     1  UNL1        0.0021
     28 C          57.5996   93.7049   -1.5936 C.3     1  UNL1        0.0245
     29 C          62.3973   91.9919    3.1215 C.3     1  UNL1        0.1702
     30 O          63.4856   91.4206    3.8195 O.3     1  UNL1       -0.3463
     31 C          63.9536   90.2914    3.1166 C.3     1  UNL1        0.1746
     32 O          60.0148   85.5648   14.1731 O.3     1  UNL1       -0.4727
     33 C          61.2396   85.0965   14.7389 C.3     1  UNL1        0.2374
     34 C          61.9732   84.1763   13.7550 C.3     1  UNL1        0.1909
     35 C          63.1612   84.8380   13.1202 C.3     1  UNL1        0.1783
     36 O          63.2155   84.3565   11.8147 O.3     1  UNL1       -0.3271
     37 C          61.9846   83.7017   11.5726 C.3     1  UNL1        0.2232
     38 O          61.1374   83.8369   12.6974 O.3     1  UNL1       -0.3258
     39 C          62.2037   82.2118   11.2752 C.ar    1  UNL1        0.0404
     40 C          61.2552   81.2844   11.7599 C.ar    1  UNL1        0.0021
     41 C          61.3755   79.9208   11.4901 C.ar    1  UNL1        0.0113
     42 C          62.4327   79.4516   10.7139 C.ar    1  UNL1        0.0585
     43 CL         62.5780   77.7372   10.3721 Cl      1  UNL1       -0.0822
     44 C          63.3665   80.3489   10.1961 C.ar    1  UNL1        0.0226
     45 C          63.2616   81.7215   10.4568 C.ar    1  UNL1        0.0591
     46 CL         64.4706   82.7556    9.6970 Cl      1  UNL1       -0.0824
     47 C          61.2866   84.3743   10.3776 C.3     1  UNL1        0.1338
     48 N          60.5276   83.3735    9.5919 N.3     1  UNL1       -0.2659
     49 C          59.1064   83.3348    9.9836 C.3     1  UNL1        0.0898
     50 C          58.3838   82.2272    9.2125 C.3     1  UNL1        0.0897
     51 N          58.5090   82.4582    7.7613 N.3     1  UNL1       -0.2691
     52 C          57.8118   81.3966    7.0203 C.3     1  UNL1        0.0897
     53 C          59.9308   82.4970    7.3704 C.3     1  UNL1        0.0897
     54 C          60.6570   83.6034    8.1411 C.3     1  UNL1        0.0898
@<TRIPOS>BOND
     1    27    28    1
     2    28    25    1
     3    25    26    1
     4    25    19    1
     5    19    20   ar
     6    20    21   ar
     7    21    22   ar
     8    22    13    1
     9    13    14   ar
    10    14    15   ar
    11    15    16   ar
    12    16     7    1
    13     7     8    1
    14     8     9    1
    15     9    10    1
    16    10     1    1
    17     1     2   ar
    18     2     3   ar
    19     3     4   ar
    20     4    32    1
    21    32    33    1
    22    33    34    1
    23    34    35    1
    24    35    36    1
    25    36    37    1
    26    37    47    1
    27    47    48    1
    28    48    49    1
    29    49    50    1
    30    50    51    1
    31    51    52    1
    32    51    53    1
    33    53    54    1
    34    37    39    1
    35    39    40   ar
    36    40    41   ar
    37    41    42   ar
    38    42    43    1
    39    42    44   ar
    40    44    45   ar
    41    45    46    1
    42    37    38    1
    43     4     5   ar
    44     5     6   ar
    45    10    11    1
    46    11    12    1
    47    16    17   ar
    48    17    18   ar
    49    18    29    1
    50    29    30    1
    51    30    31    1
    52    22    23   ar
    53    23    24    2
    54    23    19   ar
    55    18    13   ar
    56    12     7    1
    57     6     1   ar
    58    38    34    1
    59    54    48    1
    60    45    39   ar
@<TRIPOS>MOLECULE
*****
 54 60 0 0 0
SMALL
GASTEIGER

@<TRIPOS>ATOM
      1 C          58.5093   85.6761   10.3829 C.ar    1  UNL1        0.0481
      2 C          58.1160   84.3887    9.9873 C.ar    1  UNL1        0.0176
      3 C          57.9148   83.3869   10.9405 C.ar    1  UNL1        0.0382
      4 C          58.0969   83.6515   12.3025 C.ar    1  UNL1        0.1388
      5 C          58.4984   84.9411   12.7016 C.ar    1  UNL1        0.0382
      6 C          58.6985   85.9438   11.7485 C.ar    1  UNL1        0.0176
      7 N          59.6102   88.4892    7.4689 N.pl3   1  UNL1       -0.3041
      8 C          59.2752   87.1242    7.0459 C.3     1  UNL1        0.1122
      9 C          58.2632   86.5082    8.0124 C.3     1  UNL1        0.1122
     10 N          58.7073   86.7071    9.3973 N.pl3   1  UNL1       -0.3041
     11 C          59.0440   88.0719    9.8203 C.3     1  UNL1        0.1122
     12 C          60.0554   88.6883    8.8531 C.3     1  UNL1        0.1122
     13 C          60.1710   91.5715    4.5847 C.ar    1  UNL1        0.0682
     14 C          61.2662   90.8446    5.0732 C.ar    1  UNL1        0.0187
     15 C          61.0852   89.8299    6.0127 C.ar    1  UNL1        0.0160
     16 C          59.8017   89.5218    6.4837 C.ar    1  UNL1        0.0478
     17 C          58.6998   90.2328    5.9867 C.ar    1  UNL1        0.0141
     18 C          58.8625   91.2354    5.0129 C.ar    1  UNL1        0.0248
     19 N          61.2188   93.8867    2.0087 N.ar    1  UNL1       -0.2024
     20 N          60.1292   94.4992    2.4504 N.ar    1  UNL1       -0.1442
     21 C          59.6391   93.7347    3.4516 C.ar    1  UNL1        0.2073
     22 N          60.4107   92.6481    3.6650 N.ar    1  UNL1       -0.2400
     23 C          61.3754   92.7627    2.7353 C.ar    1  UNL1        0.3522
     24 O          62.2877   91.9124    2.5502 O.2     1  UNL1       -0.2444
     25 C          62.0476   94.3879    0.9064 C.3     1  UNL1        0.1099
     26 C          61.8942   93.4822   -0.3228 C.3     1  UNL1        0.0265
     27 C          64.4930   93.8243    0.4154 C.3     1  UNL1        0.0021
     28 C          63.5160   94.5209    1.3623 C.3     1  UNL1        0.0245
     29 C          57.6383   91.9433    4.4788 C.3     1  UNL1        0.1702
     30 O          56.6002   91.8947    5.4369 O.3     1  UNL1       -0.3463
     31 C          55.6889   90.8759    5.0909 C.3     1  UNL1        0.1746
     32 O          57.8736   82.6075   13.2151 O.3     1  UNL1       -0.4727
     33 C          58.7497   81.5032   13.4444 C.3     1  UNL1        0.2374
     34 C          60.0117   81.6253   12.5809 C.3     1  UNL1        0.1909
     35 C          61.0655   80.6234   12.9518 C.3     1  UNL1        0.1783
     36 O          62.2865   81.2709   12.7809 O.3     1  UNL1       -0.3271
     37 C          61.9971   82.6473   12.6248 C.3     1  UNL1        0.2232
     38 O          60.6072   82.8670   12.7702 O.3     1  UNL1       -0.3258
     39 C          62.4521   83.1520   11.2483 C.ar    1  UNL1        0.0404
     40 C          61.4984   83.7755   10.4137 C.ar    1  UNL1        0.0021
     41 C          61.8569   84.2912    9.1678 C.ar    1  UNL1        0.0113
     42 C          63.1780   84.2158    8.7329 C.ar    1  UNL1        0.0585
     43 CL         63.6263   84.8701    7.1683 Cl      1  UNL1       -0.0822
     44 C          64.1466   83.6335    9.5503 C.ar    1  UNL1        0.0226
     45 C          63.8049   83.1103   10.8042 C.ar    1  UNL1        0.0591
     46 CL         65.1301   82.4543   11.7645 Cl      1  UNL1       -0.0824
     47 C          62.7143   83.4382   13.7329 C.3     1  UNL1        0.1338
     48 N          61.9683   84.6787   14.0480 N.3     1  UNL1       -0.2659
     49 C          61.9158   84.9309   15.5001 C.3     1  UNL1        0.0898
     50 C          61.0607   86.1688   15.7830 C.3     1  UNL1        0.0897
     51 N          61.6186   87.3390   15.0798 N.3     1  UNL1       -0.2691
     52 C          60.7999   88.5291   15.3544 C.3     1  UNL1        0.0897
     53 C          61.6710   87.0859   13.6276 C.3     1  UNL1        0.0897
     54 C          62.5248   85.8472   13.3412 C.3     1  UNL1        0.0898
@<TRIPOS>BOND
     1    27    28    1
     2    28    25    1
     3    25    26    1
     4    25    19    1
     5    19    20   ar
     6    20    21   ar
     7    21    22   ar
     8    22    13    1
     9    13    14   ar
    10    14    15   ar
    11    15    16   ar
    12    16     7    1
    13     7     8    1
    14     8     9    1
    15     9    10    1
    16    10     1    1
    17     1     2   ar
    18     2     3   ar
    19     3     4   ar
    20     4    32    1
    21    32    33    1
    22    33    34    1
    23    34    35    1
    24    35    36    1
    25    36    37    1
    26    37    47    1
    27    47    48    1
    28    48    49    1
    29    49    50    1
    30    50    51    1
    31    51    52    1
    32    51    53    1
    33    53    54    1
    34    37    39    1
    35    39    40   ar
    36    40    41   ar
    37    41    42   ar
    38    42    43    1
    39    42    44   ar
    40    44    45   ar
    41    45    46    1
    42    37    38    1
    43     4     5   ar
    44     5     6   ar
    45    10    11    1
    46    11    12    1
    47    16    17   ar
    48    17    18   ar
    49    18    29    1
    50    29    30    1
    51    30    31    1
    52    22    23   ar
    53    23    24    2
    54    23    19   ar
    55    18    13   ar
    56    12     7    1
    57     6     1   ar
    58    38    34    1
    59    54    48    1
    60    45    39   ar
