@<TRIPOS>MOLECULE
*****
 43 47 0 0 0
SMALL
GASTEIGER

@<TRIPOS>ATOM
      1 C          -8.8405   -9.6395   32.1472 C.3     1  UNL1        0.1333
      2 N          -8.9193  -10.8754   31.3673 N.ar    1  UNL1       -0.2950
      3 C          -9.8937  -11.8279   31.3827 C.ar    1  UNL1        0.2019
      4 N          -9.7124  -12.8090   30.4626 N.ar    1  UNL1       -0.2134
      5 C          -8.5527  -12.4607   29.8776 C.ar    1  UNL1        0.1033
      6 C          -7.8929  -13.1353   28.8534 C.ar    1  UNL1        0.0284
      7 C          -6.6625  -12.6164   28.3905 C.ar    1  UNL1        0.0922
      8 C          -6.1522  -11.4159   28.9579 C.ar    1  UNL1        0.1782
      9 C          -6.8635  -10.7467   29.9766 C.ar    1  UNL1        0.1897
     10 C          -8.0627  -11.3089   30.4231 C.ar    1  UNL1        0.1173
     11 O          -6.3526   -9.5556   30.5008 O.3     1  UNL1       -0.4669
     12 C          -5.3037   -8.8478   29.8374 C.3     1  UNL1        0.2527
     13 C          -4.2832   -9.8340   29.2583 C.3     1  UNL1        0.2526
     14 O          -4.9507  -10.8526   28.5105 O.3     1  UNL1       -0.4682
     15 C          -5.9380  -13.3331   27.3206 C.2     1  UNL1        0.2526
     16 O          -4.7943  -12.9249   26.9808 O.2     1  UNL1       -0.2697
     17 N          -6.5259  -14.4746   26.6707 N.am    1  UNL1       -0.2803
     18 H          -7.4528  -14.8204   27.0051 H       1  UNL1        0.1552
     19 C          -5.8800  -15.2283   25.6314 C.ar    1  UNL1        0.0506
     20 C          -4.9108  -16.1785   25.9777 C.ar    1  UNL1        0.0170
     21 C          -4.2894  -16.9457   24.9915 C.ar    1  UNL1        0.0309
     22 C          -4.6363  -16.7810   23.6484 C.ar    1  UNL1        0.1441
     23 F          -4.0279  -17.5515   22.7109 F       1  UNL1       -0.2042
     24 C          -5.6156  -15.8405   23.2779 C.ar    1  UNL1        0.1000
     25 C          -6.2486  -15.0819   24.2818 C.ar    1  UNL1        0.0208
     26 C          -6.0134  -15.7025   21.8275 C.3     1  UNL1        0.4207
     27 F          -6.4170  -16.9130   21.2905 F       1  UNL1       -0.1658
     28 F          -7.0619  -14.8072   21.7122 F       1  UNL1       -0.1658
     29 F          -4.9357  -15.2318   21.1005 F       1  UNL1       -0.1658
     30 N         -11.0203  -11.8241   32.2707 N.pl3   1  UNL1       -0.2814
     31 H         -11.6745  -11.0117   32.2129 H       1  UNL1        0.1551
     32 C         -11.3840  -12.9329   33.1119 C.ar    1  UNL1        0.0891
     33 C         -10.6891  -13.1530   34.3147 C.ar    1  UNL1        0.0733
     34 CL         -9.3466  -12.1221   34.7935 Cl      1  UNL1       -0.0809
     35 C         -11.0363  -14.2260   35.1373 C.ar    1  UNL1        0.0130
     36 C         -12.0778  -15.0818   34.7801 C.ar    1  UNL1        0.0097
     37 C         -12.8000  -14.8742   33.5933 C.ar    1  UNL1        0.1041
     38 C         -12.4524  -13.7863   32.7634 C.ar    1  UNL1        0.1605
     39 F         -13.1676  -13.5338   31.6366 F       1  UNL1       -0.2026
     40 C         -13.9088  -15.7960   33.2430 C.2     1  UNL1        0.3403
     41 O         -15.0992  -15.5222   33.5546 O.2     1  UNL1       -0.2450
     42 O         -13.6444  -16.9798   32.5584 O.3     1  UNL1       -0.4770
     43 H         -14.3923  -17.6171   32.3121 H       1  UNL1        0.2954
@<TRIPOS>BOND
     1     1     2    1
     2     2     3   ar
     3     3    30    1
     4    30    32    1
     5    32    33   ar
     6    33    34    1
     7    33    35   ar
     8    35    36   ar
     9    36    37   ar
    10    37    40    1
    11    40    41    2
    12    40    42    1
    13    37    38   ar
    14    38    39    1
    15     3     4   ar
    16     4     5   ar
    17     5     6   ar
    18     6     7   ar
    19     7    15    1
    20    15    16    2
    21    15    17   am
    22    17    19    1
    23    19    20   ar
    24    20    21   ar
    25    21    22   ar
    26    22    23    1
    27    22    24   ar
    28    24    26    1
    29    26    27    1
    30    26    28    1
    31    26    29    1
    32    24    25   ar
    33     7     8   ar
    34     8     9   ar
    35     9    10   ar
    36     9    11    1
    37    11    12    1
    38    12    13    1
    39    13    14    1
    40    10     2   ar
    41    38    32   ar
    42    10     5   ar
    43    25    19   ar
    44    14     8    1
    45    30    31    1
    46    42    43    1
    47    17    18    1
@<TRIPOS>MOLECULE
*****
 43 47 0 0 0
SMALL
GASTEIGER

@<TRIPOS>ATOM
      1 C          -8.4835  -10.2525   31.3280 C.3     1  UNL1        0.1333
      2 N          -8.8078  -11.5346   30.7011 N.ar    1  UNL1       -0.2950
      3 C          -9.8851  -12.3391   30.9229 C.ar    1  UNL1        0.2019
      4 N          -9.9380  -13.4189   30.1023 N.ar    1  UNL1       -0.2134
      5 C          -8.8210  -13.2897   29.3646 C.ar    1  UNL1        0.1033
      6 C          -8.3764  -14.1425   28.3574 C.ar    1  UNL1        0.0284
      7 C          -7.1541  -13.8431   27.7142 C.ar    1  UNL1        0.0922
      8 C          -6.4342  -12.6751   28.0898 C.ar    1  UNL1        0.1782
      9 C          -6.9308  -11.8211   29.0975 C.ar    1  UNL1        0.1897
     10 C          -8.1298  -12.1690   29.7259 C.ar    1  UNL1        0.1173
     11 O          -6.2166  -10.6665   29.4313 O.3     1  UNL1       -0.4669
     12 C          -5.1731  -10.1752   28.5883 C.3     1  UNL1        0.2527
     13 C          -4.3596  -11.3422   28.0176 C.3     1  UNL1        0.2526
     14 O          -5.2329  -12.3265   27.4601 O.3     1  UNL1       -0.4682
     15 C          -6.6564  -14.7507   26.6598 C.2     1  UNL1        0.2526
     16 O          -6.1016  -15.8312   26.9986 O.2     1  UNL1       -0.2697
     17 N          -6.7952  -14.4089   25.2688 N.am    1  UNL1       -0.2803
     18 H          -7.3017  -13.5315   25.0156 H       1  UNL1        0.1552
     19 C          -6.3465  -15.2431   24.1879 C.ar    1  UNL1        0.0506
     20 C          -6.9956  -15.1644   22.9491 C.ar    1  UNL1        0.0170
     21 C          -6.5619  -15.9407   21.8736 C.ar    1  UNL1        0.0309
     22 C          -5.4679  -16.7970   22.0192 C.ar    1  UNL1        0.1441
     23 F          -5.0568  -17.5290   20.9524 F       1  UNL1       -0.2042
     24 C          -4.7931  -16.8842   23.2512 C.ar    1  UNL1        0.1000
     25 C          -5.2283  -16.0850   24.3264 C.ar    1  UNL1        0.0208
     26 C          -3.5849  -17.7806   23.3839 C.3     1  UNL1        0.4207
     27 F          -3.8128  -19.0307   22.8342 F       1  UNL1       -0.1658
     28 F          -2.5053  -17.2118   22.7319 F       1  UNL1       -0.1658
     29 F          -3.2742  -17.9343   24.7224 F       1  UNL1       -0.1658
     30 N         -10.8896  -12.0969   31.9179 N.pl3   1  UNL1       -0.2814
     31 H         -11.4282  -11.2044   31.8492 H       1  UNL1        0.1551
     32 C         -11.3021  -13.0676   32.8962 C.ar    1  UNL1        0.0891
     33 C         -10.6744  -13.0997   34.1543 C.ar    1  UNL1        0.0733
     34 CL         -9.3566  -12.0015   34.5438 Cl      1  UNL1       -0.0809
     35 C         -11.0691  -14.0378   35.1097 C.ar    1  UNL1        0.0130
     36 C         -12.0924  -14.9431   34.8301 C.ar    1  UNL1        0.0097
     37 C         -12.7482  -14.9210   33.5881 C.ar    1  UNL1        0.1041
     38 C         -12.3526  -13.9693   32.6233 C.ar    1  UNL1        0.1605
     39 F         -13.0046  -13.8938   31.4341 F       1  UNL1       -0.2026
     40 C         -13.8392  -15.8908   33.3216 C.2     1  UNL1        0.3403
     41 O         -15.0153  -15.6640   33.7147 O.2     1  UNL1       -0.2450
     42 O         -13.5740  -17.0683   32.6265 O.3     1  UNL1       -0.4770
     43 H         -14.3100  -17.7381   32.4368 H       1  UNL1        0.2954
@<TRIPOS>BOND
     1     1     2    1
     2     2     3   ar
     3     3    30    1
     4    30    32    1
     5    32    33   ar
     6    33    34    1
     7    33    35   ar
     8    35    36   ar
     9    36    37   ar
    10    37    40    1
    11    40    41    2
    12    40    42    1
    13    37    38   ar
    14    38    39    1
    15     3     4   ar
    16     4     5   ar
    17     5     6   ar
    18     6     7   ar
    19     7    15    1
    20    15    16    2
    21    15    17   am
    22    17    19    1
    23    19    20   ar
    24    20    21   ar
    25    21    22   ar
    26    22    23    1
    27    22    24   ar
    28    24    26    1
    29    26    27    1
    30    26    28    1
    31    26    29    1
    32    24    25   ar
    33     7     8   ar
    34     8     9   ar
    35     9    10   ar
    36     9    11    1
    37    11    12    1
    38    12    13    1
    39    13    14    1
    40    10     2   ar
    41    38    32   ar
    42    10     5   ar
    43    25    19   ar
    44    14     8    1
    45    30    31    1
    46    42    43    1
    47    17    18    1
@<TRIPOS>MOLECULE
*****
 43 47 0 0 0
SMALL
GASTEIGER

@<TRIPOS>ATOM
      1 C          -8.5714  -10.2237   31.3244 C.3     1  UNL1        0.1333
      2 N          -8.8625  -11.5162   30.7026 N.ar    1  UNL1       -0.2950
      3 C          -9.9271  -12.3397   30.9157 C.ar    1  UNL1        0.2019
      4 N          -9.9480  -13.4261   30.1025 N.ar    1  UNL1       -0.2134
      5 C          -8.8237  -13.2807   29.3790 C.ar    1  UNL1        0.1033
      6 C          -8.3491  -14.1319   28.3843 C.ar    1  UNL1        0.0284
      7 C          -7.1241  -13.8136   27.7555 C.ar    1  UNL1        0.0922
      8 C          -6.4319  -12.6293   28.1322 C.ar    1  UNL1        0.1782
      9 C          -6.9586  -11.7779   29.1268 C.ar    1  UNL1        0.1897
     10 C          -8.1591  -12.1443   29.7414 C.ar    1  UNL1        0.1173
     11 O          -6.2712  -10.6074   29.4617 O.3     1  UNL1       -0.4669
     12 C          -5.2259  -10.1021   28.6293 C.3     1  UNL1        0.2527
     13 C          -4.3824  -11.2573   28.0783 C.3     1  UNL1        0.2526
     14 O          -5.2291  -12.2621   27.5163 O.3     1  UNL1       -0.4682
     15 C          -6.5947  -14.7189   26.7146 C.2     1  UNL1        0.2526
     16 O          -5.8353  -15.6648   27.0593 O.2     1  UNL1       -0.2697
     17 N          -6.9328  -14.5250   25.3293 N.am    1  UNL1       -0.2803
     18 H          -7.6022  -13.7639   25.0778 H       1  UNL1        0.1552
     19 C          -6.4665  -15.3682   24.2630 C.ar    1  UNL1        0.0506
     20 C          -5.1640  -15.1975   23.7765 C.ar    1  UNL1        0.0170
     21 C          -4.6749  -16.0220   22.7624 C.ar    1  UNL1        0.0309
     22 C          -5.4768  -17.0340   22.2294 C.ar    1  UNL1        0.1441
     23 F          -4.9706  -17.8322   21.2549 F       1  UNL1       -0.2042
     24 C          -6.7846  -17.2316   22.7105 C.ar    1  UNL1        0.1000
     25 C          -7.2640  -16.4047   23.7451 C.ar    1  UNL1        0.0208
     26 C          -7.6263  -18.3568   22.1570 C.3     1  UNL1        0.4207
     27 F          -7.8292  -18.2211   20.7943 F       1  UNL1       -0.1658
     28 F          -6.9963  -19.5679   22.3821 F       1  UNL1       -0.1658
     29 F          -8.8554  -18.3627   22.7903 F       1  UNL1       -0.1658
     30 N         -10.9496  -12.1098   31.8953 N.pl3   1  UNL1       -0.2814
     31 H         -11.4999  -11.2254   31.8164 H       1  UNL1        0.1551
     32 C         -11.3623  -13.0841   32.8698 C.ar    1  UNL1        0.0891
     33 C         -10.7361  -13.1199   34.1286 C.ar    1  UNL1        0.0733
     34 CL         -9.4198  -12.0218   34.5233 Cl      1  UNL1       -0.0809
     35 C         -11.1311  -14.0616   35.0804 C.ar    1  UNL1        0.0130
     36 C         -12.1532  -14.9668   34.7965 C.ar    1  UNL1        0.0097
     37 C         -12.8076  -14.9412   33.5538 C.ar    1  UNL1        0.1041
     38 C         -12.4117  -13.9859   32.5926 C.ar    1  UNL1        0.1605
     39 F         -13.0623  -13.9070   31.4029 F       1  UNL1       -0.2026
     40 C         -13.8974  -15.9111   33.2828 C.2     1  UNL1        0.3403
     41 O         -13.6606  -17.0013   32.6959 O.2     1  UNL1       -0.2450
     42 O         -15.2018  -15.6264   33.6798 O.3     1  UNL1       -0.4770
     43 H         -15.9547  -16.2804   33.5020 H       1  UNL1        0.2954
@<TRIPOS>BOND
     1     1     2    1
     2     2     3   ar
     3     3    30    1
     4    30    32    1
     5    32    33   ar
     6    33    34    1
     7    33    35   ar
     8    35    36   ar
     9    36    37   ar
    10    37    40    1
    11    40    41    2
    12    40    42    1
    13    37    38   ar
    14    38    39    1
    15     3     4   ar
    16     4     5   ar
    17     5     6   ar
    18     6     7   ar
    19     7    15    1
    20    15    16    2
    21    15    17   am
    22    17    19    1
    23    19    20   ar
    24    20    21   ar
    25    21    22   ar
    26    22    23    1
    27    22    24   ar
    28    24    26    1
    29    26    27    1
    30    26    28    1
    31    26    29    1
    32    24    25   ar
    33     7     8   ar
    34     8     9   ar
    35     9    10   ar
    36     9    11    1
    37    11    12    1
    38    12    13    1
    39    13    14    1
    40    10     2   ar
    41    38    32   ar
    42    10     5   ar
    43    25    19   ar
    44    14     8    1
    45    30    31    1
    46    42    43    1
    47    17    18    1
@<TRIPOS>MOLECULE
*****
 43 47 0 0 0
SMALL
GASTEIGER

@<TRIPOS>ATOM
      1 C          -6.2594  -11.8012   29.2054 C.3     1  UNL1        0.1333
      2 N          -7.4553  -12.6346   29.0738 N.ar    1  UNL1       -0.2950
      3 C          -8.6554  -12.5022   29.7055 C.ar    1  UNL1        0.2019
      4 N          -9.5936  -13.3887   29.2859 N.ar    1  UNL1       -0.2134
      5 C          -8.9271  -14.1232   28.3777 C.ar    1  UNL1        0.1033
      6 C          -9.4231  -15.1905   27.6332 C.ar    1  UNL1        0.0284
      7 C          -8.5480  -15.8532   26.7432 C.ar    1  UNL1        0.0922
      8 C          -7.2066  -15.3978   26.6127 C.ar    1  UNL1        0.1782
      9 C          -6.7484  -14.2958   27.3657 C.ar    1  UNL1        0.1897
     10 C          -7.6395  -13.6864   28.2534 C.ar    1  UNL1        0.1173
     11 O          -5.4327  -13.8525   27.2013 O.3     1  UNL1       -0.4669
     12 C          -4.6422  -14.2838   26.0922 C.3     1  UNL1        0.2527
     13 C          -4.9077  -15.7643   25.7965 C.3     1  UNL1        0.2526
     14 O          -6.3139  -16.0083   25.7232 O.3     1  UNL1       -0.4682
     15 C          -9.0520  -17.0025   25.9632 C.2     1  UNL1        0.2526
     16 O          -9.3129  -18.0794   26.5653 O.2     1  UNL1       -0.2697
     17 N          -9.2382  -16.9011   24.5398 N.am    1  UNL1       -0.2803
     18 H          -9.0607  -15.9832   24.0745 H       1  UNL1        0.1552
     19 C          -9.7333  -17.9698   23.7162 C.ar    1  UNL1        0.0506
     20 C         -10.4213  -19.0324   24.3160 C.ar    1  UNL1        0.0170
     21 C         -10.9391  -20.0681   23.5373 C.ar    1  UNL1        0.0309
     22 C         -10.7855  -20.0498   22.1490 C.ar    1  UNL1        0.1441
     23 F         -11.3129  -21.0618   21.4137 F       1  UNL1       -0.2042
     24 C         -10.1080  -18.9866   21.5232 C.ar    1  UNL1        0.1000
     25 C          -9.6027  -17.9378   22.3161 C.ar    1  UNL1        0.0208
     26 C          -9.9866  -18.9557   20.0181 C.3     1  UNL1        0.4207
     27 F         -10.5691  -17.8203   19.4814 F       1  UNL1       -0.1658
     28 F          -8.6516  -18.9698   19.6551 F       1  UNL1       -0.1658
     29 F         -10.6110  -20.0687   19.4860 F       1  UNL1       -0.1658
     30 N          -8.9373  -11.5278   30.7197 N.pl3   1  UNL1       -0.2814
     31 H          -9.0776  -10.5398   30.4106 H       1  UNL1        0.1551
     32 C          -9.1919  -11.8528   32.0977 C.ar    1  UNL1        0.0891
     33 C          -8.3148  -11.3927   33.0962 C.ar    1  UNL1        0.0733
     34 CL         -6.8794  -10.4607   32.6897 Cl      1  UNL1       -0.0809
     35 C          -8.5550  -11.7027   34.4359 C.ar    1  UNL1        0.0130
     36 C          -9.6681  -12.4614   34.7968 C.ar    1  UNL1        0.0097
     37 C         -10.5698  -12.9184   33.8215 C.ar    1  UNL1        0.1041
     38 C         -10.3299  -12.6011   32.4668 C.ar    1  UNL1        0.1605
     39 F         -11.2133  -12.9875   31.5102 F       1  UNL1       -0.2026
     40 C         -11.7501  -13.7166   34.2356 C.2     1  UNL1        0.3403
     41 O         -12.9143  -13.3713   33.8972 O.2     1  UNL1       -0.2450
     42 O         -11.5825  -14.8655   35.0050 O.3     1  UNL1       -0.4770
     43 H         -12.3797  -15.4201   35.2933 H       1  UNL1        0.2954
@<TRIPOS>BOND
     1     1     2    1
     2     2     3   ar
     3     3    30    1
     4    30    32    1
     5    32    33   ar
     6    33    34    1
     7    33    35   ar
     8    35    36   ar
     9    36    37   ar
    10    37    40    1
    11    40    41    2
    12    40    42    1
    13    37    38   ar
    14    38    39    1
    15     3     4   ar
    16     4     5   ar
    17     5     6   ar
    18     6     7   ar
    19     7    15    1
    20    15    16    2
    21    15    17   am
    22    17    19    1
    23    19    20   ar
    24    20    21   ar
    25    21    22   ar
    26    22    23    1
    27    22    24   ar
    28    24    26    1
    29    26    27    1
    30    26    28    1
    31    26    29    1
    32    24    25   ar
    33     7     8   ar
    34     8     9   ar
    35     9    10   ar
    36     9    11    1
    37    11    12    1
    38    12    13    1
    39    13    14    1
    40    10     2   ar
    41    38    32   ar
    42    10     5   ar
    43    25    19   ar
    44    14     8    1
    45    30    31    1
    46    42    43    1
    47    17    18    1
@<TRIPOS>MOLECULE
*****
 43 47 0 0 0
SMALL
GASTEIGER

@<TRIPOS>ATOM
      1 C          -9.2552  -15.0434   27.6124 C.3     1  UNL1        0.1333
      2 N          -7.8672  -14.7570   27.2474 N.ar    1  UNL1       -0.2950
      3 C          -6.9186  -14.0976   27.9701 C.ar    1  UNL1        0.2019
      4 N          -5.6951  -14.0861   27.3827 N.ar    1  UNL1       -0.2134
      5 C          -5.9111  -14.7401   26.2275 C.ar    1  UNL1        0.1033
      6 C          -4.9790  -15.0112   25.2290 C.ar    1  UNL1        0.0284
      7 C          -5.4145  -15.6938   24.0706 C.ar    1  UNL1        0.0922
      8 C          -6.7724  -16.1060   23.9710 C.ar    1  UNL1        0.1782
      9 C          -7.6812  -15.8355   25.0160 C.ar    1  UNL1        0.1897
     10 C          -7.2147  -15.1348   26.1318 C.ar    1  UNL1        0.1173
     11 O          -9.0045  -16.2726   24.9043 O.3     1  UNL1       -0.4669
     12 C          -9.3834  -17.2320   23.9159 C.3     1  UNL1        0.2527
     13 C          -8.6384  -16.9629   22.6036 C.3     1  UNL1        0.2526
     14 O          -7.2397  -16.8081   22.8531 O.3     1  UNL1       -0.4682
     15 C          -4.4434  -15.9684   22.9914 C.2     1  UNL1        0.2526
     16 O          -4.5879  -15.3894   21.8805 O.2     1  UNL1       -0.2697
     17 N          -3.3530  -16.8846   23.1980 N.am    1  UNL1       -0.2803
     18 H          -3.2291  -17.3125   24.1425 H       1  UNL1        0.1552
     19 C          -2.3643  -17.1943   22.2021 C.ar    1  UNL1        0.0506
     20 C          -2.0885  -16.2571   21.1982 C.ar    1  UNL1        0.0170
     21 C          -1.1122  -16.5189   20.2361 C.ar    1  UNL1        0.0309
     22 C          -0.3917  -17.7151   20.2714 C.ar    1  UNL1        0.1441
     23 F           0.5637  -17.9375   19.3329 F       1  UNL1       -0.2042
     24 C          -0.6435  -18.6666   21.2774 C.ar    1  UNL1        0.1000
     25 C          -1.6198  -18.3867   22.2534 C.ar    1  UNL1        0.0208
     26 C           0.1721  -19.9366   21.3310 C.3     1  UNL1        0.4207
     27 F          -0.6151  -21.0381   21.6203 F       1  UNL1       -0.1658
     28 F           0.7851  -20.1519   20.1095 F       1  UNL1       -0.1658
     29 F           1.1427  -19.8159   22.3083 F       1  UNL1       -0.1658
     30 N          -7.1541  -13.4666   29.2366 N.pl3   1  UNL1       -0.2814
     31 H          -6.9074  -14.0073   30.0957 H       1  UNL1        0.1551
     32 C          -7.5548  -12.0933   29.3880 C.ar    1  UNL1        0.0891
     33 C          -6.5987  -11.0698   29.2604 C.ar    1  UNL1        0.0733
     34 CL         -4.9044  -11.4373   28.9629 Cl      1  UNL1       -0.0809
     35 C          -6.9792   -9.7345   29.4049 C.ar    1  UNL1        0.0130
     36 C          -8.3082   -9.4032   29.6672 C.ar    1  UNL1        0.0097
     37 C          -9.2865  -10.4046   29.7817 C.ar    1  UNL1        0.1041
     38 C          -8.9031  -11.7550   29.6309 C.ar    1  UNL1        0.1605
     39 F          -9.8381  -12.7386   29.6864 F       1  UNL1       -0.2026
     40 C         -10.6943  -10.0220   30.0528 C.2     1  UNL1        0.3403
     41 O         -11.1825   -8.9673   29.5644 O.2     1  UNL1       -0.2450
     42 O         -11.4975  -10.8315   30.8525 O.3     1  UNL1       -0.4770
     43 H         -12.4605  -10.5825   31.0444 H       1  UNL1        0.2954
@<TRIPOS>BOND
     1     1     2    1
     2     2     3   ar
     3     3    30    1
     4    30    32    1
     5    32    33   ar
     6    33    34    1
     7    33    35   ar
     8    35    36   ar
     9    36    37   ar
    10    37    40    1
    11    40    41    2
    12    40    42    1
    13    37    38   ar
    14    38    39    1
    15     3     4   ar
    16     4     5   ar
    17     5     6   ar
    18     6     7   ar
    19     7    15    1
    20    15    16    2
    21    15    17   am
    22    17    19    1
    23    19    20   ar
    24    20    21   ar
    25    21    22   ar
    26    22    23    1
    27    22    24   ar
    28    24    26    1
    29    26    27    1
    30    26    28    1
    31    26    29    1
    32    24    25   ar
    33     7     8   ar
    34     8     9   ar
    35     9    10   ar
    36     9    11    1
    37    11    12    1
    38    12    13    1
    39    13    14    1
    40    10     2   ar
    41    38    32   ar
    42    10     5   ar
    43    25    19   ar
    44    14     8    1
    45    30    31    1
    46    42    43    1
    47    17    18    1
@<TRIPOS>MOLECULE
*****
 43 47 0 0 0
SMALL
GASTEIGER

@<TRIPOS>ATOM
      1 C          -6.1177  -11.7418   29.1842 C.3     1  UNL1        0.1333
      2 N          -7.3143  -12.5813   29.1113 N.ar    1  UNL1       -0.2950
      3 C          -8.4744  -12.4683   29.8172 C.ar    1  UNL1        0.2019
      4 N          -9.4311  -13.3541   29.4403 N.ar    1  UNL1       -0.2134
      5 C          -8.8169  -14.0683   28.4804 C.ar    1  UNL1        0.1033
      6 C          -9.3510  -15.1262   27.7491 C.ar    1  UNL1        0.0284
      7 C          -8.5278  -15.7675   26.7959 C.ar    1  UNL1        0.0922
      8 C          -7.1997  -15.3004   26.5919 C.ar    1  UNL1        0.1782
      9 C          -6.7031  -14.2081   27.3345 C.ar    1  UNL1        0.1897
     10 C          -7.5419  -13.6202   28.2855 C.ar    1  UNL1        0.1173
     11 O          -5.4026  -13.7527   27.0979 O.3     1  UNL1       -0.4669
     12 C          -4.6787  -14.1594   25.9353 C.3     1  UNL1        0.2527
     13 C          -4.9528  -15.6365   25.6306 C.3     1  UNL1        0.2526
     14 O          -6.3594  -15.8893   25.6390 O.3     1  UNL1       -0.4682
     15 C          -9.0716  -16.9069   26.0282 C.2     1  UNL1        0.2526
     16 O          -9.4587  -17.9321   26.6522 O.2     1  UNL1       -0.2697
     17 N          -9.1548  -16.8543   24.5925 N.am    1  UNL1       -0.2803
     18 H          -8.8727  -15.9748   24.1053 H       1  UNL1        0.1552
     19 C          -9.6803  -17.9160   23.7788 C.ar    1  UNL1        0.0506
     20 C         -10.4625  -18.9123   24.3769 C.ar    1  UNL1        0.0170
     21 C         -11.0104  -19.9383   23.6059 C.ar    1  UNL1        0.0309
     22 C         -10.7929  -19.9758   22.2265 C.ar    1  UNL1        0.1441
     23 F         -11.3508  -20.9760   21.4978 F       1  UNL1       -0.2042
     24 C         -10.0198  -18.9791   21.6021 C.ar    1  UNL1        0.1000
     25 C          -9.4840  -17.9388   22.3862 C.ar    1  UNL1        0.0208
     26 C          -9.8281  -19.0059   20.1043 C.3     1  UNL1        0.4207
     27 F         -10.3376  -20.1650   19.5442 F       1  UNL1       -0.1658
     28 F         -10.4756  -17.9268   19.5294 F       1  UNL1       -0.1658
     29 F          -8.4783  -18.9292   19.8145 F       1  UNL1       -0.1658
     30 N          -8.6997  -11.5132   30.8636 N.pl3   1  UNL1       -0.2814
     31 H          -7.9511  -11.4050   31.5842 H       1  UNL1        0.1551
     32 C          -9.8076  -10.5961   30.8896 C.ar    1  UNL1        0.0891
     33 C         -10.9921  -10.9523   31.5591 C.ar    1  UNL1        0.0733
     34 CL        -11.1653  -12.5232   32.3314 Cl      1  UNL1       -0.0809
     35 C         -12.0717  -10.0679   31.5899 C.ar    1  UNL1        0.0130
     36 C         -11.9832   -8.8233   30.9671 C.ar    1  UNL1        0.0097
     37 C         -10.8057   -8.4352   30.3068 C.ar    1  UNL1        0.1041
     38 C          -9.7119   -9.3274   30.2795 C.ar    1  UNL1        0.1605
     39 F          -8.5449   -8.9561   29.6918 F       1  UNL1       -0.2026
     40 C         -10.7373   -7.1014   29.6603 C.2     1  UNL1        0.3403
     41 O          -9.7493   -6.7795   28.9465 O.2     1  UNL1       -0.2450
     42 O         -11.7728   -6.1861   29.8337 O.3     1  UNL1       -0.4770
     43 H         -11.7391   -5.2728   29.3968 H       1  UNL1        0.2954
@<TRIPOS>BOND
     1     1     2    1
     2     2     3   ar
     3     3    30    1
     4    30    32    1
     5    32    33   ar
     6    33    34    1
     7    33    35   ar
     8    35    36   ar
     9    36    37   ar
    10    37    40    1
    11    40    41    2
    12    40    42    1
    13    37    38   ar
    14    38    39    1
    15     3     4   ar
    16     4     5   ar
    17     5     6   ar
    18     6     7   ar
    19     7    15    1
    20    15    16    2
    21    15    17   am
    22    17    19    1
    23    19    20   ar
    24    20    21   ar
    25    21    22   ar
    26    22    23    1
    27    22    24   ar
    28    24    26    1
    29    26    27    1
    30    26    28    1
    31    26    29    1
    32    24    25   ar
    33     7     8   ar
    34     8     9   ar
    35     9    10   ar
    36     9    11    1
    37    11    12    1
    38    12    13    1
    39    13    14    1
    40    10     2   ar
    41    38    32   ar
    42    10     5   ar
    43    25    19   ar
    44    14     8    1
    45    30    31    1
    46    42    43    1
    47    17    18    1
@<TRIPOS>MOLECULE
*****
 43 47 0 0 0
SMALL
GASTEIGER

@<TRIPOS>ATOM
      1 C          -7.3410  -17.6882   21.8303 C.3     1  UNL1        0.1333
      2 N          -6.4936  -16.6972   22.4950 N.ar    1  UNL1       -0.2950
      3 C          -5.4148  -16.0314   21.9952 C.ar    1  UNL1        0.2019
      4 N          -4.9059  -15.1023   22.8436 N.ar    1  UNL1       -0.2134
      5 C          -5.6884  -15.2279   23.9301 C.ar    1  UNL1        0.1033
      6 C          -5.5991  -14.5058   25.1175 C.ar    1  UNL1        0.0284
      7 C          -6.5064  -14.8085   26.1580 C.ar    1  UNL1        0.0922
      8 C          -7.4939  -15.8120   25.9547 C.ar    1  UNL1        0.1782
      9 C          -7.5692  -16.5041   24.7272 C.ar    1  UNL1        0.1897
     10 C          -6.6356  -16.1918   23.7349 C.ar    1  UNL1        0.1173
     11 O          -8.5642  -17.4688   24.5438 O.3     1  UNL1       -0.4669
     12 C          -9.6765  -17.5600   25.4358 C.3     1  UNL1        0.2527
     13 C          -9.2202  -17.3130   26.8781 C.3     1  UNL1        0.2526
     14 O          -8.4293  -16.1248   26.9488 O.3     1  UNL1       -0.4682
     15 C          -6.4098  -14.0678   27.4329 C.2     1  UNL1        0.2526
     16 O          -6.7292  -14.6536   28.5030 O.2     1  UNL1       -0.2697
     17 N          -5.9649  -12.6995   27.4573 N.am    1  UNL1       -0.2803
     18 H          -5.6607  -12.2546   26.5628 H       1  UNL1        0.1552
     19 C          -5.8352  -11.9181   28.6565 C.ar    1  UNL1        0.0506
     20 C          -4.7079  -11.1035   28.8228 C.ar    1  UNL1        0.0170
     21 C          -4.5706  -10.3113   29.9634 C.ar    1  UNL1        0.0309
     22 C          -5.5628  -10.3149   30.9468 C.ar    1  UNL1        0.1441
     23 F          -5.4118   -9.5227   32.0388 F       1  UNL1       -0.2042
     24 C          -6.7096  -11.1167   30.7958 C.ar    1  UNL1        0.1000
     25 C          -6.8468  -11.9008   29.6338 C.ar    1  UNL1        0.0208
     26 C          -7.7957  -11.0788   31.8446 C.3     1  UNL1        0.4207
     27 F          -7.3041  -11.3889   33.1012 F       1  UNL1       -0.1658
     28 F          -8.3519   -9.8131   31.8980 F       1  UNL1       -0.1658
     29 F          -8.7809  -11.9915   31.5159 F       1  UNL1       -0.1658
     30 N          -4.8462  -16.2619   20.6985 N.pl3   1  UNL1       -0.2814
     31 H          -5.0321  -15.5480   19.9589 H       1  UNL1        0.1551
     32 C          -3.9175  -17.3206   20.4051 C.ar    1  UNL1        0.0891
     33 C          -4.3955  -18.5573   19.9360 C.ar    1  UNL1        0.0733
     34 CL         -6.1184  -18.8545   19.7424 Cl      1  UNL1       -0.0809
     35 C          -3.5011  -19.5897   19.6479 C.ar    1  UNL1        0.0130
     36 C          -2.1291  -19.4023   19.8132 C.ar    1  UNL1        0.0097
     37 C          -1.6237  -18.1713   20.2631 C.ar    1  UNL1        0.1041
     38 C          -2.5276  -17.1253   20.5501 C.ar    1  UNL1        0.1605
     39 F          -2.0615  -15.9098   20.9376 F       1  UNL1       -0.2026
     40 C          -0.1586  -17.9980   20.4216 C.2     1  UNL1        0.3403
     41 O           0.5036  -18.7579   21.1787 O.2     1  UNL1       -0.2450
     42 O           0.5053  -16.9890   19.7280 O.3     1  UNL1       -0.4770
     43 H           1.5054  -16.8607   19.8263 H       1  UNL1        0.2954
@<TRIPOS>BOND
     1     1     2    1
     2     2     3   ar
     3     3    30    1
     4    30    32    1
     5    32    33   ar
     6    33    34    1
     7    33    35   ar
     8    35    36   ar
     9    36    37   ar
    10    37    40    1
    11    40    41    2
    12    40    42    1
    13    37    38   ar
    14    38    39    1
    15     3     4   ar
    16     4     5   ar
    17     5     6   ar
    18     6     7   ar
    19     7    15    1
    20    15    16    2
    21    15    17   am
    22    17    19    1
    23    19    20   ar
    24    20    21   ar
    25    21    22   ar
    26    22    23    1
    27    22    24   ar
    28    24    26    1
    29    26    27    1
    30    26    28    1
    31    26    29    1
    32    24    25   ar
    33     7     8   ar
    34     8     9   ar
    35     9    10   ar
    36     9    11    1
    37    11    12    1
    38    12    13    1
    39    13    14    1
    40    10     2   ar
    41    38    32   ar
    42    10     5   ar
    43    25    19   ar
    44    14     8    1
    45    30    31    1
    46    42    43    1
    47    17    18    1
@<TRIPOS>MOLECULE
*****
 43 47 0 0 0
SMALL
GASTEIGER

@<TRIPOS>ATOM
      1 C          -9.9218  -10.0665   33.5141 C.3     1  UNL1        0.1333
      2 N          -9.1943  -10.3382   32.2736 N.ar    1  UNL1       -0.2950
      3 C          -8.2071   -9.6018   31.6902 C.ar    1  UNL1        0.2019
      4 N          -7.6712  -10.1840   30.5876 N.ar    1  UNL1       -0.2134
      5 C          -8.3874  -11.3160   30.4682 C.ar    1  UNL1        0.1033
      6 C          -8.2525  -12.2957   29.4877 C.ar    1  UNL1        0.0284
      7 C          -9.1260  -13.4062   29.5226 C.ar    1  UNL1        0.0922
      8 C         -10.0894  -13.5054   30.5646 C.ar    1  UNL1        0.1782
      9 C         -10.1778  -12.5047   31.5555 C.ar    1  UNL1        0.1897
     10 C          -9.3126  -11.4105   31.4679 C.ar    1  UNL1        0.1173
     11 O         -11.1169  -12.6378   32.5826 O.3     1  UNL1       -0.4669
     12 C         -11.7730  -13.8835   32.8253 C.3     1  UNL1        0.2527
     13 C         -12.1080  -14.5730   31.4980 C.3     1  UNL1        0.2526
     14 O         -10.9563  -14.6017   30.6523 O.3     1  UNL1       -0.4682
     15 C          -9.0117  -14.4428   28.4759 C.2     1  UNL1        0.2526
     16 O          -9.5173  -15.5787   28.6862 O.2     1  UNL1       -0.2697
     17 N          -8.3312  -14.1671   27.2382 N.am    1  UNL1       -0.2803
     18 H          -7.9646  -13.2037   27.0708 H       1  UNL1        0.1552
     19 C          -8.1885  -15.1186   26.1706 C.ar    1  UNL1        0.0506
     20 C          -9.1287  -16.1492   26.0435 C.ar    1  UNL1        0.0170
     21 C          -9.0318  -17.0691   24.9986 C.ar    1  UNL1        0.0309
     22 C          -8.0009  -16.9645   24.0617 C.ar    1  UNL1        0.1441
     23 F          -7.9392  -17.8630   23.0460 F       1  UNL1       -0.2042
     24 C          -7.0515  -15.9305   24.1628 C.ar    1  UNL1        0.1000
     25 C          -7.1667  -14.9974   25.2116 C.ar    1  UNL1        0.0208
     26 C          -5.9675  -15.8017   23.1190 C.3     1  UNL1        0.4207
     27 F          -5.0549  -14.8142   23.4486 F       1  UNL1       -0.1658
     28 F          -5.2850  -16.9995   23.0017 F       1  UNL1       -0.1658
     29 F          -6.5407  -15.4875   21.9007 F       1  UNL1       -0.1658
     30 N          -7.7498   -8.3298   32.1704 N.pl3   1  UNL1       -0.2814
     31 H          -7.1505   -8.3268   33.0261 H       1  UNL1        0.1551
     32 C          -7.9329   -7.0907   31.4630 C.ar    1  UNL1        0.0891
     33 C          -6.8148   -6.3032   31.1351 C.ar    1  UNL1        0.0733
     34 CL         -5.1911   -6.7812   31.6141 Cl      1  UNL1       -0.0809
     35 C          -6.9835   -5.0998   30.4479 C.ar    1  UNL1        0.0130
     36 C          -8.2572   -4.6730   30.0732 C.ar    1  UNL1        0.0097
     37 C          -9.3892   -5.4490   30.3724 C.ar    1  UNL1        0.1041
     38 C          -9.2186   -6.6684   31.0632 C.ar    1  UNL1        0.1605
     39 F         -10.2911   -7.4615   31.3196 F       1  UNL1       -0.2026
     40 C         -10.7311   -4.9738   29.9539 C.2     1  UNL1        0.3403
     41 O         -10.9425   -3.7515   29.7294 O.2     1  UNL1       -0.2450
     42 O         -11.7775   -5.8802   29.8003 O.3     1  UNL1       -0.4770
     43 H         -12.6980   -5.5691   29.5138 H       1  UNL1        0.2954
@<TRIPOS>BOND
     1     1     2    1
     2     2     3   ar
     3     3    30    1
     4    30    32    1
     5    32    33   ar
     6    33    34    1
     7    33    35   ar
     8    35    36   ar
     9    36    37   ar
    10    37    40    1
    11    40    41    2
    12    40    42    1
    13    37    38   ar
    14    38    39    1
    15     3     4   ar
    16     4     5   ar
    17     5     6   ar
    18     6     7   ar
    19     7    15    1
    20    15    16    2
    21    15    17   am
    22    17    19    1
    23    19    20   ar
    24    20    21   ar
    25    21    22   ar
    26    22    23    1
    27    22    24   ar
    28    24    26    1
    29    26    27    1
    30    26    28    1
    31    26    29    1
    32    24    25   ar
    33     7     8   ar
    34     8     9   ar
    35     9    10   ar
    36     9    11    1
    37    11    12    1
    38    12    13    1
    39    13    14    1
    40    10     2   ar
    41    38    32   ar
    42    10     5   ar
    43    25    19   ar
    44    14     8    1
    45    30    31    1
    46    42    43    1
    47    17    18    1
