@<TRIPOS>MOLECULE
*****
 33 36 0 0 0
SMALL
GASTEIGER

@<TRIPOS>ATOM
      1 N         -21.7822  -12.4637  -14.7324 N.ar    1  UNL1       -0.3243
      2 C         -22.1570  -11.4067  -15.4922 C.ar    1  UNL1        0.0600
      3 C         -22.6718  -11.4346  -16.7927 C.ar    1  UNL1        0.0177
      4 C         -23.0429  -10.2180  -17.3872 C.ar    1  UNL1        0.0082
      5 C         -22.9106   -9.0058  -16.6795 C.ar    1  UNL1        0.0347
      6 BR        -23.4603   -7.3680  -17.4925 Br      1  UNL1       -0.0490
      7 C         -22.3953   -8.9967  -15.3717 C.ar    1  UNL1        0.0082
      8 C         -22.0094  -10.2158  -14.8046 C.ar    1  UNL1        0.0179
      9 C         -21.5095  -10.5466  -13.5515 C.ar    1  UNL1        0.0239
     10 C         -21.1812   -9.7761  -12.4198 C.ar    1  UNL1        0.0831
     11 C         -20.7545  -10.4660  -11.2587 C.ar    1  UNL1        0.0409
     12 BR        -20.2493   -9.5324   -9.6602 Br      1  UNL1       -0.0488
     13 C         -20.6525  -11.8719  -11.2609 C.ar    1  UNL1        0.0084
     14 C         -20.9681  -12.6145  -12.4064 C.ar    1  UNL1        0.0177
     15 C         -21.3981  -11.9289  -13.5455 C.ar    1  UNL1        0.0602
     16 C         -21.2322   -8.3057  -12.4370 C.2     1  UNL1        0.3386
     17 O         -22.2452   -7.7090  -11.9865 O.2     1  UNL1       -0.2451
     18 O         -20.1810   -7.5661  -12.9704 O.3     1  UNL1       -0.4771
     19 H         -19.3486   -8.0211  -13.3259 H       1  UNL1        0.2954
     20 C         -21.8655  -13.8840  -15.0984 C.3     1  UNL1        0.1429
     21 C         -23.3060  -14.2830  -15.4524 C.3     1  UNL1        0.2027
     22 F         -23.2897  -15.5300  -16.0541 F       1  UNL1       -0.2334
     23 C         -24.2077  -14.3378  -14.2126 C.3     1  UNL1        0.1259
     24 N         -25.2594  -13.3265  -14.2994 N.pl3   1  UNL1       -0.3157
     25 H         -26.1524  -13.5823  -14.7790 H       1  UNL1        0.1483
     26 C         -24.5151  -10.7291  -11.7821 C.ar    1  UNL1        0.2261
     27 C         -24.9401   -9.5637  -12.4253 C.ar    1  UNL1        0.0578
     28 C         -25.4717   -9.6474  -13.7134 C.ar    1  UNL1        0.0077
     29 C         -25.5763  -10.8886  -14.3442 C.ar    1  UNL1        0.0343
     30 C         -25.1428  -12.0399  -13.6738 C.ar    1  UNL1        0.1317
     31 N         -24.6263  -11.9292  -12.4178 N.ar    1  UNL1       -0.1969
     32 C         -24.2366   -9.5511   -9.6260 C.3     1  UNL1        0.2542
     33 O         -23.9823  -10.6498  -10.4926 O.3     1  UNL1       -0.4561
@<TRIPOS>BOND
     1    32    33    1
     2    33    26    1
     3    26    27   ar
     4    27    28   ar
     5    28    29   ar
     6    29    30   ar
     7    30    24    1
     8    24    23    1
     9    23    21    1
    10    21    22    1
    11    21    20    1
    12    20     1    1
    13     1     2   ar
    14     2     3   ar
    15     3     4   ar
    16     4     5   ar
    17     5     6    1
    18     5     7   ar
    19     7     8   ar
    20     8     9   ar
    21     9    10   ar
    22    10    16    1
    23    16    17    2
    24    16    18    1
    25    10    11   ar
    26    11    12    1
    27    11    13   ar
    28    13    14   ar
    29    14    15   ar
    30    30    31   ar
    31    31    26   ar
    32    15     1   ar
    33     8     2   ar
    34    15     9   ar
    35    24    25    1
    36    18    19    1
@<TRIPOS>MOLECULE
*****
 33 36 0 0 0
SMALL
GASTEIGER

@<TRIPOS>ATOM
      1 N         -21.8342  -12.7358  -14.7601 N.ar    1  UNL1       -0.3243
      2 C         -21.3786  -12.3012  -13.5607 C.ar    1  UNL1        0.0600
      3 C         -20.8587  -13.0750  -12.5175 C.ar    1  UNL1        0.0177
      4 C         -20.3963  -12.4160  -11.3672 C.ar    1  UNL1        0.0082
      5 C         -20.4449  -11.0096  -11.2798 C.ar    1  UNL1        0.0347
      6 BR        -19.7724  -10.1323   -9.7231 Br      1  UNL1       -0.0490
      7 C         -20.9668  -10.2473  -12.3394 C.ar    1  UNL1        0.0082
      8 C         -21.4439  -10.9227  -13.4675 C.ar    1  UNL1        0.0179
      9 C         -21.9747  -10.4739  -14.6702 C.ar    1  UNL1        0.0239
     10 C         -22.2536   -9.1879  -15.1707 C.ar    1  UNL1        0.0831
     11 C         -22.7369   -9.0922  -16.4987 C.ar    1  UNL1        0.0409
     12 BR        -23.1834   -7.4019  -17.2894 Br      1  UNL1       -0.0488
     13 C         -22.9406  -10.2546  -17.2695 C.ar    1  UNL1        0.0084
     14 C         -22.6723  -11.5244  -16.7414 C.ar    1  UNL1        0.0177
     15 C         -22.1861  -11.6117  -15.4344 C.ar    1  UNL1        0.0602
     16 C         -22.0959   -7.9797  -14.3457 C.2     1  UNL1        0.3386
     17 O         -23.1142   -7.3909  -13.8966 O.2     1  UNL1       -0.2451
     18 O         -20.8313   -7.4650  -14.0768 O.3     1  UNL1       -0.4771
     19 H         -19.9955   -7.9278  -14.4140 H       1  UNL1        0.2954
     20 C         -21.8518  -14.1225  -15.2446 C.3     1  UNL1        0.1429
     21 C         -23.2842  -14.5873  -15.5472 C.3     1  UNL1        0.2027
     22 F         -23.2326  -15.8334  -16.1486 F       1  UNL1       -0.2334
     23 C         -24.1381  -14.6805  -14.2761 C.3     1  UNL1        0.1259
     24 N         -25.2434  -13.7256  -14.3308 N.pl3   1  UNL1       -0.3157
     25 H         -26.1552  -14.0476  -14.7280 H       1  UNL1        0.1483
     26 C         -24.5250  -10.9791  -11.9691 C.ar    1  UNL1        0.2261
     27 C         -24.9810   -9.8597  -12.6701 C.ar    1  UNL1        0.0578
     28 C         -25.5249  -10.0248  -13.9450 C.ar    1  UNL1        0.0077
     29 C         -25.6108  -11.3007  -14.5055 C.ar    1  UNL1        0.0343
     30 C         -25.1464  -12.4044  -13.7782 C.ar    1  UNL1        0.1317
     31 N         -24.6184  -12.2144  -12.5365 N.ar    1  UNL1       -0.1969
     32 C         -23.9136   -9.5549  -10.0425 C.3     1  UNL1        0.2542
     33 O         -23.9798  -10.8183  -10.6924 O.3     1  UNL1       -0.4561
@<TRIPOS>BOND
     1    32    33    1
     2    33    26    1
     3    26    27   ar
     4    27    28   ar
     5    28    29   ar
     6    29    30   ar
     7    30    24    1
     8    24    23    1
     9    23    21    1
    10    21    22    1
    11    21    20    1
    12    20     1    1
    13     1     2   ar
    14     2     3   ar
    15     3     4   ar
    16     4     5   ar
    17     5     6    1
    18     5     7   ar
    19     7     8   ar
    20     8     9   ar
    21     9    10   ar
    22    10    16    1
    23    16    17    2
    24    16    18    1
    25    10    11   ar
    26    11    12    1
    27    11    13   ar
    28    13    14   ar
    29    14    15   ar
    30    30    31   ar
    31    31    26   ar
    32    15     1   ar
    33     8     2   ar
    34    15     9   ar
    35    24    25    1
    36    18    19    1
@<TRIPOS>MOLECULE
*****
 33 36 0 0 0
SMALL
GASTEIGER

@<TRIPOS>ATOM
      1 N         -22.8314   -9.5073  -11.3925 N.ar    1  UNL1       -0.3243
      2 C         -24.0038   -8.9446  -11.7719 C.ar    1  UNL1        0.0600
      3 C         -24.5588   -7.7451  -11.3134 C.ar    1  UNL1        0.0177
      4 C         -25.7717   -7.3158  -11.8754 C.ar    1  UNL1        0.0082
      5 C         -26.4000   -8.0727  -12.8855 C.ar    1  UNL1        0.0347
      6 BR        -28.0275   -7.4486  -13.6646 Br      1  UNL1       -0.0490
      7 C         -25.8260   -9.2737  -13.3374 C.ar    1  UNL1        0.0082
      8 C         -24.6295   -9.6970  -12.7494 C.ar    1  UNL1        0.0179
      9 C         -23.8070  -10.7907  -12.9878 C.ar    1  UNL1        0.0239
     10 C         -23.8974  -11.8783  -13.8773 C.ar    1  UNL1        0.0831
     11 C         -22.8172  -12.7941  -13.9045 C.ar    1  UNL1        0.0409
     12 BR        -22.8301  -14.3340  -15.0493 Br      1  UNL1       -0.0488
     13 C         -21.7087  -12.6156  -13.0525 C.ar    1  UNL1        0.0084
     14 C         -21.6513  -11.5343  -12.1631 C.ar    1  UNL1        0.0177
     15 C         -22.7152  -10.6287  -12.1482 C.ar    1  UNL1        0.0602
     16 C         -25.0809  -12.0957  -14.7242 C.2     1  UNL1        0.3386
     17 O         -25.1615  -11.5281  -15.8452 O.2     1  UNL1       -0.2451
     18 O         -26.1262  -12.9039  -14.2876 O.3     1  UNL1       -0.4771
     19 H         -26.0797  -13.3835  -13.3965 H       1  UNL1        0.2954
     20 C         -21.8627   -8.9603  -10.4330 C.3     1  UNL1        0.1429
     21 C         -20.7189   -8.2306  -11.1531 C.3     1  UNL1        0.2027
     22 F         -19.8628   -9.1711  -11.7008 F       1  UNL1       -0.2334
     23 C         -21.2354   -7.3143  -12.2698 C.3     1  UNL1        0.1259
     24 N         -20.6867   -7.7224  -13.5616 N.pl3   1  UNL1       -0.3157
     25 H         -19.6518   -7.6677  -13.6983 H       1  UNL1        0.1483
     26 C         -21.9093  -10.0167  -16.1844 C.ar    1  UNL1        0.2261
     27 C         -23.0485   -9.3543  -16.6489 C.ar    1  UNL1        0.0578
     28 C         -23.4142   -8.1357  -16.0745 C.ar    1  UNL1        0.0077
     29 C         -22.6412   -7.5901  -15.0477 C.ar    1  UNL1        0.0343
     30 C         -21.5036   -8.2768  -14.6036 C.ar    1  UNL1        0.1317
     31 N         -21.1708   -9.4654  -15.1808 N.ar    1  UNL1       -0.1969
     32 C         -22.3633  -11.9247  -17.6901 C.3     1  UNL1        0.2542
     33 O         -21.5397  -11.2369  -16.7566 O.3     1  UNL1       -0.4561
@<TRIPOS>BOND
     1    32    33    1
     2    33    26    1
     3    26    27   ar
     4    27    28   ar
     5    28    29   ar
     6    29    30   ar
     7    30    24    1
     8    24    23    1
     9    23    21    1
    10    21    22    1
    11    21    20    1
    12    20     1    1
    13     1     2   ar
    14     2     3   ar
    15     3     4   ar
    16     4     5   ar
    17     5     6    1
    18     5     7   ar
    19     7     8   ar
    20     8     9   ar
    21     9    10   ar
    22    10    16    1
    23    16    17    2
    24    16    18    1
    25    10    11   ar
    26    11    12    1
    27    11    13   ar
    28    13    14   ar
    29    14    15   ar
    30    30    31   ar
    31    31    26   ar
    32    15     1   ar
    33     8     2   ar
    34    15     9   ar
    35    24    25    1
    36    18    19    1
@<TRIPOS>MOLECULE
*****
 33 36 0 0 0
SMALL
GASTEIGER

@<TRIPOS>ATOM
      1 N         -22.9529  -12.1274  -13.4051 N.ar    1  UNL1       -0.3243
      2 C         -22.0906  -11.7014  -12.4512 C.ar    1  UNL1        0.0600
      3 C         -20.8525  -12.2588  -12.1141 C.ar    1  UNL1        0.0177
      4 C         -20.0892  -11.6298  -11.1177 C.ar    1  UNL1        0.0082
      5 C         -20.5591  -10.4590  -10.4883 C.ar    1  UNL1        0.0347
      6 BR        -19.4856   -9.5972   -9.1653 Br      1  UNL1       -0.0490
      7 C         -21.8038   -9.9100  -10.8424 C.ar    1  UNL1        0.0082
      8 C         -22.5605  -10.5635  -11.8207 C.ar    1  UNL1        0.0179
      9 C         -23.7841  -10.2676  -12.4078 C.ar    1  UNL1        0.0239
     10 C         -24.7137   -9.2294  -12.2077 C.ar    1  UNL1        0.0831
     11 C         -25.8499   -9.1955  -13.0528 C.ar    1  UNL1        0.0409
     12 BR        -27.2062   -7.8512  -12.8643 Br      1  UNL1       -0.0488
     13 C         -26.0342  -10.1834  -14.0410 C.ar    1  UNL1        0.0084
     14 C         -25.1028  -11.2169  -14.2079 C.ar    1  UNL1        0.0177
     15 C         -23.9790  -11.2392  -13.3780 C.ar    1  UNL1        0.0602
     16 C         -24.5499   -8.2325  -11.1379 C.2     1  UNL1        0.3386
     17 O         -24.1852   -7.0618  -11.4235 O.2     1  UNL1       -0.2451
     18 O         -24.7698   -8.5775   -9.8078 O.3     1  UNL1       -0.4771
     19 H         -25.0778   -9.5083   -9.5527 H       1  UNL1        0.2954
     20 C         -22.7604  -13.2572  -14.3241 C.3     1  UNL1        0.1429
     21 C         -21.6715  -12.9493  -15.3629 C.3     1  UNL1        0.2027
     22 F         -21.1458  -14.1431  -15.8273 F       1  UNL1       -0.2334
     23 C         -22.2211  -12.1492  -16.5508 C.3     1  UNL1        0.1259
     24 N         -21.5144  -10.8764  -16.6815 N.pl3   1  UNL1       -0.3157
     25 H         -20.7521  -10.8053  -17.3933 H       1  UNL1        0.1483
     26 C         -21.4678   -8.1950  -14.1428 C.ar    1  UNL1        0.2261
     27 C         -22.6188   -7.4686  -14.4589 C.ar    1  UNL1        0.0578
     28 C         -23.4110   -7.8746  -15.5342 C.ar    1  UNL1        0.0077
     29 C         -23.0503   -8.9987  -16.2795 C.ar    1  UNL1        0.0343
     30 C         -21.8911   -9.7077  -15.9380 C.ar    1  UNL1        0.1317
     31 N         -21.1352   -9.2883  -14.8848 N.ar    1  UNL1       -0.1969
     32 C         -21.0311   -6.7144  -12.2112 C.3     1  UNL1        0.2542
     33 O         -20.6718   -7.7919  -13.0671 O.3     1  UNL1       -0.4561
@<TRIPOS>BOND
     1    32    33    1
     2    33    26    1
     3    26    27   ar
     4    27    28   ar
     5    28    29   ar
     6    29    30   ar
     7    30    24    1
     8    24    23    1
     9    23    21    1
    10    21    22    1
    11    21    20    1
    12    20     1    1
    13     1     2   ar
    14     2     3   ar
    15     3     4   ar
    16     4     5   ar
    17     5     6    1
    18     5     7   ar
    19     7     8   ar
    20     8     9   ar
    21     9    10   ar
    22    10    16    1
    23    16    17    2
    24    16    18    1
    25    10    11   ar
    26    11    12    1
    27    11    13   ar
    28    13    14   ar
    29    14    15   ar
    30    30    31   ar
    31    31    26   ar
    32    15     1   ar
    33     8     2   ar
    34    15     9   ar
    35    24    25    1
    36    18    19    1
@<TRIPOS>MOLECULE
*****
 33 36 0 0 0
SMALL
GASTEIGER

@<TRIPOS>ATOM
      1 N         -21.4553  -10.7963  -10.9715 N.ar    1  UNL1       -0.3243
      2 C         -22.6274  -10.2310  -10.5952 C.ar    1  UNL1        0.0600
      3 C         -22.8427   -9.3482   -9.5315 C.ar    1  UNL1        0.0177
      4 C         -24.1373   -8.8393   -9.3412 C.ar    1  UNL1        0.0082
      5 C         -25.1843   -9.2023  -10.2128 C.ar    1  UNL1        0.0347
      6 BR        -26.9275   -8.4656   -9.9598 Br      1  UNL1       -0.0490
      7 C         -24.9493  -10.0874  -11.2793 C.ar    1  UNL1        0.0082
      8 C         -23.6585  -10.6021  -11.4391 C.ar    1  UNL1        0.0179
      9 C         -23.1015  -11.4494  -12.3886 C.ar    1  UNL1        0.0239
     10 C         -23.6387  -12.1182  -13.5049 C.ar    1  UNL1        0.0831
     11 C         -22.7460  -12.8609  -14.3159 C.ar    1  UNL1        0.0409
     12 BR        -23.3554  -13.8421  -15.8482 Br      1  UNL1       -0.0488
     13 C         -21.3761  -12.9299  -13.9913 C.ar    1  UNL1        0.0084
     14 C         -20.8695  -12.2696  -12.8641 C.ar    1  UNL1        0.0177
     15 C         -21.7532  -11.5302  -12.0738 C.ar    1  UNL1        0.0602
     16 C         -25.0780  -12.0932  -13.8096 C.2     1  UNL1        0.3386
     17 O         -25.8069  -13.0620  -13.4695 O.2     1  UNL1       -0.2451
     18 O         -25.6393  -11.0193  -14.4937 O.3     1  UNL1       -0.4771
     19 H         -25.0778  -10.2211  -14.7656 H       1  UNL1        0.2954
     20 C         -20.1373  -10.5788  -10.3604 C.3     1  UNL1        0.1429
     21 C         -19.7348   -9.0976  -10.4198 C.3     1  UNL1        0.2027
     22 F         -18.4465   -8.9641   -9.9302 F       1  UNL1       -0.2334
     23 C         -19.7859   -8.5457  -11.8502 C.3     1  UNL1        0.1259
     24 N         -20.6882   -7.3982  -11.9242 N.pl3   1  UNL1       -0.3157
     25 H         -20.3526   -6.4809  -11.5516 H       1  UNL1        0.1483
     26 C         -23.3585   -8.3857  -14.2761 C.ar    1  UNL1        0.2261
     27 C         -24.4300   -7.5930  -13.8565 C.ar    1  UNL1        0.0578
     28 C         -24.2595   -6.7284  -12.7739 C.ar    1  UNL1        0.0077
     29 C         -23.0255   -6.6611  -12.1242 C.ar    1  UNL1        0.0343
     30 C         -21.9691   -7.4673  -12.5683 C.ar    1  UNL1        0.1317
     31 N         -22.1637   -8.3036  -13.6262 N.ar    1  UNL1       -0.1969
     32 C         -22.4557   -9.6052  -16.2285 C.3     1  UNL1        0.2542
     33 O         -23.5250   -9.2527  -15.3594 O.3     1  UNL1       -0.4561
@<TRIPOS>BOND
     1    32    33    1
     2    33    26    1
     3    26    27   ar
     4    27    28   ar
     5    28    29   ar
     6    29    30   ar
     7    30    24    1
     8    24    23    1
     9    23    21    1
    10    21    22    1
    11    21    20    1
    12    20     1    1
    13     1     2   ar
    14     2     3   ar
    15     3     4   ar
    16     4     5   ar
    17     5     6    1
    18     5     7   ar
    19     7     8   ar
    20     8     9   ar
    21     9    10   ar
    22    10    16    1
    23    16    17    2
    24    16    18    1
    25    10    11   ar
    26    11    12    1
    27    11    13   ar
    28    13    14   ar
    29    14    15   ar
    30    30    31   ar
    31    31    26   ar
    32    15     1   ar
    33     8     2   ar
    34    15     9   ar
    35    24    25    1
    36    18    19    1
@<TRIPOS>MOLECULE
*****
 33 36 0 0 0
SMALL
GASTEIGER

@<TRIPOS>ATOM
      1 N         -23.8384  -11.2006  -13.2074 N.ar    1  UNL1       -0.3243
      2 C         -24.4279   -9.9846  -13.3007 C.ar    1  UNL1        0.0600
      3 C         -25.6652   -9.6817  -13.8792 C.ar    1  UNL1        0.0177
      4 C         -26.1155   -8.3528  -13.8287 C.ar    1  UNL1        0.0082
      5 C         -25.3412   -7.3583  -13.1969 C.ar    1  UNL1        0.0347
      6 BR        -25.9923   -5.5659  -13.1039 Br      1  UNL1       -0.0490
      7 C         -24.1020   -7.6811  -12.6170 C.ar    1  UNL1        0.0082
      8 C         -23.6594   -9.0057  -12.6974 C.ar    1  UNL1        0.0179
      9 C         -22.5269   -9.6436  -12.2075 C.ar    1  UNL1        0.0239
     10 C         -21.4075   -9.1843  -11.4877 C.ar    1  UNL1        0.0831
     11 C         -20.4519  -10.1463  -11.0783 C.ar    1  UNL1        0.0409
     12 BR        -18.8674   -9.6474  -10.1179 Br      1  UNL1       -0.0488
     13 C         -20.6244  -11.5068  -11.4035 C.ar    1  UNL1        0.0084
     14 C         -21.7387  -11.9358  -12.1367 C.ar    1  UNL1        0.0177
     15 C         -22.6830  -10.9836  -12.5290 C.ar    1  UNL1        0.0602
     16 C         -21.1991   -7.7565  -11.1992 C.2     1  UNL1        0.3386
     17 O         -20.7096   -7.0043  -12.0823 O.2     1  UNL1       -0.2451
     18 O         -21.5145   -7.2325   -9.9493 O.3     1  UNL1       -0.4771
     19 H         -21.9229   -7.8130   -9.2264 H       1  UNL1        0.2954
     20 C         -24.3884  -12.4827  -13.6676 C.3     1  UNL1        0.1429
     21 C         -23.6722  -12.9716  -14.9355 C.3     1  UNL1        0.2027
     22 F         -23.7703  -14.3512  -15.0010 F       1  UNL1       -0.2334
     23 C         -24.2795  -12.3662  -16.2075 C.3     1  UNL1        0.1259
     24 N         -23.2620  -11.6397  -16.9648 N.pl3   1  UNL1       -0.3157
     25 H         -22.9606  -12.0291  -17.8869 H       1  UNL1        0.1483
     26 C         -23.0122   -8.0193  -16.2812 C.ar    1  UNL1        0.2261
     27 C         -21.7306   -7.9093  -15.7353 C.ar    1  UNL1        0.0578
     28 C         -20.9485   -9.0561  -15.5875 C.ar    1  UNL1        0.0077
     29 C         -21.4493  -10.2967  -15.9868 C.ar    1  UNL1        0.0343
     30 C         -22.7376  -10.3756  -16.5320 C.ar    1  UNL1        0.1317
     31 N         -23.4801   -9.2406  -16.6631 N.ar    1  UNL1       -0.1969
     32 C         -24.1375   -6.3396  -17.7047 C.3     1  UNL1        0.2542
     33 O         -23.7985   -6.8737  -16.4308 O.3     1  UNL1       -0.4561
@<TRIPOS>BOND
     1    32    33    1
     2    33    26    1
     3    26    27   ar
     4    27    28   ar
     5    28    29   ar
     6    29    30   ar
     7    30    24    1
     8    24    23    1
     9    23    21    1
    10    21    22    1
    11    21    20    1
    12    20     1    1
    13     1     2   ar
    14     2     3   ar
    15     3     4   ar
    16     4     5   ar
    17     5     6    1
    18     5     7   ar
    19     7     8   ar
    20     8     9   ar
    21     9    10   ar
    22    10    16    1
    23    16    17    2
    24    16    18    1
    25    10    11   ar
    26    11    12    1
    27    11    13   ar
    28    13    14   ar
    29    14    15   ar
    30    30    31   ar
    31    31    26   ar
    32    15     1   ar
    33     8     2   ar
    34    15     9   ar
    35    24    25    1
    36    18    19    1
@<TRIPOS>MOLECULE
*****
 33 36 0 0 0
SMALL
GASTEIGER

@<TRIPOS>ATOM
      1 N         -24.5760   -9.6454  -11.1475 N.ar    1  UNL1       -0.3243
      2 C         -24.0122  -10.4531  -12.0774 C.ar    1  UNL1        0.0600
      3 C         -24.6386  -11.0519  -13.1757 C.ar    1  UNL1        0.0177
      4 C         -23.8550  -11.8218  -14.0500 C.ar    1  UNL1        0.0082
      5 C         -22.4708  -11.9707  -13.8276 C.ar    1  UNL1        0.0347
      6 BR        -21.4174  -12.9881  -15.0526 Br      1  UNL1       -0.0490
      7 C         -21.8568  -11.3585  -12.7211 C.ar    1  UNL1        0.0082
      8 C         -22.6577  -10.6145  -11.8484 C.ar    1  UNL1        0.0179
      9 C         -22.3620   -9.8734  -10.7113 C.ar    1  UNL1        0.0239
     10 C         -21.1638   -9.6331  -10.0123 C.ar    1  UNL1        0.0831
     11 C         -21.2158   -8.7479   -8.9077 C.ar    1  UNL1        0.0409
     12 BR        -19.6603   -8.3595   -7.8534 Br      1  UNL1       -0.0488
     13 C         -22.4353   -8.1523   -8.5273 C.ar    1  UNL1        0.0084
     14 C         -23.6178   -8.4222   -9.2289 C.ar    1  UNL1        0.0177
     15 C         -23.5581   -9.2883  -10.3237 C.ar    1  UNL1        0.0602
     16 C         -19.9034  -10.3004  -10.3744 C.2     1  UNL1        0.3386
     17 O         -18.9312   -9.6181  -10.7923 O.2     1  UNL1       -0.2451
     18 O         -19.7822  -11.6837  -10.2839 O.3     1  UNL1       -0.4771
     19 H         -20.5442  -12.2541   -9.9371 H       1  UNL1        0.2954
     20 C         -25.9725   -9.1913  -11.1070 C.3     1  UNL1        0.1429
     21 C         -26.2443   -8.1334  -12.1870 C.3     1  UNL1        0.2027
     22 F         -27.5140   -8.3353  -12.7015 F       1  UNL1       -0.2334
     23 C         -26.1516   -6.7071  -11.6298 C.3     1  UNL1        0.1259
     24 N         -25.1699   -5.9270  -12.3809 N.pl3   1  UNL1       -0.3157
     25 H         -25.5121   -5.1222  -12.9538 H       1  UNL1        0.1483
     26 C         -21.8227   -7.3390  -13.0437 C.ar    1  UNL1        0.2261
     27 C         -21.0327   -6.6849  -12.0947 C.ar    1  UNL1        0.0578
     28 C         -21.6233   -5.7590  -11.2330 C.ar    1  UNL1        0.0077
     29 C         -22.9918   -5.4974  -11.3240 C.ar    1  UNL1        0.0343
     30 C         -23.7584   -6.1696  -12.2849 C.ar    1  UNL1        0.1317
     31 N         -23.1559   -7.0670  -13.1145 N.ar    1  UNL1       -0.1969
     32 C         -21.6809   -8.4543  -15.2460 C.3     1  UNL1        0.2542
     33 O         -21.2354   -8.2666  -13.9084 O.3     1  UNL1       -0.4561
@<TRIPOS>BOND
     1    32    33    1
     2    33    26    1
     3    26    27   ar
     4    27    28   ar
     5    28    29   ar
     6    29    30   ar
     7    30    24    1
     8    24    23    1
     9    23    21    1
    10    21    22    1
    11    21    20    1
    12    20     1    1
    13     1     2   ar
    14     2     3   ar
    15     3     4   ar
    16     4     5   ar
    17     5     6    1
    18     5     7   ar
    19     7     8   ar
    20     8     9   ar
    21     9    10   ar
    22    10    16    1
    23    16    17    2
    24    16    18    1
    25    10    11   ar
    26    11    12    1
    27    11    13   ar
    28    13    14   ar
    29    14    15   ar
    30    30    31   ar
    31    31    26   ar
    32    15     1   ar
    33     8     2   ar
    34    15     9   ar
    35    24    25    1
    36    18    19    1
@<TRIPOS>MOLECULE
*****
 33 36 0 0 0
SMALL
GASTEIGER

@<TRIPOS>ATOM
      1 N         -23.2931  -11.6430  -13.1891 N.ar    1  UNL1       -0.3243
      2 C         -22.2190  -11.4751  -12.3809 C.ar    1  UNL1        0.0600
      3 C         -21.2477  -12.4257  -12.0492 C.ar    1  UNL1        0.0177
      4 C         -20.1829  -12.0288  -11.2246 C.ar    1  UNL1        0.0082
      5 C         -20.0948  -10.7010  -10.7589 C.ar    1  UNL1        0.0347
      6 BR        -18.6161  -10.1730   -9.6727 Br      1  UNL1       -0.0490
      7 C         -21.0776   -9.7575  -11.1054 C.ar    1  UNL1        0.0082
      8 C         -22.1430  -10.1773  -11.9088 C.ar    1  UNL1        0.0179
      9 C         -23.2313   -9.5011  -12.4456 C.ar    1  UNL1        0.0239
     10 C         -23.6702   -8.1670  -12.3480 C.ar    1  UNL1        0.0831
     11 C         -24.8094   -7.7951  -13.1030 C.ar    1  UNL1        0.0409
     12 BR        -25.5268   -6.0167  -13.0351 Br      1  UNL1       -0.0488
     13 C         -25.4758   -8.7444  -13.9039 C.ar    1  UNL1        0.0084
     14 C         -25.0293  -10.0709  -13.9697 C.ar    1  UNL1        0.0177
     15 C         -23.8990  -10.4292  -13.2306 C.ar    1  UNL1        0.0602
     16 C         -23.0087   -7.1918  -11.4667 C.2     1  UNL1        0.3386
     17 O         -23.2241   -7.2217  -10.2266 O.2     1  UNL1       -0.2451
     18 O         -22.1652   -6.2184  -11.9934 O.3     1  UNL1       -0.4771
     19 H         -21.9638   -6.1817  -12.9856 H       1  UNL1        0.2954
     20 C         -23.6578  -12.8602  -13.9263 C.3     1  UNL1        0.1429
     21 C         -22.7496  -13.0627  -15.1485 C.3     1  UNL1        0.2027
     22 F         -22.5274  -14.4186  -15.3209 F       1  UNL1       -0.2334
     23 C         -23.3735  -12.4916  -16.4282 C.3     1  UNL1        0.1259
     24 N         -22.4448  -11.5733  -17.0846 N.pl3   1  UNL1       -0.3157
     25 H         -21.8167  -11.9539  -17.8286 H       1  UNL1        0.1483
     26 C         -23.1822   -7.9642  -17.3452 C.ar    1  UNL1        0.2261
     27 C         -22.3984   -7.4276  -16.3204 C.ar    1  UNL1        0.0578
     28 C         -21.6245   -8.2808  -15.5319 C.ar    1  UNL1        0.0077
     29 C         -21.6377   -9.6558  -15.7740 C.ar    1  UNL1        0.0343
     30 C         -22.4327  -10.1646  -16.8094 C.ar    1  UNL1        0.1317
     31 N         -23.1798   -9.3093  -17.5625 N.ar    1  UNL1       -0.1969
     32 C         -24.4439   -5.8621  -17.6667 C.3     1  UNL1        0.2542
     33 O         -23.9586   -7.1136  -18.1369 O.3     1  UNL1       -0.4561
@<TRIPOS>BOND
     1    32    33    1
     2    33    26    1
     3    26    27   ar
     4    27    28   ar
     5    28    29   ar
     6    29    30   ar
     7    30    24    1
     8    24    23    1
     9    23    21    1
    10    21    22    1
    11    21    20    1
    12    20     1    1
    13     1     2   ar
    14     2     3   ar
    15     3     4   ar
    16     4     5   ar
    17     5     6    1
    18     5     7   ar
    19     7     8   ar
    20     8     9   ar
    21     9    10   ar
    22    10    16    1
    23    16    17    2
    24    16    18    1
    25    10    11   ar
    26    11    12    1
    27    11    13   ar
    28    13    14   ar
    29    14    15   ar
    30    30    31   ar
    31    31    26   ar
    32    15     1   ar
    33     8     2   ar
    34    15     9   ar
    35    24    25    1
    36    18    19    1
@<TRIPOS>MOLECULE
*****
 33 36 0 0 0
SMALL
GASTEIGER

@<TRIPOS>ATOM
      1 N         -24.4656   -9.7085  -11.3491 N.ar    1  UNL1       -0.3243
      2 C         -23.1965   -9.7809  -10.8809 C.ar    1  UNL1        0.0600
      3 C         -22.6925   -9.2232   -9.7010 C.ar    1  UNL1        0.0177
      4 C         -21.3468   -9.4577   -9.3765 C.ar    1  UNL1        0.0082
      5 C         -20.5353  -10.2478  -10.2161 C.ar    1  UNL1        0.0347
      6 BR        -18.7195  -10.5878   -9.7338 Br      1  UNL1       -0.0490
      7 C         -21.0593  -10.8040  -11.3960 C.ar    1  UNL1        0.0082
      8 C         -22.3956  -10.5403  -11.7145 C.ar    1  UNL1        0.0179
      9 C         -23.2065  -10.9586  -12.7620 C.ar    1  UNL1        0.0239
     10 C         -22.9687  -11.7652  -13.8910 C.ar    1  UNL1        0.0831
     11 C         -24.0694  -12.0518  -14.7351 C.ar    1  UNL1        0.0409
     12 BR        -23.8734  -13.1137  -16.3213 Br      1  UNL1       -0.0488
     13 C         -25.3451  -11.5257  -14.4478 C.ar    1  UNL1        0.0084
     14 C         -25.5515  -10.7104  -13.3271 C.ar    1  UNL1        0.0177
     15 C         -24.4640  -10.4395  -12.4927 C.ar    1  UNL1        0.0602
     16 C         -21.6251  -12.2658  -14.2218 C.2     1  UNL1        0.3386
     17 O         -20.9564  -11.7097  -15.1322 O.2     1  UNL1       -0.2451
     18 O         -21.0944  -13.3658  -13.5550 O.3     1  UNL1       -0.4771
     19 H         -21.6058  -13.8221  -12.8089 H       1  UNL1        0.2954
     20 C         -25.6072   -9.0513  -10.6988 C.3     1  UNL1        0.1429
     21 C         -26.3584   -8.1412  -11.6821 C.3     1  UNL1        0.2027
     22 F         -27.7004   -8.1255  -11.3412 F       1  UNL1       -0.2334
     23 C         -25.8202   -6.7048  -11.6607 C.3     1  UNL1        0.1259
     24 N         -25.0507   -6.4284  -12.8723 N.pl3   1  UNL1       -0.3157
     25 H         -25.5013   -5.8594  -13.6246 H       1  UNL1        0.1483
     26 C         -22.0083   -7.9951  -14.2601 C.ar    1  UNL1        0.2261
     27 C         -21.0398   -7.6491  -13.3140 C.ar    1  UNL1        0.0578
     28 C         -21.4065   -6.8794  -12.2088 C.ar    1  UNL1        0.0077
     29 C         -22.7313   -6.4658  -12.0568 C.ar    1  UNL1        0.0343
     30 C         -23.6805   -6.8291  -13.0213 C.ar    1  UNL1        0.1317
     31 N         -23.2948   -7.5795  -14.0912 N.ar    1  UNL1       -0.1969
     32 C         -20.7456   -8.2964  -16.3645 C.3     1  UNL1        0.2542
     33 O         -21.6455   -8.7656  -15.3681 O.3     1  UNL1       -0.4561
@<TRIPOS>BOND
     1    32    33    1
     2    33    26    1
     3    26    27   ar
     4    27    28   ar
     5    28    29   ar
     6    29    30   ar
     7    30    24    1
     8    24    23    1
     9    23    21    1
    10    21    22    1
    11    21    20    1
    12    20     1    1
    13     1     2   ar
    14     2     3   ar
    15     3     4   ar
    16     4     5   ar
    17     5     6    1
    18     5     7   ar
    19     7     8   ar
    20     8     9   ar
    21     9    10   ar
    22    10    16    1
    23    16    17    2
    24    16    18    1
    25    10    11   ar
    26    11    12    1
    27    11    13   ar
    28    13    14   ar
    29    14    15   ar
    30    30    31   ar
    31    31    26   ar
    32    15     1   ar
    33     8     2   ar
    34    15     9   ar
    35    24    25    1
    36    18    19    1
