@<TRIPOS>MOLECULE
*****
 55 61 0 0 0
SMALL
GASTEIGER

@<TRIPOS>ATOM
      1 N          -4.4740   -9.6483   29.9674 N.3     1  UNL1       -0.2638
      2 C          -4.0689   -8.2499   29.7587 C.3     1  UNL1        0.0739
      3 C          -4.9625   -7.3755   30.6206 C.3     1  UNL1        0.0374
      4 C          -5.4220   -8.2820   31.7698 C.3     1  UNL1        0.1239
      5 C          -4.9725   -9.7050   31.3520 C.3     1  UNL1        0.0913
      6 C          -6.9334   -8.1662   31.9155 C.2     1  UNL1        0.2359
      7 O          -7.4831   -8.3149   33.0420 O.2     1  UNL1       -0.2739
      8 N          -7.7511   -8.0082   30.7429 N.am    1  UNL1       -0.2832
      9 H          -7.3317   -8.2539   29.8174 H       1  UNL1        0.1549
     10 C          -9.1390   -7.6350   30.7764 C.ar    1  UNL1        0.0505
     11 C          -9.4994   -6.2864   30.5242 C.ar    1  UNL1        0.0162
     12 C         -10.8429   -5.8749   30.5870 C.ar    1  UNL1        0.0198
     13 C         -11.7990   -6.8358   30.8999 C.ar    1  UNL1        0.0754
     14 N         -13.1198   -6.6661   31.0651 N.ar    1  UNL1       -0.2757
     15 N         -13.6548   -7.8320   31.4085 N.ar    1  UNL1       -0.1726
     16 C         -12.6667   -8.7598   31.4548 C.ar    1  UNL1        0.1036
     17 C         -11.4673   -8.1388   31.1403 C.ar    1  UNL1        0.0376
     18 C         -10.1418   -8.5741   31.1188 C.ar    1  UNL1        0.0177
     19 H         -13.6551   -5.7756   30.9629 H       1  UNL1        0.1889
     20 C         -12.8951  -10.1784   31.7982 C.ar    1  UNL1        0.0388
     21 C         -12.9428  -10.6099   33.1312 C.ar    1  UNL1        0.0079
     22 C         -13.1491  -11.9582   33.4267 C.ar    1  UNL1        0.0578
     23 C         -13.2989  -12.8830   32.3773 C.ar    1  UNL1        0.2247
     24 N         -13.2238  -12.4428   31.0928 N.ar    1  UNL1       -0.2101
     25 C         -13.0219  -11.1350   30.7820 C.ar    1  UNL1        0.1036
     26 O         -13.5112  -14.2537   32.5972 O.3     1  UNL1       -0.4640
     27 C         -12.5136  -15.2055   32.9750 C.3     1  UNL1        0.1678
     28 C         -12.3186  -15.1963   34.4949 C.3     1  UNL1        0.0473
     29 C         -12.9579  -16.5907   32.5087 C.3     1  UNL1        0.0473
     30 S          -4.6753   -7.8142   33.4029 S.3     1  UNL1       -0.1308
     31 C          -3.5774   -6.4339   32.9141 C.3     1  UNL1        0.0696
     32 C          -5.5248  -10.0603   29.0103 C.3     1  UNL1        0.1587
     33 C          -6.6485  -14.5948   26.6407 C.2     1  UNL1       -0.0231
     34 C          -7.4786  -14.4332   27.6804 C.2     1  UNL1       -0.0089
     35 C          -7.0456  -13.6622   28.8945 C.3     1  UNL1        0.1196
     36 N          -6.1893  -12.5190   28.5291 N.am    1  UNL1       -0.2740
     37 C          -6.1337  -11.3795   29.4193 C.2     1  UNL1        0.2423
     38 O          -6.6423  -11.4627   30.5711 O.2     1  UNL1       -0.2733
     39 C          -5.3340  -12.5782   27.3274 C.3     1  UNL1        0.0984
     40 C          -5.2720  -13.9881   26.7236 C.3     1  UNL1        0.0476
     41 C          -7.7993  -16.9904   23.2458 C.ar    1  UNL1        0.0375
     42 C          -6.4882  -16.4994   23.3568 C.ar    1  UNL1        0.0031
     43 C          -6.1132  -15.7210   24.4554 C.ar    1  UNL1       -0.0002
     44 C          -7.0424  -15.4158   25.4660 C.ar    1  UNL1       -0.0042
     45 C          -8.3525  -15.9117   25.3550 C.ar    1  UNL1       -0.0002
     46 C          -8.7277  -16.6893   24.2557 C.ar    1  UNL1        0.0031
     47 C          -9.3227  -18.7035   20.5468 C.ar    1  UNL1        0.1679
     48 N          -9.4461  -17.8297   21.5649 N.ar    1  UNL1       -0.2080
     49 C          -8.1958  -17.8141   22.0836 C.ar    1  UNL1        0.1829
     50 N          -7.3491  -18.6269   21.4168 N.ar    1  UNL1       -0.1487
     51 N          -8.0669  -19.1794   20.4568 N.ar    1  UNL1       -0.2320
     52 C          -7.5373  -20.1136   19.4707 C.3     1  UNL1        0.1552
     53 C         -10.4439  -19.0453   19.6093 C.3     1  UNL1        0.2070
     54 C         -11.5307  -17.0024   19.4816 C.3     1  UNL1        0.1747
     55 O         -11.6141  -18.3297   19.9533 O.3     1  UNL1       -0.3430
@<TRIPOS>BOND
     1    54    55    1
     2    55    53    1
     3    53    47    1
     4    47    48   ar
     5    48    49   ar
     6    49    41    1
     7    41    42   ar
     8    42    43   ar
     9    43    44   ar
    10    44    33    1
    11    33    34    2
    12    34    35    1
    13    35    36    1
    14    36    37   am
    15    37    38    2
    16    37    32    1
    17    32     1    1
    18     1     2    1
    19     2     3    1
    20     3     4    1
    21     4    30    1
    22    30    31    1
    23     4     6    1
    24     6     7    2
    25     6     8   am
    26     8    10    1
    27    10    11   ar
    28    11    12   ar
    29    12    13   ar
    30    13    14   ar
    31    14    15   ar
    32    15    16   ar
    33    16    20    1
    34    20    21   ar
    35    21    22   ar
    36    22    23   ar
    37    23    26    1
    38    26    27    1
    39    27    28    1
    40    27    29    1
    41    23    24   ar
    42    24    25   ar
    43    16    17   ar
    44    17    18   ar
    45     4     5    1
    46    36    39    1
    47    39    40    1
    48    44    45   ar
    49    45    46   ar
    50    49    50   ar
    51    50    51   ar
    52    51    52    1
    53    51    47   ar
    54    46    41   ar
    55    40    33    1
    56     5     1    1
    57    18    10   ar
    58    17    13   ar
    59    25    20   ar
    60     8     9    1
    61    14    19    1
@<TRIPOS>MOLECULE
*****
 55 61 0 0 0
SMALL
GASTEIGER

@<TRIPOS>ATOM
      1 N          -4.5932   -9.8885   29.8796 N.3     1  UNL1       -0.2638
      2 C          -4.1393   -8.5021   29.6919 C.3     1  UNL1        0.0739
      3 C          -4.9818   -7.6136   30.5899 C.3     1  UNL1        0.0374
      4 C          -5.4526   -8.5267   31.7292 C.3     1  UNL1        0.1239
      5 C          -5.0660   -9.9562   31.2727 C.3     1  UNL1        0.0913
      6 C          -6.9554   -8.3572   31.9083 C.2     1  UNL1        0.2359
      7 O          -7.4590   -8.2737   33.0627 O.2     1  UNL1       -0.2739
      8 N          -7.8197   -8.4157   30.7602 N.am    1  UNL1       -0.2832
      9 H          -7.4419   -8.8445   29.8849 H       1  UNL1        0.1549
     10 C          -9.2011   -8.0179   30.7743 C.ar    1  UNL1        0.0505
     11 C          -9.5408   -6.6839   30.4321 C.ar    1  UNL1        0.0162
     12 C         -10.8770   -6.2466   30.4726 C.ar    1  UNL1        0.0198
     13 C         -11.8470   -7.1677   30.8547 C.ar    1  UNL1        0.0754
     14 N         -13.1638   -6.9651   31.0138 N.ar    1  UNL1       -0.2757
     15 N         -13.7159   -8.0957   31.4385 N.ar    1  UNL1       -0.1726
     16 C         -12.7430   -9.0346   31.5437 C.ar    1  UNL1        0.1036
     17 C         -11.5353   -8.4566   31.1821 C.ar    1  UNL1        0.0376
     18 C         -10.2172   -8.9146   31.1846 C.ar    1  UNL1        0.0177
     19 H         -13.6850   -6.0748   30.8533 H       1  UNL1        0.1889
     20 C         -12.9927  -10.4224   31.9842 C.ar    1  UNL1        0.0388
     21 C         -13.0792  -11.4773   31.0650 C.ar    1  UNL1        0.0079
     22 C         -13.3269  -12.7773   31.5081 C.ar    1  UNL1        0.0578
     23 C         -13.4993  -13.0203   32.8829 C.ar    1  UNL1        0.2247
     24 N         -13.4355  -11.9759   33.7516 N.ar    1  UNL1       -0.2101
     25 C         -13.1970  -10.7019   33.3421 C.ar    1  UNL1        0.1036
     26 O         -13.7494  -14.3007   33.4026 O.3     1  UNL1       -0.4640
     27 C         -12.7582  -15.2520   33.7985 C.3     1  UNL1        0.1678
     28 C         -12.3259  -16.1002   32.5978 C.3     1  UNL1        0.0473
     29 C         -11.5590  -14.4987   34.3713 C.3     1  UNL1        0.0473
     30 S          -4.6566   -8.1226   33.3560 S.3     1  UNL1       -0.1308
     31 C          -3.8240   -6.5403   32.9658 C.3     1  UNL1        0.0696
     32 C          -5.6776  -10.2399   28.9360 C.3     1  UNL1        0.1587
     33 C          -6.6871  -14.7878   26.5408 C.2     1  UNL1       -0.0231
     34 C          -7.5749  -14.6138   27.5296 C.2     1  UNL1       -0.0089
     35 C          -7.2084  -13.8351   28.7606 C.3     1  UNL1        0.1196
     36 N          -6.3264  -12.6991   28.4364 N.am    1  UNL1       -0.2740
     37 C          -6.3161  -11.5528   29.3194 C.2     1  UNL1        0.2423
     38 O          -6.8906  -11.6242   30.4406 O.2     1  UNL1       -0.2733
     39 C          -5.4036  -12.7721   27.2864 C.3     1  UNL1        0.0984
     40 C          -5.3145  -14.1871   26.6981 C.3     1  UNL1        0.0476
     41 C          -7.6521  -17.2056   23.1040 C.ar    1  UNL1        0.0375
     42 C          -6.3696  -16.6507   23.2444 C.ar    1  UNL1        0.0031
     43 C          -6.0549  -15.8650   24.3567 C.ar    1  UNL1       -0.0002
     44 C          -7.0172  -15.6162   25.3517 C.ar    1  UNL1       -0.0042
     45 C          -8.2984  -16.1760   25.2112 C.ar    1  UNL1       -0.0002
     46 C          -8.6132  -16.9609   24.0983 C.ar    1  UNL1        0.0031
     47 C          -7.8389  -19.3744   20.3108 C.ar    1  UNL1        0.1679
     48 N          -7.0914  -18.8306   21.2910 N.ar    1  UNL1       -0.2080
     49 C          -7.9847  -18.0370   21.9273 C.ar    1  UNL1        0.1829
     50 N          -9.2146  -18.0959   21.3742 N.ar    1  UNL1       -0.1487
     51 N          -9.1105  -18.9361   20.3617 N.ar    1  UNL1       -0.2320
     52 C         -10.2196  -19.3189   19.4961 C.3     1  UNL1        0.1552
     53 C          -7.3127  -20.3828   19.3316 C.3     1  UNL1        0.2070
     54 C          -5.1113  -20.6344   20.0110 C.3     1  UNL1        0.1747
     55 O          -6.3826  -21.2444   19.9580 O.3     1  UNL1       -0.3430
@<TRIPOS>BOND
     1    54    55    1
     2    55    53    1
     3    53    47    1
     4    47    48   ar
     5    48    49   ar
     6    49    41    1
     7    41    42   ar
     8    42    43   ar
     9    43    44   ar
    10    44    33    1
    11    33    34    2
    12    34    35    1
    13    35    36    1
    14    36    37   am
    15    37    38    2
    16    37    32    1
    17    32     1    1
    18     1     2    1
    19     2     3    1
    20     3     4    1
    21     4    30    1
    22    30    31    1
    23     4     6    1
    24     6     7    2
    25     6     8   am
    26     8    10    1
    27    10    11   ar
    28    11    12   ar
    29    12    13   ar
    30    13    14   ar
    31    14    15   ar
    32    15    16   ar
    33    16    20    1
    34    20    21   ar
    35    21    22   ar
    36    22    23   ar
    37    23    26    1
    38    26    27    1
    39    27    28    1
    40    27    29    1
    41    23    24   ar
    42    24    25   ar
    43    16    17   ar
    44    17    18   ar
    45     4     5    1
    46    36    39    1
    47    39    40    1
    48    44    45   ar
    49    45    46   ar
    50    49    50   ar
    51    50    51   ar
    52    51    52    1
    53    51    47   ar
    54    46    41   ar
    55    40    33    1
    56     5     1    1
    57    18    10   ar
    58    17    13   ar
    59    25    20   ar
    60     8     9    1
    61    14    19    1
@<TRIPOS>MOLECULE
*****
 55 61 0 0 0
SMALL
GASTEIGER

@<TRIPOS>ATOM
      1 N         -11.5575  -19.4898   23.2806 N.3     1  UNL1       -0.2638
      2 C         -12.6759  -18.7350   22.6953 C.3     1  UNL1        0.0739
      3 C         -12.0902  -17.6790   21.7746 C.3     1  UNL1        0.0374
      4 C         -10.7258  -18.2337   21.3455 C.3     1  UNL1        0.1239
      5 C         -10.4959  -19.4632   22.2602 C.3     1  UNL1        0.0913
      6 C          -9.6701  -17.1539   21.5422 C.2     1  UNL1        0.2359
      7 O         -10.0010  -15.9908   21.9042 O.2     1  UNL1       -0.2739
      8 N          -8.3011  -17.4260   21.1955 N.am    1  UNL1       -0.2832
      9 H          -8.1080  -18.2386   20.5668 H       1  UNL1        0.1549
     10 C          -7.1956  -16.5885   21.5737 C.ar    1  UNL1        0.0505
     11 C          -7.4402  -15.2361   21.9248 C.ar    1  UNL1        0.0162
     12 C          -6.3802  -14.3752   22.2621 C.ar    1  UNL1        0.0198
     13 C          -5.0914  -14.8987   22.2424 C.ar    1  UNL1        0.0754
     14 N          -3.9348  -14.2593   22.4744 N.ar    1  UNL1       -0.2757
     15 N          -2.9366  -15.1177   22.3006 N.ar    1  UNL1       -0.1726
     16 C          -3.4608  -16.3219   21.9624 C.ar    1  UNL1        0.1036
     17 C          -4.8413  -16.1999   21.9111 C.ar    1  UNL1        0.0376
     18 C          -5.8652  -17.0721   21.5395 C.ar    1  UNL1        0.0177
     19 H          -3.8145  -13.2548   22.7324 H       1  UNL1        0.1889
     20 C          -2.6421  -17.5227   21.6977 C.ar    1  UNL1        0.0388
     21 C          -3.1020  -18.8072   22.0200 C.ar    1  UNL1        0.0079
     22 C          -2.3029  -19.9235   21.7689 C.ar    1  UNL1        0.0578
     23 C          -1.0284  -19.7501   21.1993 C.ar    1  UNL1        0.2247
     24 N          -0.5957  -18.4917   20.9189 N.ar    1  UNL1       -0.2101
     25 C          -1.3563  -17.3904   21.1566 C.ar    1  UNL1        0.1036
     26 O          -0.1699  -20.8248   20.9165 O.3     1  UNL1       -0.4640
     27 C           1.0338  -21.1423   21.6196 C.3     1  UNL1        0.1678
     28 C           1.3384  -22.6395   21.5029 C.3     1  UNL1        0.0473
     29 C           2.1779  -20.3234   21.0247 C.3     1  UNL1        0.0473
     30 S         -10.6767  -18.7306   19.5583 S.3     1  UNL1       -0.1308
     31 C          -9.0708  -19.6041   19.4720 C.3     1  UNL1        0.0696
     32 C         -11.0901  -18.8796   24.5452 C.3     1  UNL1        0.1587
     33 C          -7.9785  -15.5223   27.0919 C.2     1  UNL1       -0.0231
     34 C          -7.5560  -15.6266   25.8243 C.2     1  UNL1       -0.0089
     35 C          -7.7553  -16.8994   25.0521 C.3     1  UNL1        0.1196
     36 N          -9.0392  -17.5396   25.3915 N.am    1  UNL1       -0.2740
     37 C          -9.6617  -18.4090   24.4165 C.2     1  UNL1        0.2423
     38 O          -9.0127  -18.7661   23.3951 O.2     1  UNL1       -0.2733
     39 C          -9.6277  -17.3713   26.7348 C.3     1  UNL1        0.0984
     40 C          -8.6528  -16.7135   27.7212 C.3     1  UNL1        0.0476
     41 C          -7.2192  -11.9639   29.4048 C.ar    1  UNL1        0.0375
     42 C          -8.5030  -12.5328   29.3777 C.ar    1  UNL1        0.0031
     43 C          -8.7521  -13.6852   28.6271 C.ar    1  UNL1       -0.0002
     44 C          -7.7224  -14.2924   27.8862 C.ar    1  UNL1       -0.0042
     45 C          -6.4378  -13.7239   27.9183 C.ar    1  UNL1       -0.0002
     46 C          -6.1890  -12.5708   28.6681 C.ar    1  UNL1        0.0031
     47 C          -6.2758   -8.8448   30.7909 C.ar    1  UNL1        0.1679
     48 N          -6.2455   -9.6876   29.7403 N.ar    1  UNL1       -0.2080
     49 C          -6.9558  -10.7448   30.1991 C.ar    1  UNL1        0.1829
     50 N          -7.4044  -10.5589   31.4586 N.ar    1  UNL1       -0.1487
     51 N          -6.9711   -9.3655   31.8191 N.ar    1  UNL1       -0.2320
     52 C          -7.2524   -8.7457   33.1084 C.3     1  UNL1        0.1552
     53 C          -5.6535   -7.4790   30.7743 C.3     1  UNL1        0.2070
     54 C          -7.3760   -5.9909   30.3393 C.3     1  UNL1        0.1747
     55 O          -6.2651   -6.6669   29.7914 O.3     1  UNL1       -0.3430
@<TRIPOS>BOND
     1    54    55    1
     2    55    53    1
     3    53    47    1
     4    47    48   ar
     5    48    49   ar
     6    49    41    1
     7    41    42   ar
     8    42    43   ar
     9    43    44   ar
    10    44    33    1
    11    33    34    2
    12    34    35    1
    13    35    36    1
    14    36    37   am
    15    37    38    2
    16    37    32    1
    17    32     1    1
    18     1     2    1
    19     2     3    1
    20     3     4    1
    21     4    30    1
    22    30    31    1
    23     4     6    1
    24     6     7    2
    25     6     8   am
    26     8    10    1
    27    10    11   ar
    28    11    12   ar
    29    12    13   ar
    30    13    14   ar
    31    14    15   ar
    32    15    16   ar
    33    16    20    1
    34    20    21   ar
    35    21    22   ar
    36    22    23   ar
    37    23    26    1
    38    26    27    1
    39    27    28    1
    40    27    29    1
    41    23    24   ar
    42    24    25   ar
    43    16    17   ar
    44    17    18   ar
    45     4     5    1
    46    36    39    1
    47    39    40    1
    48    44    45   ar
    49    45    46   ar
    50    49    50   ar
    51    50    51   ar
    52    51    52    1
    53    51    47   ar
    54    46    41   ar
    55    40    33    1
    56     5     1    1
    57    18    10   ar
    58    17    13   ar
    59    25    20   ar
    60     8     9    1
    61    14    19    1
@<TRIPOS>MOLECULE
*****
 55 61 0 0 0
SMALL
GASTEIGER

@<TRIPOS>ATOM
      1 N         -12.2721   -9.8609   31.9275 N.3     1  UNL1       -0.2638
      2 C         -13.1801  -10.8952   31.4088 C.3     1  UNL1        0.0739
      3 C         -12.3552  -12.1403   31.1348 C.3     1  UNL1        0.0374
      4 C         -11.1465  -12.0348   32.0735 C.3     1  UNL1        0.1239
      5 C         -11.2167  -10.5961   32.6449 C.3     1  UNL1        0.0913
      6 C          -9.8759  -12.2835   31.2718 C.2     1  UNL1        0.2359
      7 O          -8.7448  -12.0066   31.7590 O.2     1  UNL1       -0.2739
      8 N          -9.9714  -12.7217   29.9053 N.am    1  UNL1       -0.2832
      9 H         -10.8842  -12.5920   29.4127 H       1  UNL1        0.1549
     10 C          -8.8612  -13.2285   29.1455 C.ar    1  UNL1        0.0505
     11 C          -7.5658  -12.6980   29.3748 C.ar    1  UNL1        0.0162
     12 C          -6.4617  -13.1402   28.6238 C.ar    1  UNL1        0.0198
     13 C          -6.6867  -14.1144   27.6565 C.ar    1  UNL1        0.0754
     14 N          -5.8053  -14.6442   26.7946 N.ar    1  UNL1       -0.2757
     15 N          -6.4468  -15.5016   26.0094 N.ar    1  UNL1       -0.1726
     16 C          -7.7515  -15.5274   26.3788 C.ar    1  UNL1        0.1036
     17 C          -7.9274  -14.6379   27.4281 C.ar    1  UNL1        0.0376
     18 C          -9.0497  -14.1988   28.1316 C.ar    1  UNL1        0.0177
     19 H          -4.7874  -14.4230   26.7237 H       1  UNL1        0.1889
     20 C          -8.7676  -16.3781   25.7259 C.ar    1  UNL1        0.0388
     21 C          -9.0659  -17.6608   26.2063 C.ar    1  UNL1        0.0079
     22 C         -10.0228  -18.4474   25.5632 C.ar    1  UNL1        0.0578
     23 C         -10.6787  -17.9480   24.4234 C.ar    1  UNL1        0.2247
     24 N         -10.3533  -16.7105   23.9629 N.ar    1  UNL1       -0.2101
     25 C          -9.4236  -15.9281   24.5723 C.ar    1  UNL1        0.1036
     26 O         -11.6531  -18.6800   23.7257 O.3     1  UNL1       -0.4640
     27 C         -11.5368  -19.1634   22.3852 C.3     1  UNL1        0.1678
     28 C         -11.8233  -18.0366   21.3871 C.3     1  UNL1        0.0473
     29 C         -10.1220  -19.7020   22.1808 C.3     1  UNL1        0.0473
     30 S         -11.1843  -13.2847   33.4446 S.3     1  UNL1       -0.1308
     31 C         -12.4389  -14.4631   32.8224 C.3     1  UNL1        0.0696
     32 C         -11.6976   -9.0425   30.8366 C.3     1  UNL1        0.1587
     33 C          -6.4921   -9.2424   30.2877 C.2     1  UNL1       -0.0231
     34 C          -6.7812   -8.6449   31.4520 C.2     1  UNL1       -0.0089
     35 C          -8.0515   -7.8605   31.6164 C.3     1  UNL1        0.1196
     36 N          -9.1673   -8.4824   30.8804 N.am    1  UNL1       -0.2740
     37 C         -10.5200   -8.2394   31.3332 C.2     1  UNL1        0.2423
     38 O         -10.7362   -7.3518   32.2035 O.2     1  UNL1       -0.2733
     39 C          -8.9128   -9.2585   29.6507 C.3     1  UNL1        0.0984
     40 C          -7.4700   -9.1032   29.1503 C.3     1  UNL1        0.0476
     41 C          -2.7535  -11.3199   29.7441 C.ar    1  UNL1        0.0375
     42 C          -3.1968  -10.3932   28.7864 C.ar    1  UNL1        0.0031
     43 C          -4.4093   -9.7199   28.9593 C.ar    1  UNL1       -0.0002
     44 C          -5.2052   -9.9604   30.0937 C.ar    1  UNL1       -0.0042
     45 C          -4.7575  -10.8849   31.0527 C.ar    1  UNL1       -0.0002
     46 C          -3.5455  -11.5589   30.8790 C.ar    1  UNL1        0.0031
     47 C           0.1916  -12.9767   28.6848 C.ar    1  UNL1        0.1679
     48 N          -0.9583  -12.3588   28.3512 N.ar    1  UNL1       -0.2080
     49 C          -1.4706  -12.0319   29.5609 C.ar    1  UNL1        0.1829
     50 N          -0.6761  -12.4201   30.5809 N.ar    1  UNL1       -0.1487
     51 N           0.3617  -13.0117   30.0195 N.ar    1  UNL1       -0.2320
     52 C           1.4908  -13.5630   30.7590 C.3     1  UNL1        0.1552
     53 C           1.1714  -13.5018   27.6763 C.3     1  UNL1        0.2070
     54 C           2.0156  -15.5865   28.2354 C.3     1  UNL1        0.1747
     55 O           1.0167  -14.8981   27.5145 O.3     1  UNL1       -0.3430
@<TRIPOS>BOND
     1    54    55    1
     2    55    53    1
     3    53    47    1
     4    47    48   ar
     5    48    49   ar
     6    49    41    1
     7    41    42   ar
     8    42    43   ar
     9    43    44   ar
    10    44    33    1
    11    33    34    2
    12    34    35    1
    13    35    36    1
    14    36    37   am
    15    37    38    2
    16    37    32    1
    17    32     1    1
    18     1     2    1
    19     2     3    1
    20     3     4    1
    21     4    30    1
    22    30    31    1
    23     4     6    1
    24     6     7    2
    25     6     8   am
    26     8    10    1
    27    10    11   ar
    28    11    12   ar
    29    12    13   ar
    30    13    14   ar
    31    14    15   ar
    32    15    16   ar
    33    16    20    1
    34    20    21   ar
    35    21    22   ar
    36    22    23   ar
    37    23    26    1
    38    26    27    1
    39    27    28    1
    40    27    29    1
    41    23    24   ar
    42    24    25   ar
    43    16    17   ar
    44    17    18   ar
    45     4     5    1
    46    36    39    1
    47    39    40    1
    48    44    45   ar
    49    45    46   ar
    50    49    50   ar
    51    50    51   ar
    52    51    52    1
    53    51    47   ar
    54    46    41   ar
    55    40    33    1
    56     5     1    1
    57    18    10   ar
    58    17    13   ar
    59    25    20   ar
    60     8     9    1
    61    14    19    1
