@<TRIPOS>MOLECULE
*****
 42 46 0 0 0
SMALL
GASTEIGER

@<TRIPOS>ATOM
      1 C          -7.5571  -16.6221   22.9536 C.ar    1  UNL1        0.0888
      2 C          -7.0175  -16.9148   21.6717 C.ar    1  UNL1        0.0282
      3 C          -5.6249  -16.8677   21.5115 C.ar    1  UNL1        0.0997
      4 N          -4.9132  -17.1119   20.3968 N.ar    1  UNL1       -0.2137
      5 C          -3.6321  -16.9089   20.8125 C.ar    1  UNL1        0.1984
      6 N          -3.5213  -16.5656   22.1196 N.ar    1  UNL1       -0.3255
      7 C          -4.7901  -16.5428   22.5419 C.ar    1  UNL1        0.0755
      8 C          -5.2971  -16.2421   23.7981 C.ar    1  UNL1        0.0325
      9 C          -6.6555  -16.2749   23.9916 C.ar    1  UNL1        0.1401
     10 O          -6.9708  -15.8992   25.2807 O.3     1  UNL1       -0.4824
     11 C          -5.7897  -15.6002   26.0309 C.3     1  UNL1        0.1375
     12 C          -5.8538  -14.1429   26.5066 C.3     1  UNL1        0.0439
     13 C          -5.7041  -16.5520   27.2311 C.3     1  UNL1        0.0439
     14 C          -4.5985  -15.8244   25.0397 C.3     1  UNL1        0.0709
     15 H          -2.6537  -16.3679   22.6661 H       1  UNL1        0.1686
     16 N          -9.8024  -17.7845   22.7829 N.am    1  UNL1       -0.2802
     17 C          -9.0179  -16.6467   23.1718 C.2     1  UNL1        0.2525
     18 O          -9.5787  -15.6485   23.7012 O.2     1  UNL1       -0.2697
     19 H          -9.3616  -18.5667   22.2507 H       1  UNL1        0.1552
     20 C         -11.9841  -16.5595   21.2557 C.3     1  UNL1        0.0323
     21 C         -12.2259  -17.3744   22.4978 C.ar    1  UNL1       -0.0079
     22 C         -13.5393  -17.5275   22.9700 C.ar    1  UNL1        0.0008
     23 C         -13.8091  -18.2994   24.1116 C.ar    1  UNL1        0.0717
     24 C         -12.7402  -18.8782   24.8128 C.ar    1  UNL1        0.0110
     25 C         -11.4253  -18.7183   24.3659 C.ar    1  UNL1        0.0346
     26 S         -10.0910  -19.4790   25.2958 S.3     1  UNL1       -0.1402
     27 C         -11.1576  -17.9533   23.2176 C.ar    1  UNL1        0.0519
     28 H          -9.9161  -18.3298   26.0892 H       1  UNL1        0.1072
     29 C         -15.2198  -18.4243   24.6316 C.3     1  UNL1        0.4186
     30 F         -15.8378  -17.1862   24.6704 F       1  UNL1       -0.1659
     31 F         -15.1885  -18.9523   25.9087 F       1  UNL1       -0.1659
     32 F         -15.9705  -19.2556   23.8183 F       1  UNL1       -0.1659
     33 N          -2.4915  -17.0852   19.9629 N.pl3   1  UNL1       -0.2816
     34 H          -2.4273  -16.4973   19.1017 H       1  UNL1        0.1551
     35 C          -1.3762  -17.9177   20.3173 C.ar    1  UNL1        0.0889
     36 C          -0.0573  -17.4376   20.1993 C.ar    1  UNL1        0.1543
     37 F           0.1832  -16.1715   19.7748 F       1  UNL1       -0.2028
     38 C           1.0219  -18.2488   20.5623 C.ar    1  UNL1        0.0310
     39 C           0.7982  -19.5358   21.0546 C.ar    1  UNL1        0.0033
     40 C          -0.5063  -20.0141   21.1936 C.ar    1  UNL1        0.0128
     41 C          -1.5946  -19.2102   20.8342 C.ar    1  UNL1        0.0733
     42 CL         -3.2202  -19.8594   21.0065 Cl      1  UNL1       -0.0809
@<TRIPOS>BOND
     1    20    21    1
     2    21    22   ar
     3    22    23   ar
     4    23    29    1
     5    29    30    1
     6    29    31    1
     7    29    32    1
     8    23    24   ar
     9    24    25   ar
    10    25    26    1
    11    25    27   ar
    12    27    16    1
    13    16    17   am
    14    17    18    2
    15    17     1    1
    16     1     2   ar
    17     2     3   ar
    18     3     4   ar
    19     4     5   ar
    20     5    33    1
    21    33    35    1
    22    35    36   ar
    23    36    37    1
    24    36    38   ar
    25    38    39   ar
    26    39    40   ar
    27    40    41   ar
    28    41    42    1
    29     5     6   ar
    30     6     7   ar
    31     7     8   ar
    32     8     9   ar
    33     9    10    1
    34    10    11    1
    35    11    12    1
    36    11    13    1
    37    11    14    1
    38    27    21   ar
    39     9     1   ar
    40     7     3   ar
    41    14     8    1
    42    41    35   ar
    43    26    28    1
    44    16    19    1
    45    33    34    1
    46     6    15    1
@<TRIPOS>MOLECULE
*****
 42 46 0 0 0
SMALL
GASTEIGER

@<TRIPOS>ATOM
      1 C          -6.2948  -19.0178   22.1348 C.ar    1  UNL1        0.0888
      2 C          -5.5660  -20.0847   21.5426 C.ar    1  UNL1        0.0282
      3 C          -4.1809  -19.9336   21.3824 C.ar    1  UNL1        0.0997
      4 N          -3.3098  -20.8123   20.8556 N.ar    1  UNL1       -0.2137
      5 C          -2.1261  -20.1437   20.9405 C.ar    1  UNL1        0.1984
      6 N          -2.2241  -18.9119   21.4990 N.ar    1  UNL1       -0.3255
      7 C          -3.5290  -18.7977   21.7687 C.ar    1  UNL1        0.0755
      8 C          -4.2235  -17.7397   22.3380 C.ar    1  UNL1        0.0325
      9 C          -5.5809  -17.8505   22.5075 C.ar    1  UNL1        0.1401
     10 O          -6.1000  -16.6873   23.0363 O.3     1  UNL1       -0.4824
     11 C          -5.0688  -15.7210   23.2599 C.3     1  UNL1        0.1375
     12 C          -5.3714  -14.4647   22.4327 C.3     1  UNL1        0.0439
     13 C          -5.0185  -15.3786   24.7546 C.3     1  UNL1        0.0439
     14 C          -3.7437  -16.4089   22.7879 C.3     1  UNL1        0.0709
     15 H          -1.4632  -18.2193   21.6773 H       1  UNL1        0.1686
     16 N          -8.3848  -18.6731   23.5258 N.am    1  UNL1       -0.2802
     17 C          -7.7572  -19.1226   22.3153 C.2     1  UNL1        0.2525
     18 O          -8.4578  -19.6211   21.3924 O.2     1  UNL1       -0.2697
     19 H          -7.8013  -18.3581   24.3319 H       1  UNL1        0.1552
     20 C          -9.9842  -20.6984   24.9160 C.3     1  UNL1        0.0323
     21 C         -10.5971  -19.4730   24.2930 C.ar    1  UNL1       -0.0079
     22 C         -11.9901  -19.3047   24.3431 C.ar    1  UNL1        0.0008
     23 C         -12.5982  -18.1639   23.7946 C.ar    1  UNL1        0.0717
     24 C         -11.7999  -17.2107   23.1439 C.ar    1  UNL1        0.0110
     25 C         -10.4136  -17.3743   23.0689 C.ar    1  UNL1        0.0346
     26 S          -9.4339  -16.1270   22.2272 S.3     1  UNL1       -0.1402
     27 C          -9.8053  -18.5119   23.6268 C.ar    1  UNL1        0.0519
     28 H          -9.5371  -16.7995   20.9953 H       1  UNL1        0.1072
     29 C         -14.0991  -18.0132   23.8199 C.3     1  UNL1        0.4186
     30 F         -14.6658  -18.5734   22.6880 F       1  UNL1       -0.1659
     31 F         -14.4204  -16.6696   23.8667 F       1  UNL1       -0.1659
     32 F         -14.6366  -18.6442   24.9286 F       1  UNL1       -0.1659
     33 N          -0.8746  -20.7024   20.5217 N.pl3   1  UNL1       -0.2816
     34 H          -0.8965  -21.5646   19.9321 H       1  UNL1        0.1551
     35 C           0.3854  -20.0523   20.7507 C.ar    1  UNL1        0.0889
     36 C           0.5558  -18.6892   20.4394 C.ar    1  UNL1        0.1543
     37 F          -0.4742  -17.9585   19.9430 F       1  UNL1       -0.2028
     38 C           1.7806  -18.0600   20.6812 C.ar    1  UNL1        0.0310
     39 C           2.8388  -18.7763   21.2432 C.ar    1  UNL1        0.0033
     40 C           2.6740  -20.1230   21.5733 C.ar    1  UNL1        0.0128
     41 C           1.4517  -20.7631   21.3365 C.ar    1  UNL1        0.0733
     42 CL          1.2936  -22.4656   21.7488 Cl      1  UNL1       -0.0809
@<TRIPOS>BOND
     1    20    21    1
     2    21    22   ar
     3    22    23   ar
     4    23    29    1
     5    29    30    1
     6    29    31    1
     7    29    32    1
     8    23    24   ar
     9    24    25   ar
    10    25    26    1
    11    25    27   ar
    12    27    16    1
    13    16    17   am
    14    17    18    2
    15    17     1    1
    16     1     2   ar
    17     2     3   ar
    18     3     4   ar
    19     4     5   ar
    20     5    33    1
    21    33    35    1
    22    35    36   ar
    23    36    37    1
    24    36    38   ar
    25    38    39   ar
    26    39    40   ar
    27    40    41   ar
    28    41    42    1
    29     5     6   ar
    30     6     7   ar
    31     7     8   ar
    32     8     9   ar
    33     9    10    1
    34    10    11    1
    35    11    12    1
    36    11    13    1
    37    11    14    1
    38    27    21   ar
    39     9     1   ar
    40     7     3   ar
    41    14     8    1
    42    41    35   ar
    43    26    28    1
    44    16    19    1
    45    33    34    1
    46     6    15    1
@<TRIPOS>MOLECULE
*****
 42 46 0 0 0
SMALL
GASTEIGER

@<TRIPOS>ATOM
      1 C          -6.4160  -19.0247   22.1321 C.ar    1  UNL1        0.0888
      2 C          -5.6948  -20.0676   21.4899 C.ar    1  UNL1        0.0282
      3 C          -4.3090  -19.9177   21.3343 C.ar    1  UNL1        0.0997
      4 N          -3.4442  -20.7765   20.7658 N.ar    1  UNL1       -0.2137
      5 C          -2.2563  -20.1198   20.8791 C.ar    1  UNL1        0.1984
      6 N          -2.3458  -18.9145   21.4939 N.ar    1  UNL1       -0.3255
      7 C          -3.6495  -18.8048   21.7711 C.ar    1  UNL1        0.0755
      8 C          -4.3364  -17.7700   22.3899 C.ar    1  UNL1        0.0325
      9 C          -5.6943  -17.8802   22.5567 C.ar    1  UNL1        0.1401
     10 O          -6.2053  -16.7395   23.1396 O.3     1  UNL1       -0.4824
     11 C          -5.1677  -15.7908   23.4055 C.3     1  UNL1        0.1375
     12 C          -5.4640  -14.4959   22.6376 C.3     1  UNL1        0.0439
     13 C          -5.1128  -15.5180   24.9142 C.3     1  UNL1        0.0439
     14 C          -3.8478  -16.4642   22.8997 C.3     1  UNL1        0.0709
     15 H          -1.5803  -18.2354   21.7025 H       1  UNL1        0.1686
     16 N          -8.5087  -18.6726   23.5172 N.am    1  UNL1       -0.2802
     17 C          -7.8787  -19.1288   22.3104 C.2     1  UNL1        0.2525
     18 O          -8.5774  -19.6327   21.3890 O.2     1  UNL1       -0.2697
     19 H          -7.9267  -18.3529   24.3225 H       1  UNL1        0.1552
     20 C          -9.7898  -16.3155   22.3361 C.3     1  UNL1        0.0323
     21 C         -10.5699  -17.3851   23.0521 C.ar    1  UNL1       -0.0079
     22 C         -11.9587  -17.2377   23.1961 C.ar    1  UNL1        0.0008
     23 C         -12.7255  -18.2245   23.8368 C.ar    1  UNL1        0.0717
     24 C         -12.0790  -19.3440   24.3828 C.ar    1  UNL1        0.0110
     25 C         -10.6943  -19.4951   24.2644 C.ar    1  UNL1        0.0346
     26 S          -9.9125  -20.9453   24.9781 S.3     1  UNL1       -0.1402
     27 C          -9.9294  -18.5112   23.6145 C.ar    1  UNL1        0.0519
     28 H          -9.6933  -20.2904   26.2044 H       1  UNL1        0.1072
     29 C         -14.2111  -18.0363   24.0199 C.3     1  UNL1        0.4186
     30 F         -14.9107  -18.6357   22.9868 F       1  UNL1       -0.1659
     31 F         -14.4997  -16.6847   24.0348 F       1  UNL1       -0.1659
     32 F         -14.6336  -18.6007   25.2112 F       1  UNL1       -0.1659
     33 N          -1.0090  -20.6662   20.4326 N.pl3   1  UNL1       -0.2816
     34 H          -1.0375  -21.4725   19.7689 H       1  UNL1        0.1551
     35 C           0.2595  -20.0661   20.7383 C.ar    1  UNL1        0.0889
     36 C           1.2660  -20.8082   21.3865 C.ar    1  UNL1        0.1543
     37 F           1.0661  -22.1108   21.7099 F       1  UNL1       -0.2028
     38 C           2.5039  -20.2214   21.6654 C.ar    1  UNL1        0.0310
     39 C           2.7538  -18.8994   21.2928 C.ar    1  UNL1        0.0033
     40 C           1.7695  -18.1613   20.6325 C.ar    1  UNL1        0.0128
     41 C           0.5267  -18.7390   20.3473 C.ar    1  UNL1        0.0733
     42 CL         -0.6917  -17.7672   19.5319 Cl      1  UNL1       -0.0809
@<TRIPOS>BOND
     1    20    21    1
     2    21    22   ar
     3    22    23   ar
     4    23    29    1
     5    29    30    1
     6    29    31    1
     7    29    32    1
     8    23    24   ar
     9    24    25   ar
    10    25    26    1
    11    25    27   ar
    12    27    16    1
    13    16    17   am
    14    17    18    2
    15    17     1    1
    16     1     2   ar
    17     2     3   ar
    18     3     4   ar
    19     4     5   ar
    20     5    33    1
    21    33    35    1
    22    35    36   ar
    23    36    37    1
    24    36    38   ar
    25    38    39   ar
    26    39    40   ar
    27    40    41   ar
    28    41    42    1
    29     5     6   ar
    30     6     7   ar
    31     7     8   ar
    32     8     9   ar
    33     9    10    1
    34    10    11    1
    35    11    12    1
    36    11    13    1
    37    11    14    1
    38    27    21   ar
    39     9     1   ar
    40     7     3   ar
    41    14     8    1
    42    41    35   ar
    43    26    28    1
    44    16    19    1
    45    33    34    1
    46     6    15    1
@<TRIPOS>MOLECULE
*****
 42 46 0 0 0
SMALL
GASTEIGER

@<TRIPOS>ATOM
      1 C          -7.4473  -16.8761   22.9122 C.ar    1  UNL1        0.0888
      2 C          -6.9012  -17.2973   21.6694 C.ar    1  UNL1        0.0282
      3 C          -5.5063  -17.2949   21.5228 C.ar    1  UNL1        0.0997
      4 N          -4.7888  -17.6560   20.4442 N.ar    1  UNL1       -0.2137
      5 C          -3.5078  -17.4429   20.8552 C.ar    1  UNL1        0.1984
      6 N          -3.4029  -16.9829   22.1265 N.ar    1  UNL1       -0.3255
      7 C          -4.6751  -16.8942   22.5291 C.ar    1  UNL1        0.0755
      8 C          -5.1883  -16.4681   23.7460 C.ar    1  UNL1        0.0325
      9 C          -6.5490  -16.4539   23.9249 C.ar    1  UNL1        0.1401
     10 O          -6.8690  -15.9542   25.1699 O.3     1  UNL1       -0.4824
     11 C          -5.6894  -15.6126   25.9040 C.3     1  UNL1        0.1375
     12 C          -5.7258  -14.1166   26.2428 C.3     1  UNL1        0.0439
     13 C          -5.6375  -16.4512   27.1876 C.3     1  UNL1        0.0439
     14 C          -4.4934  -15.9527   24.9524 C.3     1  UNL1        0.0709
     15 H          -2.5367  -16.7541   22.6631 H       1  UNL1        0.1686
     16 N          -9.7097  -18.0170   22.8707 N.am    1  UNL1       -0.2802
     17 C          -8.9105  -16.8493   23.1137 C.2     1  UNL1        0.2525
     18 O          -9.4601  -15.7810   23.4979 O.2     1  UNL1       -0.2697
     19 H          -9.2765  -18.8700   22.4534 H       1  UNL1        0.1552
     20 C         -10.3439  -19.3646   25.3954 C.3     1  UNL1        0.0323
     21 C         -11.4024  -18.7484   24.5207 C.ar    1  UNL1       -0.0079
     22 C         -12.7496  -18.8507   24.9027 C.ar    1  UNL1        0.0008
     23 C         -13.7649  -18.2689   24.1264 C.ar    1  UNL1        0.0717
     24 C         -13.4232  -17.6240   22.9277 C.ar    1  UNL1        0.0110
     25 C         -12.0879  -17.5311   22.5244 C.ar    1  UNL1        0.0346
     26 S         -11.6999  -16.6951   20.9835 S.3     1  UNL1       -0.1402
     27 C         -11.0719  -18.1057   23.3074 C.ar    1  UNL1        0.0519
     28 H         -11.7946  -17.8912   20.2478 H       1  UNL1        0.1072
     29 C         -15.2117  -18.4192   24.5266 C.3     1  UNL1        0.4186
     30 F         -15.8619  -17.1981   24.4771 F       1  UNL1       -0.1659
     31 F         -15.2778  -18.9127   25.8160 F       1  UNL1       -0.1659
     32 F         -15.8677  -19.2919   23.6756 F       1  UNL1       -0.1659
     33 N          -2.3627  -17.7210   20.0396 N.pl3   1  UNL1       -0.2816
     34 H          -2.2786  -17.2197   19.1269 H       1  UNL1        0.1551
     35 C          -1.2675  -18.5365   20.4848 C.ar    1  UNL1        0.0889
     36 C          -1.5041  -19.7857   21.0910 C.ar    1  UNL1        0.1543
     37 F          -2.7687  -20.2540   21.2411 F       1  UNL1       -0.2028
     38 C          -0.4316  -20.5807   21.5063 C.ar    1  UNL1        0.0310
     39 C           0.8807  -20.1459   21.3124 C.ar    1  UNL1        0.0033
     40 C           1.1262  -18.9178   20.6950 C.ar    1  UNL1        0.0128
     41 C           0.0601  -18.1140   20.2743 C.ar    1  UNL1        0.0733
     42 CL          0.4138  -16.5653   19.5191 Cl      1  UNL1       -0.0809
@<TRIPOS>BOND
     1    20    21    1
     2    21    22   ar
     3    22    23   ar
     4    23    29    1
     5    29    30    1
     6    29    31    1
     7    29    32    1
     8    23    24   ar
     9    24    25   ar
    10    25    26    1
    11    25    27   ar
    12    27    16    1
    13    16    17   am
    14    17    18    2
    15    17     1    1
    16     1     2   ar
    17     2     3   ar
    18     3     4   ar
    19     4     5   ar
    20     5    33    1
    21    33    35    1
    22    35    36   ar
    23    36    37    1
    24    36    38   ar
    25    38    39   ar
    26    39    40   ar
    27    40    41   ar
    28    41    42    1
    29     5     6   ar
    30     6     7   ar
    31     7     8   ar
    32     8     9   ar
    33     9    10    1
    34    10    11    1
    35    11    12    1
    36    11    13    1
    37    11    14    1
    38    27    21   ar
    39     9     1   ar
    40     7     3   ar
    41    14     8    1
    42    41    35   ar
    43    26    28    1
    44    16    19    1
    45    33    34    1
    46     6    15    1
@<TRIPOS>MOLECULE
*****
 42 46 0 0 0
SMALL
GASTEIGER

@<TRIPOS>ATOM
      1 C          -6.0633  -16.1859   25.2342 C.ar    1  UNL1        0.0888
      2 C          -5.8782  -15.4876   26.4583 C.ar    1  UNL1        0.0282
      3 C          -7.0091  -14.9612   27.0995 C.ar    1  UNL1        0.0997
      4 N          -7.0590  -14.2775   28.2565 N.ar    1  UNL1       -0.2137
      5 C          -8.3882  -14.0092   28.3854 C.ar    1  UNL1        0.1984
      6 N          -9.1528  -14.4998   27.3787 N.ar    1  UNL1       -0.3255
      7 C          -8.2633  -15.0950   26.5767 C.ar    1  UNL1        0.0755
      8 C          -8.4645  -15.7626   25.3769 C.ar    1  UNL1        0.0325
      9 C          -7.3806  -16.2884   24.7193 C.ar    1  UNL1        0.1401
     10 O          -7.7691  -16.8648   23.5281 O.3     1  UNL1       -0.4824
     11 C          -9.1832  -16.7526   23.3414 C.3     1  UNL1        0.1375
     12 C          -9.4576  -15.9606   22.0562 C.3     1  UNL1        0.0439
     13 C          -9.7889  -18.1587   23.2435 C.3     1  UNL1        0.0439
     14 C          -9.7110  -15.9913   24.6038 C.3     1  UNL1        0.0709
     15 H         -10.1879  -14.4310   27.2589 H       1  UNL1        0.1686
     16 N          -4.9343  -16.9238   23.0889 N.am    1  UNL1       -0.2802
     17 C          -4.9034  -16.7493   24.5136 C.2     1  UNL1        0.2525
     18 O          -3.8774  -17.0864   25.1654 O.2     1  UNL1       -0.2697
     19 H          -5.8158  -16.7456   22.5590 H       1  UNL1        0.1552
     20 C          -4.2463  -19.7020   22.4564 C.3     1  UNL1        0.0323
     21 C          -3.3971  -18.5396   22.0171 C.ar    1  UNL1       -0.0079
     22 C          -2.2104  -18.7889   21.3094 C.ar    1  UNL1        0.0008
     23 C          -1.4028  -17.7309   20.8615 C.ar    1  UNL1        0.0717
     24 C          -1.7680  -16.4129   21.1756 C.ar    1  UNL1        0.0110
     25 C          -2.9366  -16.1500   21.8964 C.ar    1  UNL1        0.0346
     26 S          -3.3628  -14.4470   22.2729 S.3     1  UNL1       -0.1402
     27 C          -3.7489  -17.2095   22.3358 C.ar    1  UNL1        0.0519
     28 H          -2.6680  -14.4866   23.4962 H       1  UNL1        0.1072
     29 C          -0.1101  -18.0126   20.1364 C.3     1  UNL1        0.4186
     30 F          -0.2351  -19.1319   19.3316 F       1  UNL1       -0.1659
     31 F           0.8919  -18.2332   21.0625 F       1  UNL1       -0.1659
     32 F           0.2452  -16.9421   19.3340 F       1  UNL1       -0.1659
     33 N          -8.9453  -13.3109   29.5059 N.pl3   1  UNL1       -0.2816
     34 H          -9.1851  -13.8655   30.3582 H       1  UNL1        0.1551
     35 C          -9.0483  -11.8794   29.5601 C.ar    1  UNL1        0.0889
     36 C         -10.3017  -11.2462   29.4501 C.ar    1  UNL1        0.1543
     37 F         -11.4373  -11.9771   29.3181 F       1  UNL1       -0.2028
     38 C         -10.3948   -9.8531   29.5207 C.ar    1  UNL1        0.0310
     39 C          -9.2471   -9.0817   29.7120 C.ar    1  UNL1        0.0033
     40 C          -8.0023   -9.7008   29.8416 C.ar    1  UNL1        0.0128
     41 C          -7.8973  -11.0951   29.7734 C.ar    1  UNL1        0.0733
     42 CL         -6.3074  -11.8327   29.9216 Cl      1  UNL1       -0.0809
@<TRIPOS>BOND
     1    20    21    1
     2    21    22   ar
     3    22    23   ar
     4    23    29    1
     5    29    30    1
     6    29    31    1
     7    29    32    1
     8    23    24   ar
     9    24    25   ar
    10    25    26    1
    11    25    27   ar
    12    27    16    1
    13    16    17   am
    14    17    18    2
    15    17     1    1
    16     1     2   ar
    17     2     3   ar
    18     3     4   ar
    19     4     5   ar
    20     5    33    1
    21    33    35    1
    22    35    36   ar
    23    36    37    1
    24    36    38   ar
    25    38    39   ar
    26    39    40   ar
    27    40    41   ar
    28    41    42    1
    29     5     6   ar
    30     6     7   ar
    31     7     8   ar
    32     8     9   ar
    33     9    10    1
    34    10    11    1
    35    11    12    1
    36    11    13    1
    37    11    14    1
    38    27    21   ar
    39     9     1   ar
    40     7     3   ar
    41    14     8    1
    42    41    35   ar
    43    26    28    1
    44    16    19    1
    45    33    34    1
    46     6    15    1
@<TRIPOS>MOLECULE
*****
 42 46 0 0 0
SMALL
GASTEIGER

@<TRIPOS>ATOM
      1 C          -7.1765  -13.3895   28.1411 C.ar    1  UNL1        0.0888
      2 C          -8.4339  -13.9525   28.4907 C.ar    1  UNL1        0.0282
      3 C          -9.2013  -13.3053   29.4702 C.ar    1  UNL1        0.0997
      4 N         -10.4092  -13.6618   29.9418 N.ar    1  UNL1       -0.2137
      5 C         -10.6626  -12.6963   30.8686 C.ar    1  UNL1        0.1984
      6 N          -9.6830  -11.7654   30.9812 N.ar    1  UNL1       -0.3255
      7 C          -8.7692  -12.1691   30.0920 C.ar    1  UNL1        0.0755
      8 C          -7.5397  -11.6099   29.7739 C.ar    1  UNL1        0.0325
      9 C          -6.7596  -12.2176   28.8221 C.ar    1  UNL1        0.1401
     10 O          -5.5605  -11.5512   28.6803 O.3     1  UNL1       -0.4824
     11 C          -5.4945  -10.4225   29.5571 C.3     1  UNL1        0.1375
     12 C          -4.3016  -10.5947   30.5066 C.3     1  UNL1        0.0439
     13 C          -5.3330   -9.1467   28.7204 C.3     1  UNL1        0.0439
     14 C          -6.8507  -10.4229   30.3397 C.3     1  UNL1        0.0709
     15 H          -9.6504  -10.9323   31.6100 H       1  UNL1        0.1686
     16 N          -6.7327  -15.2627   26.4931 N.am    1  UNL1       -0.2802
     17 C          -6.3250  -14.0390   27.1236 C.2     1  UNL1        0.2525
     18 O          -5.2225  -13.5100   26.8140 O.2     1  UNL1       -0.2697
     19 H          -7.5909  -15.7589   26.8198 H       1  UNL1        0.1552
     20 C          -4.3236  -16.9071   26.7845 C.3     1  UNL1        0.0323
     21 C          -4.9106  -16.5654   25.4414 C.ar    1  UNL1       -0.0079
     22 C          -4.2656  -17.0163   24.2788 C.ar    1  UNL1        0.0008
     23 C          -4.7942  -16.7388   23.0077 C.ar    1  UNL1        0.0717
     24 C          -5.9542  -15.9555   22.9068 C.ar    1  UNL1        0.0110
     25 C          -6.5968  -15.4830   24.0549 C.ar    1  UNL1        0.0346
     26 S          -8.0789  -14.4857   23.8752 S.3     1  UNL1       -0.1402
     27 C          -6.0717  -15.7696   25.3268 C.ar    1  UNL1        0.0519
     28 H          -7.3368  -13.2901   23.8501 H       1  UNL1        0.1072
     29 C          -4.0710  -17.1951   21.7648 C.3     1  UNL1        0.4186
     30 F          -3.6251  -18.4976   21.9093 F       1  UNL1       -0.1659
     31 F          -2.9852  -16.3694   21.5416 F       1  UNL1       -0.1659
     32 F          -4.9088  -17.1458   20.6640 F       1  UNL1       -0.1659
     33 N         -11.8751  -12.6347   31.6299 N.pl3   1  UNL1       -0.2816
     34 H         -12.6313  -11.9962   31.2951 H       1  UNL1        0.1551
     35 C         -12.1481  -13.5113   32.7343 C.ar    1  UNL1        0.0889
     36 C         -13.1875  -14.4589   32.6573 C.ar    1  UNL1        0.1543
     37 F         -13.9321  -14.5796   31.5294 F       1  UNL1       -0.2028
     38 C         -13.4357  -15.3198   33.7305 C.ar    1  UNL1        0.0310
     39 C         -12.6474  -15.2530   34.8807 C.ar    1  UNL1        0.0033
     40 C         -11.6023  -14.3303   34.9593 C.ar    1  UNL1        0.0128
     41 C         -11.3441  -13.4640   33.8904 C.ar    1  UNL1        0.0733
     42 CL        -10.0307  -12.3036   34.0392 Cl      1  UNL1       -0.0809
@<TRIPOS>BOND
     1    20    21    1
     2    21    22   ar
     3    22    23   ar
     4    23    29    1
     5    29    30    1
     6    29    31    1
     7    29    32    1
     8    23    24   ar
     9    24    25   ar
    10    25    26    1
    11    25    27   ar
    12    27    16    1
    13    16    17   am
    14    17    18    2
    15    17     1    1
    16     1     2   ar
    17     2     3   ar
    18     3     4   ar
    19     4     5   ar
    20     5    33    1
    21    33    35    1
    22    35    36   ar
    23    36    37    1
    24    36    38   ar
    25    38    39   ar
    26    39    40   ar
    27    40    41   ar
    28    41    42    1
    29     5     6   ar
    30     6     7   ar
    31     7     8   ar
    32     8     9   ar
    33     9    10    1
    34    10    11    1
    35    11    12    1
    36    11    13    1
    37    11    14    1
    38    27    21   ar
    39     9     1   ar
    40     7     3   ar
    41    14     8    1
    42    41    35   ar
    43    26    28    1
    44    16    19    1
    45    33    34    1
    46     6    15    1
