@<TRIPOS>MOLECULE
*****
 52 59 0 0 0
SMALL
GASTEIGER

@<TRIPOS>ATOM
      1 N          58.9790   83.9168   10.1897 N.am    1  UNL1       -0.0906
      2 C          57.7503   83.3070   10.2924 C.2     1  UNL1        0.4229
      3 O          56.6955   83.9107    9.9498 O.2     1  UNL1       -0.2135
      4 C          57.6427   81.9959   10.7375 C.2     1  UNL1        0.1157
      5 C          58.7867   81.2588   10.9877 C.2     1  UNL1        0.0169
      6 C          60.0535   81.8564   10.8863 C.ar    1  UNL1        0.0773
      7 C          61.2492   81.1062   11.0403 C.ar    1  UNL1        0.0642
      8 N          62.4392   81.7578   11.0407 N.ar    1  UNL1       -0.2493
      9 C          62.5488   83.1006   10.9296 C.ar    1  UNL1        0.0866
     10 C          63.8170   83.6817   11.0157 C.ar    1  UNL1        0.0193
     11 C          63.9574   85.0668   11.0329 C.ar    1  UNL1        0.0016
     12 C          62.8242   85.8912   11.0130 C.ar    1  UNL1        0.0018
     13 C          61.5507   85.3017   10.9195 C.ar    1  UNL1        0.0075
     14 C          61.3938   83.9026   10.7830 C.ar    1  UNL1        0.0810
     15 C          60.1262   83.2559   10.6161 C.ar    1  UNL1        0.2293
     16 C          62.9643   87.3670   11.1048 C.ar    1  UNL1        0.0192
     17 C          62.7006   88.1803    9.9894 C.ar    1  UNL1        0.0988
     18 N          62.8313   89.5303   10.0725 N.ar    1  UNL1       -0.2438
     19 C          63.2141   90.1442   11.2222 C.ar    1  UNL1        0.0813
     20 C          63.3349   91.5378   11.2680 C.ar    1  UNL1        0.0191
     21 C          63.7282   92.1667   12.4535 C.ar    1  UNL1        0.0015
     22 C          64.0016   91.4066   13.5955 C.ar    1  UNL1        0.0001
     23 C          63.8838   90.0133   13.5585 C.ar    1  UNL1        0.0015
     24 C          63.4907   89.3744   12.3726 C.ar    1  UNL1        0.0177
     25 C          63.3634   87.9815   12.3042 C.ar    1  UNL1        0.0030
     26 C          59.4712   88.8701   10.0149 C.3     1  UNL1        0.0312
     27 C          59.2769   87.5649    9.2883 C.ar    1  UNL1       -0.0159
     28 C          59.2344   86.3772   10.0373 C.ar    1  UNL1        0.0648
     29 C          59.0443   85.1348    9.4100 C.ar    1  UNL1        0.2268
     30 C          58.8888   85.0869    8.0185 C.ar    1  UNL1        0.0691
     31 C          58.9490   86.2561    7.2605 C.ar    1  UNL1        0.0058
     32 C          59.1587   87.5008    7.8768 C.ar    1  UNL1       -0.0036
     33 C          59.2547   88.7064    7.0208 C.ar    1  UNL1       -0.0003
     34 C          60.5038   89.2914    6.7663 C.ar    1  UNL1        0.0001
     35 C          60.6000   90.4407    5.9765 C.ar    1  UNL1        0.0045
     36 C          59.4447   91.0354    5.4378 C.ar    1  UNL1        0.0534
     37 C          58.1947   90.4454    5.6950 C.ar    1  UNL1        0.0045
     38 C          58.1004   89.2967    6.4847 C.ar    1  UNL1        0.0001
     39 C          59.5316   92.2519    4.5945 C.2     1  UNL1        0.2458
     40 O          58.9175   93.2953    4.9500 O.2     1  UNL1       -0.2701
     41 N          60.3180   92.2648    3.3913 N.am    1  UNL1       -0.3024
     42 H          61.0344   91.5170    3.2513 H       1  UNL1        0.1497
     43 C          60.3429   93.4175    2.4873 C.3     1  UNL1        0.0746
     44 C          61.7784   93.6823    2.0193 C.3     1  UNL1        0.0369
     45 C          61.8149   94.8273    0.9942 C.3     1  UNL1        0.0738
     46 N          60.9080   94.6008   -0.1512 N.3     1  UNL1       -0.2714
     47 C          61.4264   93.5949   -1.0940 C.3     1  UNL1        0.0896
     48 C          59.5204   94.3198    0.2752 C.3     1  UNL1        0.0738
     49 C          59.4304   93.1611    1.2813 C.3     1  UNL1        0.0369
     50 C          61.2647   79.5972   11.2449 C.3     1  UNL1        0.0405
     51 C          62.1555   78.8888   10.2124 C.3     1  UNL1        0.0063
     52 C          61.7330   79.2635   12.6654 C.3     1  UNL1        0.0063
@<TRIPOS>BOND
     1    26    27    1
     2    27    28   ar
     3    28    29   ar
     4    29     1    1
     5     1     2    1
     6     2     3    2
     7     2     4    1
     8     4     5    2
     9     5     6    1
    10     6     7   ar
    11     7    50    1
    12    50    51    1
    13    50    52    1
    14     7     8   ar
    15     8     9   ar
    16     9    10   ar
    17    10    11   ar
    18    11    12   ar
    19    12    16    1
    20    16    17   ar
    21    17    18   ar
    22    18    19   ar
    23    19    20   ar
    24    20    21   ar
    25    21    22   ar
    26    22    23   ar
    27    23    24   ar
    28    24    25   ar
    29    12    13   ar
    30    13    14   ar
    31    14    15   ar
    32    29    30   ar
    33    30    31   ar
    34    31    32   ar
    35    32    33    1
    36    33    34   ar
    37    34    35   ar
    38    35    36   ar
    39    36    39    1
    40    39    40    2
    41    39    41   am
    42    41    43    1
    43    43    44    1
    44    44    45    1
    45    45    46    1
    46    46    47    1
    47    46    48    1
    48    48    49    1
    49    36    37   ar
    50    37    38   ar
    51    32    27   ar
    52    38    33   ar
    53    15     1    1
    54    49    43    1
    55    15     6   ar
    56    14     9   ar
    57    25    16   ar
    58    24    19   ar
    59    41    42    1
@<TRIPOS>MOLECULE
*****
 52 59 0 0 0
SMALL
GASTEIGER

@<TRIPOS>ATOM
      1 N          59.0887   85.1478   10.1139 N.am    1  UNL1       -0.0906
      2 C          58.0869   85.5102    9.2438 C.2     1  UNL1        0.4229
      3 O          57.8303   86.7261    9.0198 O.2     1  UNL1       -0.2135
      4 C          57.3587   84.5471    8.5576 C.2     1  UNL1        0.1157
      5 C          57.7054   83.2125    8.6717 C.2     1  UNL1        0.0169
      6 C          58.7271   82.8162    9.5500 C.ar    1  UNL1        0.0773
      7 C          59.1738   81.4701    9.6195 C.ar    1  UNL1        0.0642
      8 N          60.0860   81.1276   10.5636 N.ar    1  UNL1       -0.2493
      9 C          60.5777   82.0014   11.4703 C.ar    1  UNL1        0.0866
     10 C          61.4582   81.5315   12.4489 C.ar    1  UNL1        0.0193
     11 C          61.8856   82.3716   13.4736 C.ar    1  UNL1        0.0016
     12 C          61.3984   83.6828   13.5607 C.ar    1  UNL1        0.0018
     13 C          60.5180   84.1528   12.5697 C.ar    1  UNL1        0.0075
     14 C          60.1644   83.3533   11.4578 C.ar    1  UNL1        0.0810
     15 C          59.3272   83.8048   10.3863 C.ar    1  UNL1        0.2293
     16 C          61.7937   84.5599   14.6922 C.ar    1  UNL1        0.0192
     17 C          62.1038   84.0099   15.9478 C.ar    1  UNL1        0.0988
     18 N          62.4630   84.8125   16.9839 N.ar    1  UNL1       -0.2438
     19 C          62.5399   86.1623   16.8521 C.ar    1  UNL1        0.0813
     20 C          62.9160   86.9544   17.9428 C.ar    1  UNL1        0.0191
     21 C          62.9952   88.3436   17.8034 C.ar    1  UNL1        0.0015
     22 C          62.6996   88.9452   16.5756 C.ar    1  UNL1        0.0001
     23 C          62.3225   88.1611   15.4803 C.ar    1  UNL1        0.0015
     24 C          62.2395   86.7665   15.6122 C.ar    1  UNL1        0.0177
     25 C          61.8654   85.9546   14.5342 C.ar    1  UNL1        0.0030
     26 C          60.0101   89.2720   12.7502 C.3     1  UNL1        0.0312
     27 C          60.4976   88.2129   11.7963 C.ar    1  UNL1       -0.0159
     28 C          59.6122   87.1909   11.4153 C.ar    1  UNL1        0.0648
     29 C          60.0129   86.1855   10.5199 C.ar    1  UNL1        0.2268
     30 C          61.3128   86.2116    9.9979 C.ar    1  UNL1        0.0691
     31 C          62.2085   87.2089   10.3832 C.ar    1  UNL1        0.0058
     32 C          61.8232   88.2070   11.2933 C.ar    1  UNL1       -0.0036
     33 C          62.8264   89.2189   11.6995 C.ar    1  UNL1       -0.0003
     34 C          63.5396   89.0617   12.8970 C.ar    1  UNL1        0.0001
     35 C          64.4729   90.0226   13.2969 C.ar    1  UNL1        0.0045
     36 C          64.6995   91.1676   12.5120 C.ar    1  UNL1        0.0534
     37 C          63.9828   91.3208   11.3122 C.ar    1  UNL1        0.0045
     38 C          63.0504   90.3595   10.9141 C.ar    1  UNL1        0.0001
     39 C          65.6895   92.1929   12.9211 C.2     1  UNL1        0.2458
     40 O          65.7306   93.2929   12.3043 O.2     1  UNL1       -0.2701
     41 N          66.5878   91.9592   14.0187 N.am    1  UNL1       -0.3024
     42 H          66.3693   91.1902   14.6918 H       1  UNL1        0.1497
     43 C          67.6412   92.9106   14.3816 C.3     1  UNL1        0.0746
     44 C          67.4641   93.3541   15.8382 C.3     1  UNL1        0.0369
     45 C          68.6142   94.2783   16.2700 C.3     1  UNL1        0.0738
     46 N          69.9468   93.6776   16.0481 N.3     1  UNL1       -0.2714
     47 C          70.2696   92.6341   17.0361 C.3     1  UNL1        0.0896
     48 C          70.1339   93.2200   14.6546 C.3     1  UNL1        0.0738
     49 C          69.0208   92.2690   14.1863 C.3     1  UNL1        0.0369
     50 C          58.6495   80.3708    8.7053 C.3     1  UNL1        0.0405
     51 C          57.5349   79.5523    9.3753 C.3     1  UNL1        0.0063
     52 C          58.1446   80.9757    7.3909 C.3     1  UNL1        0.0063
@<TRIPOS>BOND
     1    26    27    1
     2    27    28   ar
     3    28    29   ar
     4    29     1    1
     5     1     2    1
     6     2     3    2
     7     2     4    1
     8     4     5    2
     9     5     6    1
    10     6     7   ar
    11     7    50    1
    12    50    51    1
    13    50    52    1
    14     7     8   ar
    15     8     9   ar
    16     9    10   ar
    17    10    11   ar
    18    11    12   ar
    19    12    16    1
    20    16    17   ar
    21    17    18   ar
    22    18    19   ar
    23    19    20   ar
    24    20    21   ar
    25    21    22   ar
    26    22    23   ar
    27    23    24   ar
    28    24    25   ar
    29    12    13   ar
    30    13    14   ar
    31    14    15   ar
    32    29    30   ar
    33    30    31   ar
    34    31    32   ar
    35    32    33    1
    36    33    34   ar
    37    34    35   ar
    38    35    36   ar
    39    36    39    1
    40    39    40    2
    41    39    41   am
    42    41    43    1
    43    43    44    1
    44    44    45    1
    45    45    46    1
    46    46    47    1
    47    46    48    1
    48    48    49    1
    49    36    37   ar
    50    37    38   ar
    51    32    27   ar
    52    38    33   ar
    53    15     1    1
    54    49    43    1
    55    15     6   ar
    56    14     9   ar
    57    25    16   ar
    58    24    19   ar
    59    41    42    1
@<TRIPOS>MOLECULE
*****
 52 59 0 0 0
SMALL
GASTEIGER

@<TRIPOS>ATOM
      1 N          59.5190   83.5656   11.9301 N.am    1  UNL1       -0.0906
      2 C          58.3157   82.9079   12.0381 C.2     1  UNL1        0.4229
      3 O          57.2624   83.3959   11.5414 O.2     1  UNL1       -0.2135
      4 C          58.2363   81.6693   12.6613 C.2     1  UNL1        0.1157
      5 C          59.3915   81.0413   13.0922 C.2     1  UNL1        0.0169
      6 C          60.6332   81.6893   12.9899 C.ar    1  UNL1        0.0773
      7 C          61.8477   81.0376   13.3312 C.ar    1  UNL1        0.0642
      8 N          63.0028   81.7491   13.3163 N.ar    1  UNL1       -0.2493
      9 C          63.0578   83.0665   13.0183 C.ar    1  UNL1        0.0866
     10 C          64.2878   83.7250   13.1034 C.ar    1  UNL1        0.0193
     11 C          64.3619   85.1041   12.9279 C.ar    1  UNL1        0.0016
     12 C          63.1963   85.8518   12.7122 C.ar    1  UNL1        0.0018
     13 C          61.9621   85.1837   12.6206 C.ar    1  UNL1        0.0075
     14 C          61.8809   83.7727   12.6794 C.ar    1  UNL1        0.0810
     15 C          60.6607   83.0381   12.5240 C.ar    1  UNL1        0.2293
     16 C          63.2604   87.3311   12.5972 C.ar    1  UNL1        0.0192
     17 C          62.5641   87.9990   11.5752 C.ar    1  UNL1        0.0988
     18 N          62.6248   89.3523   11.4683 N.ar    1  UNL1       -0.2438
     19 C          63.3485   90.1083   12.3342 C.ar    1  UNL1        0.0813
     20 C          63.3838   91.5001   12.1918 C.ar    1  UNL1        0.0191
     21 C          64.1290   92.2755   13.0856 C.ar    1  UNL1        0.0015
     22 C          64.8403   91.6640   14.1233 C.ar    1  UNL1        0.0001
     23 C          64.8109   90.2735   14.2728 C.ar    1  UNL1        0.0015
     24 C          64.0665   89.4881   13.3795 C.ar    1  UNL1        0.0177
     25 C          64.0169   88.0941   13.5033 C.ar    1  UNL1        0.0030
     26 C          61.1401   85.3897    7.5881 C.3     1  UNL1        0.0312
     27 C          60.3691   85.5909    8.8665 C.ar    1  UNL1       -0.0159
     28 C          60.2827   84.5236    9.7758 C.ar    1  UNL1        0.0648
     29 C          59.5854   84.6622   10.9873 C.ar    1  UNL1        0.2268
     30 C          58.9754   85.8865   11.2902 C.ar    1  UNL1        0.0691
     31 C          59.0362   86.9481   10.3877 C.ar    1  UNL1        0.0058
     32 C          59.7142   86.8126    9.1650 C.ar    1  UNL1       -0.0036
     33 C          59.7136   87.9582    8.2254 C.ar    1  UNL1       -0.0003
     34 C          58.8976   87.9327    7.0847 C.ar    1  UNL1        0.0001
     35 C          58.9069   89.0008    6.1831 C.ar    1  UNL1        0.0045
     36 C          59.7452   90.1097    6.3988 C.ar    1  UNL1        0.0534
     37 C          60.5610   90.1314    7.5436 C.ar    1  UNL1        0.0045
     38 C          60.5504   89.0628    8.4437 C.ar    1  UNL1        0.0001
     39 C          59.7624   91.2520    5.4535 C.2     1  UNL1        0.2458
     40 O          58.7877   92.0531    5.4346 O.2     1  UNL1       -0.2701
     41 N          60.8785   91.4693    4.5740 N.am    1  UNL1       -0.3024
     42 H          61.7832   90.9897    4.7825 H       1  UNL1        0.1497
     43 C          60.8801   92.5285    3.5619 C.3     1  UNL1        0.0746
     44 C          62.1078   92.3821    2.6557 C.3     1  UNL1        0.0369
     45 C          62.0792   93.4250    1.5267 C.3     1  UNL1        0.0738
     46 N          60.8250   93.3893    0.7445 N.3     1  UNL1       -0.2714
     47 C          60.7607   92.2371   -0.1707 C.3     1  UNL1        0.0896
     48 C          59.6241   93.5054    1.5992 C.3     1  UNL1        0.0738
     49 C          59.5942   92.4625    2.7281 C.3     1  UNL1        0.0369
     50 C          61.9180   79.5764   13.7541 C.3     1  UNL1        0.0405
     51 C          62.2547   78.6540   12.5720 C.3     1  UNL1        0.0063
     52 C          62.9509   79.4013   14.8725 C.3     1  UNL1        0.0063
@<TRIPOS>BOND
     1    26    27    1
     2    27    28   ar
     3    28    29   ar
     4    29     1    1
     5     1     2    1
     6     2     3    2
     7     2     4    1
     8     4     5    2
     9     5     6    1
    10     6     7   ar
    11     7    50    1
    12    50    51    1
    13    50    52    1
    14     7     8   ar
    15     8     9   ar
    16     9    10   ar
    17    10    11   ar
    18    11    12   ar
    19    12    16    1
    20    16    17   ar
    21    17    18   ar
    22    18    19   ar
    23    19    20   ar
    24    20    21   ar
    25    21    22   ar
    26    22    23   ar
    27    23    24   ar
    28    24    25   ar
    29    12    13   ar
    30    13    14   ar
    31    14    15   ar
    32    29    30   ar
    33    30    31   ar
    34    31    32   ar
    35    32    33    1
    36    33    34   ar
    37    34    35   ar
    38    35    36   ar
    39    36    39    1
    40    39    40    2
    41    39    41   am
    42    41    43    1
    43    43    44    1
    44    44    45    1
    45    45    46    1
    46    46    47    1
    47    46    48    1
    48    48    49    1
    49    36    37   ar
    50    37    38   ar
    51    32    27   ar
    52    38    33   ar
    53    15     1    1
    54    49    43    1
    55    15     6   ar
    56    14     9   ar
    57    25    16   ar
    58    24    19   ar
    59    41    42    1
