@<TRIPOS>MOLECULE
*****
 39 43 0 0 0
SMALL
GASTEIGER

@<TRIPOS>ATOM
      1 C         -21.1437   -9.3574  -11.8366 C.2     1  UNL1        0.2506
      2 O         -20.7925   -8.7917  -12.9079 O.2     1  UNL1       -0.2699
      3 N         -22.5102   -9.2490  -11.3834 N.am    1  UNL1       -0.2680
      4 C         -22.8136   -9.1044   -9.9575 C.3     1  UNL1        0.1412
      5 C         -22.4580   -7.6918   -9.4950 C.3     1  UNL1        0.2268
      6 O         -22.4284   -6.7652  -10.5819 O.3     1  UNL1       -0.4739
      7 C         -23.5155   -6.5244  -11.4309 C.ar    1  UNL1        0.1362
      8 C         -24.0089   -5.2175  -11.4925 C.ar    1  UNL1        0.0366
      9 C         -25.0913   -4.9001  -12.3120 C.ar    1  UNL1        0.0031
     10 C         -25.6985   -5.8875  -13.1015 C.ar    1  UNL1       -0.0000
     11 C         -25.1909   -7.1972  -13.0626 C.ar    1  UNL1        0.0004
     12 C         -24.0999   -7.5342  -12.2420 C.ar    1  UNL1        0.0317
     13 C         -23.5860   -8.9599  -12.3356 C.3     1  UNL1        0.1236
     14 C         -26.8527   -5.5519  -13.9734 C.ar    1  UNL1        0.0015
     15 C         -28.0634   -6.2942  -13.8819 C.ar    1  UNL1        0.0016
     16 C         -29.1639   -5.9843  -14.7028 C.ar    1  UNL1        0.0206
     17 C         -29.0252   -4.9339  -15.6034 C.ar    1  UNL1        0.0981
     18 N         -29.9419   -4.4669  -16.4701 N.ar    1  UNL1       -0.2312
     19 C         -29.2779   -3.4538  -17.0882 C.ar    1  UNL1        0.1170
     20 N         -28.0137   -3.2712  -16.6330 N.ar    1  UNL1       -0.3408
     21 C         -27.8713   -4.2181  -15.6982 C.ar    1  UNL1        0.0753
     22 C         -26.7603   -4.4883  -14.9043 C.ar    1  UNL1        0.0185
     23 H         -27.3174   -2.5531  -16.9336 H       1  UNL1        0.1671
     24 C         -29.9122   -2.5758  -18.1211 C.3     1  UNL1        0.0637
     25 C         -28.8835   -2.1393  -19.1572 C.3     1  UNL1        0.0084
     26 C         -20.0874  -11.5066  -11.0202 C.ar    1  UNL1        0.0503
     27 C         -19.1244  -12.1447  -10.2145 C.ar    1  UNL1        0.0328
     28 C         -18.2121  -11.3979   -9.4600 C.ar    1  UNL1        0.1069
     29 C         -18.2403  -10.0019   -9.5222 C.ar    1  UNL1        0.0186
     30 C         -19.1889   -9.3540  -10.3130 C.ar    1  UNL1        0.0071
     31 C         -20.1273  -10.0912  -11.0516 C.ar    1  UNL1        0.0667
     32 S         -17.0026  -12.2184   -8.4785 S.O2    1  UNL1        0.0105
     33 C         -15.4361  -12.1787   -9.3185 C.3     1  UNL1        0.1816
     34 O         -16.8740  -11.5359   -7.1455 O.2     1  UNL1       -0.1686
     35 O         -17.4176  -13.6451   -8.2516 O.2     1  UNL1       -0.1686
     36 N         -20.9821  -12.2801  -11.8460 N.pl3   1  UNL1       -0.3325
     37 H         -22.0050  -12.2732  -11.6335 H       1  UNL1        0.1468
     38 C         -21.4246  -12.7585  -14.2081 C.3     1  UNL1        0.0229
     39 C         -20.5526  -13.0708  -12.9984 C.3     1  UNL1        0.0871
@<TRIPOS>BOND
     1    38    39    1
     2    39    36    1
     3    36    26    1
     4    26    27   ar
     5    27    28   ar
     6    28    32    1
     7    32    33    1
     8    32    34    2
     9    32    35    2
    10    28    29   ar
    11    29    30   ar
    12    30    31   ar
    13    31     1    1
    14     1     2    2
    15     1     3   am
    16     3     4    1
    17     4     5    1
    18     5     6    1
    19     6     7    1
    20     7     8   ar
    21     8     9   ar
    22     9    10   ar
    23    10    14    1
    24    14    15   ar
    25    15    16   ar
    26    16    17   ar
    27    17    18   ar
    28    18    19   ar
    29    19    24    1
    30    24    25    1
    31    19    20   ar
    32    20    21   ar
    33    21    22   ar
    34    10    11   ar
    35    11    12   ar
    36    12    13    1
    37    31    26   ar
    38    13     3    1
    39    12     7   ar
    40    22    14   ar
    41    21    17   ar
    42    36    37    1
    43    20    23    1
@<TRIPOS>MOLECULE
*****
 39 43 0 0 0
SMALL
GASTEIGER

@<TRIPOS>ATOM
      1 C         -21.7136   -8.8102  -12.2777 C.2     1  UNL1        0.2506
      2 O         -21.2794   -7.6780  -12.6252 O.2     1  UNL1       -0.2699
      3 N         -23.0909   -9.1592  -12.5343 N.am    1  UNL1       -0.2680
      4 C         -23.8575   -9.9366  -11.5574 C.3     1  UNL1        0.1412
      5 C         -24.2143   -9.0544  -10.3615 C.3     1  UNL1        0.2268
      6 O         -24.1899   -7.6656  -10.6957 O.3     1  UNL1       -0.4739
      7 C         -24.9629   -7.0952  -11.7144 C.ar    1  UNL1        0.1362
      8 C         -25.8584   -6.0832  -11.3550 C.ar    1  UNL1        0.0366
      9 C         -26.6649   -5.4694  -12.3124 C.ar    1  UNL1        0.0031
     10 C         -26.5827   -5.8491  -13.6600 C.ar    1  UNL1       -0.0000
     11 C         -25.6666   -6.8479  -14.0308 C.ar    1  UNL1        0.0004
     12 C         -24.8457   -7.4769  -13.0781 C.ar    1  UNL1        0.0317
     13 C         -23.8396   -8.4874  -13.6000 C.3     1  UNL1        0.1236
     14 C         -27.4423   -5.1979  -14.6808 C.ar    1  UNL1        0.0015
     15 C         -28.8575   -5.3373  -14.6247 C.ar    1  UNL1        0.0016
     16 C         -29.6819   -4.7239  -15.5865 C.ar    1  UNL1        0.0206
     17 C         -29.0668   -3.9828  -16.5895 C.ar    1  UNL1        0.0981
     18 N         -29.6559   -3.3134  -17.5967 N.ar    1  UNL1       -0.2312
     19 C         -28.5950   -2.7832  -18.2622 C.ar    1  UNL1        0.1170
     20 N         -27.3956   -3.0820  -17.7047 N.ar    1  UNL1       -0.3408
     21 C         -27.7141   -3.8437  -16.6514 C.ar    1  UNL1        0.0753
     22 C         -26.8620   -4.4303  -15.7201 C.ar    1  UNL1        0.0185
     23 H         -26.4459   -2.7800  -18.0173 H       1  UNL1        0.1671
     24 C         -28.7455   -1.8912  -19.4545 C.3     1  UNL1        0.0637
     25 C         -27.6463   -2.1691  -20.4728 C.3     1  UNL1        0.0084
     26 C         -19.8932   -9.2928  -10.5882 C.ar    1  UNL1        0.0503
     27 C         -19.0160  -10.2218   -9.9956 C.ar    1  UNL1        0.0328
     28 C         -19.0402  -11.5703  -10.3698 C.ar    1  UNL1        0.1069
     29 C         -19.9601  -12.0075  -11.3271 C.ar    1  UNL1        0.0186
     30 C         -20.8340  -11.1004  -11.9256 C.ar    1  UNL1        0.0071
     31 C         -20.8000   -9.7406  -11.5797 C.ar    1  UNL1        0.0667
     32 S         -17.9498  -12.7170   -9.5980 S.O2    1  UNL1        0.0105
     33 C         -16.5381  -11.8473   -8.9561 C.3     1  UNL1        0.1816
     34 O         -18.6573  -13.4222   -8.4749 O.2     1  UNL1       -0.1686
     35 O         -17.4984  -13.7406  -10.6017 O.2     1  UNL1       -0.1686
     36 N         -19.9095   -7.9178  -10.1525 N.pl3   1  UNL1       -0.3325
     37 H         -19.3467   -7.2108  -10.6770 H       1  UNL1        0.1468
     38 C         -21.4330   -6.1524   -9.3997 C.3     1  UNL1        0.0229
     39 C         -20.6930   -7.4288   -9.0191 C.3     1  UNL1        0.0871
@<TRIPOS>BOND
     1    38    39    1
     2    39    36    1
     3    36    26    1
     4    26    27   ar
     5    27    28   ar
     6    28    32    1
     7    32    33    1
     8    32    34    2
     9    32    35    2
    10    28    29   ar
    11    29    30   ar
    12    30    31   ar
    13    31     1    1
    14     1     2    2
    15     1     3   am
    16     3     4    1
    17     4     5    1
    18     5     6    1
    19     6     7    1
    20     7     8   ar
    21     8     9   ar
    22     9    10   ar
    23    10    14    1
    24    14    15   ar
    25    15    16   ar
    26    16    17   ar
    27    17    18   ar
    28    18    19   ar
    29    19    24    1
    30    24    25    1
    31    19    20   ar
    32    20    21   ar
    33    21    22   ar
    34    10    11   ar
    35    11    12   ar
    36    12    13    1
    37    31    26   ar
    38    13     3    1
    39    12     7   ar
    40    22    14   ar
    41    21    17   ar
    42    36    37    1
    43    20    23    1
@<TRIPOS>MOLECULE
*****
 39 43 0 0 0
SMALL
GASTEIGER

@<TRIPOS>ATOM
      1 C         -21.4592   -9.0429  -11.1714 C.2     1  UNL1        0.2506
      2 O         -21.8847   -8.1597  -10.3776 O.2     1  UNL1       -0.2699
      3 N         -22.0152   -9.1400  -12.5003 N.am    1  UNL1       -0.2680
      4 C         -22.2394  -10.4480  -13.1209 C.3     1  UNL1        0.1412
      5 C         -23.4464  -11.1262  -12.4736 C.3     1  UNL1        0.2268
      6 O         -24.3199  -10.1823  -11.8516 O.3     1  UNL1       -0.4739
      7 C         -24.9196   -9.1123  -12.5269 C.ar    1  UNL1        0.1362
      8 C         -26.3168   -9.0588  -12.5393 C.ar    1  UNL1        0.0366
      9 C         -26.9867   -8.0261  -13.1939 C.ar    1  UNL1        0.0031
     10 C         -26.2678   -7.0121  -13.8435 C.ar    1  UNL1       -0.0000
     11 C         -24.8635   -7.0470  -13.8129 C.ar    1  UNL1        0.0004
     12 C         -24.1721   -8.0810  -13.1571 C.ar    1  UNL1        0.0317
     13 C         -22.6576   -7.9785  -13.1216 C.3     1  UNL1        0.1236
     14 C         -26.9796   -5.9124  -14.5430 C.ar    1  UNL1        0.0015
     15 C         -26.2622   -5.0011  -15.3677 C.ar    1  UNL1        0.0016
     16 C         -26.9266   -3.9556  -16.0359 C.ar    1  UNL1        0.0206
     17 C         -28.3016   -3.8446  -15.8602 C.ar    1  UNL1        0.0981
     18 N         -29.1295   -2.9341  -16.4034 N.ar    1  UNL1       -0.2312
     19 C         -30.3395   -3.2921  -15.8961 C.ar    1  UNL1        0.1170
     20 N         -30.2926   -4.3791  -15.0869 N.ar    1  UNL1       -0.3408
     21 C         -28.9963   -4.7114  -15.0735 C.ar    1  UNL1        0.0753
     22 C         -28.3802   -5.7605  -14.3972 C.ar    1  UNL1        0.0185
     23 H         -31.0839   -4.8531  -14.5970 H       1  UNL1        0.1671
     24 C         -31.6128   -2.5947  -16.2594 C.3     1  UNL1        0.0637
     25 C         -31.5615   -2.1036  -17.7011 C.3     1  UNL1        0.0084
     26 C         -19.4046   -9.5830   -9.7973 C.ar    1  UNL1        0.0503
     27 C         -18.4156  -10.5141   -9.4252 C.ar    1  UNL1        0.0328
     28 C         -18.4337  -11.8195   -9.9297 C.ar    1  UNL1        0.1069
     29 C         -19.4572  -12.2134  -10.7962 C.ar    1  UNL1        0.0186
     30 C         -20.4430  -11.3034  -11.1768 C.ar    1  UNL1        0.0071
     31 C         -20.4195   -9.9834  -10.7004 C.ar    1  UNL1        0.0667
     32 S         -17.1997  -12.9722   -9.4316 S.O2    1  UNL1        0.0105
     33 C         -15.7611  -12.0902   -8.8714 C.3     1  UNL1        0.1816
     34 O         -17.7232  -13.8358   -8.3183 O.2     1  UNL1       -0.1686
     35 O         -16.8314  -13.8529  -10.5926 O.2     1  UNL1       -0.1686
     36 N         -19.4192   -8.2594   -9.2240 N.pl3   1  UNL1       -0.3325
     37 H         -19.0091   -7.4655   -9.7655 H       1  UNL1        0.1468
     38 C         -19.0232   -8.2888   -6.8060 C.3     1  UNL1        0.0229
     39 C         -20.0007   -7.9392   -7.9213 C.3     1  UNL1        0.0871
@<TRIPOS>BOND
     1    38    39    1
     2    39    36    1
     3    36    26    1
     4    26    27   ar
     5    27    28   ar
     6    28    32    1
     7    32    33    1
     8    32    34    2
     9    32    35    2
    10    28    29   ar
    11    29    30   ar
    12    30    31   ar
    13    31     1    1
    14     1     2    2
    15     1     3   am
    16     3     4    1
    17     4     5    1
    18     5     6    1
    19     6     7    1
    20     7     8   ar
    21     8     9   ar
    22     9    10   ar
    23    10    14    1
    24    14    15   ar
    25    15    16   ar
    26    16    17   ar
    27    17    18   ar
    28    18    19   ar
    29    19    24    1
    30    24    25    1
    31    19    20   ar
    32    20    21   ar
    33    21    22   ar
    34    10    11   ar
    35    11    12   ar
    36    12    13    1
    37    31    26   ar
    38    13     3    1
    39    12     7   ar
    40    22    14   ar
    41    21    17   ar
    42    36    37    1
    43    20    23    1
@<TRIPOS>MOLECULE
*****
 39 43 0 0 0
SMALL
GASTEIGER

@<TRIPOS>ATOM
      1 C         -22.0566   -8.4424   -9.3732 C.2     1  UNL1        0.2506
      2 O         -22.9602   -9.3142   -9.4945 O.2     1  UNL1       -0.2699
      3 N         -22.1579   -7.1993  -10.1003 N.am    1  UNL1       -0.2680
      4 C         -20.9655   -6.5739  -10.6777 C.3     1  UNL1        0.1412
      5 C         -20.5175   -7.3579  -11.9108 C.3     1  UNL1        0.2268
      6 O         -21.5844   -8.1226  -12.4746 O.3     1  UNL1       -0.4739
      7 C         -22.7947   -7.5693  -12.9100 C.ar    1  UNL1        0.1362
      8 C         -23.1403   -7.7492  -14.2529 C.ar    1  UNL1        0.0366
      9 C         -24.3277   -7.2248  -14.7617 C.ar    1  UNL1        0.0031
     10 C         -25.2057   -6.5157  -13.9292 C.ar    1  UNL1       -0.0000
     11 C         -24.8757   -6.3535  -12.5731 C.ar    1  UNL1        0.0004
     12 C         -23.6825   -6.8761  -12.0436 C.ar    1  UNL1        0.0317
     13 C         -23.4632   -6.7082  -10.5506 C.3     1  UNL1        0.1236
     14 C         -26.4699   -5.9547  -14.4698 C.ar    1  UNL1        0.0015
     15 C         -27.7266   -6.4351  -14.0059 C.ar    1  UNL1        0.0016
     16 C         -28.9310   -5.9103  -14.5108 C.ar    1  UNL1        0.0206
     17 C         -28.8491   -4.9124  -15.4758 C.ar    1  UNL1        0.0981
     18 N         -29.8630   -4.2711  -16.0843 N.ar    1  UNL1       -0.2312
     19 C         -29.2152   -3.4158  -16.9199 C.ar    1  UNL1        0.1170
     20 N         -27.8638   -3.4928  -16.8403 N.ar    1  UNL1       -0.3408
     21 C         -27.6518   -4.4464  -15.9256 C.ar    1  UNL1        0.0753
     22 C         -26.4374   -4.9347  -15.4520 C.ar    1  UNL1        0.0185
     23 H         -27.1540   -2.9321  -17.3624 H       1  UNL1        0.1671
     24 C         -29.9304   -2.4300  -17.7898 C.3     1  UNL1        0.0637
     25 C         -29.0967   -2.0999  -19.0219 C.3     1  UNL1        0.0084
     26 C         -19.8034   -9.5189   -8.9665 C.ar    1  UNL1        0.0503
     27 C         -18.7479   -9.8040   -8.0786 C.ar    1  UNL1        0.0328
     28 C         -18.7643   -9.3189   -6.7658 C.ar    1  UNL1        0.1069
     29 C         -19.8293   -8.5230   -6.3345 C.ar    1  UNL1        0.0186
     30 C         -20.8838   -8.2331   -7.1999 C.ar    1  UNL1        0.0071
     31 C         -20.8927   -8.7375   -8.5096 C.ar    1  UNL1        0.0667
     32 S         -17.4222   -9.6693   -5.6817 S.O2    1  UNL1        0.0105
     33 C         -18.0581  -10.1380   -4.0888 C.3     1  UNL1        0.1816
     34 O         -16.5910  -10.7907   -6.2393 O.2     1  UNL1       -0.1686
     35 O         -16.5544   -8.4503   -5.5398 O.2     1  UNL1       -0.1686
     36 N         -19.7504   -9.9657  -10.3370 N.pl3   1  UNL1       -0.3325
     37 H         -19.5412   -9.2729  -11.0905 H       1  UNL1        0.1468
     38 C         -21.1390  -11.4557  -11.6993 C.3     1  UNL1        0.0229
     39 C         -19.9496  -11.3533  -10.7526 C.3     1  UNL1        0.0871
@<TRIPOS>BOND
     1    38    39    1
     2    39    36    1
     3    36    26    1
     4    26    27   ar
     5    27    28   ar
     6    28    32    1
     7    32    33    1
     8    32    34    2
     9    32    35    2
    10    28    29   ar
    11    29    30   ar
    12    30    31   ar
    13    31     1    1
    14     1     2    2
    15     1     3   am
    16     3     4    1
    17     4     5    1
    18     5     6    1
    19     6     7    1
    20     7     8   ar
    21     8     9   ar
    22     9    10   ar
    23    10    14    1
    24    14    15   ar
    25    15    16   ar
    26    16    17   ar
    27    17    18   ar
    28    18    19   ar
    29    19    24    1
    30    24    25    1
    31    19    20   ar
    32    20    21   ar
    33    21    22   ar
    34    10    11   ar
    35    11    12   ar
    36    12    13    1
    37    31    26   ar
    38    13     3    1
    39    12     7   ar
    40    22    14   ar
    41    21    17   ar
    42    36    37    1
    43    20    23    1
@<TRIPOS>MOLECULE
*****
 39 43 0 0 0
SMALL
GASTEIGER

@<TRIPOS>ATOM
      1 C         -22.1037   -9.6138  -11.3752 C.2     1  UNL1        0.2506
      2 O         -23.0492  -10.3919  -11.6783 O.2     1  UNL1       -0.2699
      3 N         -22.2093   -8.2060  -11.6774 N.am    1  UNL1       -0.2680
      4 C         -21.0401   -7.4524  -12.1370 C.3     1  UNL1        0.1412
      5 C         -20.7211   -7.8267  -13.5841 C.3     1  UNL1        0.2268
      6 O         -21.8590   -8.3643  -14.2602 O.3     1  UNL1       -0.4739
      7 C         -23.0753   -7.6852  -14.4005 C.ar    1  UNL1        0.1362
      8 C         -23.5304   -7.4384  -15.6994 C.ar    1  UNL1        0.0366
      9 C         -24.7308   -6.7645  -15.9202 C.ar    1  UNL1        0.0031
     10 C         -25.5121   -6.3317  -14.8389 C.ar    1  UNL1       -0.0000
     11 C         -25.0722   -6.5991  -13.5315 C.ar    1  UNL1        0.0004
     12 C         -23.8644   -7.2777  -13.2911 C.ar    1  UNL1        0.0317
     13 C         -23.5240   -7.5799  -11.8426 C.3     1  UNL1        0.1236
     14 C         -26.7899   -5.6120  -15.0720 C.ar    1  UNL1        0.0015
     15 C         -26.8152   -4.4280  -15.8612 C.ar    1  UNL1        0.0016
     16 C         -28.0207   -3.7382  -16.0893 C.ar    1  UNL1        0.0206
     17 C         -29.1794   -4.2513  -15.5167 C.ar    1  UNL1        0.0981
     18 N         -30.4290   -3.7621  -15.6092 N.ar    1  UNL1       -0.2312
     19 C         -31.1498   -4.6449  -14.8672 C.ar    1  UNL1        0.1170
     20 N         -30.4078   -5.6512  -14.3424 N.ar    1  UNL1       -0.3408
     21 C         -29.1651   -5.3831  -14.7605 C.ar    1  UNL1        0.0753
     22 C         -27.9968   -6.0977  -14.5121 C.ar    1  UNL1        0.0185
     23 H         -30.7313   -6.4538  -13.7576 H       1  UNL1        0.1671
     24 C         -32.6352   -4.5532  -14.7095 C.3     1  UNL1        0.0637
     25 C         -33.0063   -3.3833  -13.8063 C.3     1  UNL1        0.0084
     26 C         -20.4350  -11.4862  -11.0425 C.ar    1  UNL1        0.0503
     27 C         -19.2995  -11.9822  -10.3728 C.ar    1  UNL1        0.0328
     28 C         -18.6210  -11.1970   -9.4335 C.ar    1  UNL1        0.1069
     29 C         -19.0602   -9.8963   -9.1710 C.ar    1  UNL1        0.0186
     30 C         -20.1842   -9.3905   -9.8234 C.ar    1  UNL1        0.0071
     31 C         -20.8900  -10.1781  -10.7460 C.ar    1  UNL1        0.0667
     32 S         -17.1904  -11.8307   -8.6265 S.O2    1  UNL1        0.0105
     33 C         -17.1785  -11.2856   -6.9341 C.3     1  UNL1        0.1816
     34 O         -17.2000  -13.3331   -8.6691 O.2     1  UNL1       -0.1686
     35 O         -15.9546  -11.3363   -9.3246 O.2     1  UNL1       -0.1686
     36 N         -21.0913  -12.2744  -12.0568 N.pl3   1  UNL1       -0.3325
     37 H         -22.1221  -12.1724  -12.1930 H       1  UNL1        0.1468
     38 C         -21.1509  -13.3459  -14.2596 C.3     1  UNL1        0.0229
     39 C         -20.3975  -13.2082  -12.9424 C.3     1  UNL1        0.0871
@<TRIPOS>BOND
     1    38    39    1
     2    39    36    1
     3    36    26    1
     4    26    27   ar
     5    27    28   ar
     6    28    32    1
     7    32    33    1
     8    32    34    2
     9    32    35    2
    10    28    29   ar
    11    29    30   ar
    12    30    31   ar
    13    31     1    1
    14     1     2    2
    15     1     3   am
    16     3     4    1
    17     4     5    1
    18     5     6    1
    19     6     7    1
    20     7     8   ar
    21     8     9   ar
    22     9    10   ar
    23    10    14    1
    24    14    15   ar
    25    15    16   ar
    26    16    17   ar
    27    17    18   ar
    28    18    19   ar
    29    19    24    1
    30    24    25    1
    31    19    20   ar
    32    20    21   ar
    33    21    22   ar
    34    10    11   ar
    35    11    12   ar
    36    12    13    1
    37    31    26   ar
    38    13     3    1
    39    12     7   ar
    40    22    14   ar
    41    21    17   ar
    42    36    37    1
    43    20    23    1
@<TRIPOS>MOLECULE
*****
 39 43 0 0 0
SMALL
GASTEIGER

@<TRIPOS>ATOM
      1 C         -22.2262   -7.6153  -11.2773 C.2     1  UNL1        0.2506
      2 O         -22.5901   -6.5491  -10.7100 O.2     1  UNL1       -0.2699
      3 N         -22.8607   -8.0251  -12.5077 N.am    1  UNL1       -0.2680
      4 C         -23.1419   -9.4394  -12.7665 C.3     1  UNL1        0.1412
      5 C         -24.3196   -9.8971  -11.9066 C.3     1  UNL1        0.2268
      6 O         -25.1398   -8.8015  -11.4970 O.3     1  UNL1       -0.4739
      7 C         -25.7608   -7.9170  -12.3873 C.ar    1  UNL1        0.1362
      8 C         -27.1553   -7.8259  -12.3390 C.ar    1  UNL1        0.0366
      9 C         -27.8457   -6.9702  -13.1962 C.ar    1  UNL1        0.0031
     10 C         -27.1500   -6.1734  -14.1170 C.ar    1  UNL1       -0.0000
     11 C         -25.7470   -6.2421  -14.1528 C.ar    1  UNL1        0.0004
     12 C         -25.0351   -7.0994  -13.2952 C.ar    1  UNL1        0.0317
     13 C         -23.5197   -7.0373  -13.3666 C.3     1  UNL1        0.1236
     14 C         -27.8838   -5.2629  -15.0322 C.ar    1  UNL1        0.0015
     15 C         -29.2430   -4.9278  -14.7764 C.ar    1  UNL1        0.0016
     16 C         -29.9480   -4.0653  -15.6367 C.ar    1  UNL1        0.0206
     17 C         -29.2727   -3.5571  -16.7410 C.ar    1  UNL1        0.0981
     18 N         -29.7461   -2.7189  -17.6806 N.ar    1  UNL1       -0.2312
     19 C         -28.6758   -2.5609  -18.5047 C.ar    1  UNL1        0.1170
     20 N         -27.5748   -3.2456  -18.1077 N.ar    1  UNL1       -0.3408
     21 C         -27.9727   -3.8717  -16.9939 C.ar    1  UNL1        0.0753
     22 C         -27.2374   -4.7177  -16.1686 C.ar    1  UNL1        0.0185
     23 H         -26.6332   -3.2705  -18.5589 H       1  UNL1        0.1671
     24 C         -28.6927   -1.6553  -19.6961 C.3     1  UNL1        0.0637
     25 C         -27.5867   -2.0355  -20.6730 C.3     1  UNL1        0.0084
     26 C         -21.1090   -8.6076   -9.2356 C.ar    1  UNL1        0.0503
     27 C         -20.0554   -9.3652   -8.6883 C.ar    1  UNL1        0.0328
     28 C         -19.0901   -9.9526   -9.5143 C.ar    1  UNL1        0.1069
     29 C         -19.1829   -9.8058  -10.9012 C.ar    1  UNL1        0.0186
     30 C         -20.2183   -9.0568  -11.4596 C.ar    1  UNL1        0.0071
     31 C         -21.1759   -8.4391  -10.6403 C.ar    1  UNL1        0.0667
     32 S         -17.7956  -10.9144   -8.8082 S.O2    1  UNL1        0.0105
     33 C         -18.0882  -12.6353   -9.1465 C.3     1  UNL1        0.1816
     34 O         -16.4736  -10.5060   -9.3953 O.2     1  UNL1       -0.1686
     35 O         -17.7526  -10.6924   -7.3223 O.2     1  UNL1       -0.1686
     36 N         -22.1375   -8.0596   -8.3854 N.pl3   1  UNL1       -0.3325
     37 H         -21.9408   -7.1864   -7.8465 H       1  UNL1        0.1468
     38 C         -23.4185  -10.1476   -8.4454 C.3     1  UNL1        0.0229
     39 C         -23.4720   -8.6388   -8.2397 C.3     1  UNL1        0.0871
@<TRIPOS>BOND
     1    38    39    1
     2    39    36    1
     3    36    26    1
     4    26    27   ar
     5    27    28   ar
     6    28    32    1
     7    32    33    1
     8    32    34    2
     9    32    35    2
    10    28    29   ar
    11    29    30   ar
    12    30    31   ar
    13    31     1    1
    14     1     2    2
    15     1     3   am
    16     3     4    1
    17     4     5    1
    18     5     6    1
    19     6     7    1
    20     7     8   ar
    21     8     9   ar
    22     9    10   ar
    23    10    14    1
    24    14    15   ar
    25    15    16   ar
    26    16    17   ar
    27    17    18   ar
    28    18    19   ar
    29    19    24    1
    30    24    25    1
    31    19    20   ar
    32    20    21   ar
    33    21    22   ar
    34    10    11   ar
    35    11    12   ar
    36    12    13    1
    37    31    26   ar
    38    13     3    1
    39    12     7   ar
    40    22    14   ar
    41    21    17   ar
    42    36    37    1
    43    20    23    1
@<TRIPOS>MOLECULE
*****
 39 43 0 0 0
SMALL
GASTEIGER

@<TRIPOS>ATOM
      1 C         -25.5373   -5.9685  -14.3346 C.2     1  UNL1        0.2506
      2 O         -24.7842   -6.7655  -14.9582 O.2     1  UNL1       -0.2699
      3 N         -25.3332   -5.7460  -12.9228 N.am    1  UNL1       -0.2680
      4 C         -26.4760   -5.5840  -12.0206 C.3     1  UNL1        0.1412
      5 C         -27.1527   -6.9360  -11.7971 C.3     1  UNL1        0.2268
      6 O         -26.2678   -8.0263  -12.0595 O.3     1  UNL1       -0.4739
      7 C         -25.0408   -8.2083  -11.4100 C.ar    1  UNL1        0.1362
      8 C         -24.8609   -9.3940  -10.6910 C.ar    1  UNL1        0.0366
      9 C         -23.6679   -9.6458  -10.0149 C.ar    1  UNL1        0.0031
     10 C         -22.6187   -8.7161  -10.0545 C.ar    1  UNL1       -0.0000
     11 C         -22.7844   -7.5343  -10.7962 C.ar    1  UNL1        0.0004
     12 C         -23.9808   -7.2648  -11.4842 C.ar    1  UNL1        0.0317
     13 C         -24.0230   -5.9946  -12.3151 C.3     1  UNL1        0.1236
     14 C         -21.3480   -8.9816   -9.3333 C.ar    1  UNL1        0.0015
     15 C         -20.3263   -9.7644   -9.9402 C.ar    1  UNL1        0.0016
     16 C         -19.1178  -10.0218   -9.2662 C.ar    1  UNL1        0.0206
     17 C         -18.9602   -9.4886   -7.9916 C.ar    1  UNL1        0.0981
     18 N         -17.8950   -9.6026   -7.1781 N.ar    1  UNL1       -0.2312
     19 C         -18.2823   -8.8989   -6.0806 C.ar    1  UNL1        0.1170
     20 N         -19.5181   -8.3518   -6.1904 N.ar    1  UNL1       -0.3408
     21 C         -19.9318   -8.7386   -7.4029 C.ar    1  UNL1        0.0753
     22 C         -21.1400   -8.4572   -8.0341 C.ar    1  UNL1        0.0185
     23 H         -20.0248   -7.7585   -5.4961 H       1  UNL1        0.1671
     24 C         -17.3943   -8.6872   -4.8946 C.3     1  UNL1        0.0637
     25 C         -16.7293   -7.3178   -4.9617 C.3     1  UNL1        0.0084
     26 C         -26.4273   -4.6649  -16.3119 C.ar    1  UNL1        0.0503
     27 C         -27.5084   -4.0122  -16.9355 C.ar    1  UNL1        0.0328
     28 C         -28.7772   -4.0018  -16.3447 C.ar    1  UNL1        0.1069
     29 C         -28.9822   -4.6654  -15.1318 C.ar    1  UNL1        0.0186
     30 C         -27.9221   -5.3145  -14.4995 C.ar    1  UNL1        0.0071
     31 C         -26.6388   -5.3076  -15.0676 C.ar    1  UNL1        0.0667
     32 S         -30.1183   -3.1990  -17.1550 S.O2    1  UNL1        0.0105
     33 C         -31.3747   -2.8009  -15.9615 C.3     1  UNL1        0.1816
     34 O         -29.6377   -1.9376  -17.8163 O.2     1  UNL1       -0.1686
     35 O         -30.6909   -4.1070  -18.2069 O.2     1  UNL1       -0.1686
     36 N         -25.1383   -4.7288  -16.9561 N.pl3   1  UNL1       -0.3325
     37 H         -24.4013   -4.0377  -16.6899 H       1  UNL1        0.1468
     38 C         -25.4565   -5.4175  -19.2860 C.3     1  UNL1        0.0229
     39 C         -24.7746   -5.7282  -17.9593 C.3     1  UNL1        0.0871
@<TRIPOS>BOND
     1    38    39    1
     2    39    36    1
     3    36    26    1
     4    26    27   ar
     5    27    28   ar
     6    28    32    1
     7    32    33    1
     8    32    34    2
     9    32    35    2
    10    28    29   ar
    11    29    30   ar
    12    30    31   ar
    13    31     1    1
    14     1     2    2
    15     1     3   am
    16     3     4    1
    17     4     5    1
    18     5     6    1
    19     6     7    1
    20     7     8   ar
    21     8     9   ar
    22     9    10   ar
    23    10    14    1
    24    14    15   ar
    25    15    16   ar
    26    16    17   ar
    27    17    18   ar
    28    18    19   ar
    29    19    24    1
    30    24    25    1
    31    19    20   ar
    32    20    21   ar
    33    21    22   ar
    34    10    11   ar
    35    11    12   ar
    36    12    13    1
    37    31    26   ar
    38    13     3    1
    39    12     7   ar
    40    22    14   ar
    41    21    17   ar
    42    36    37    1
    43    20    23    1
@<TRIPOS>MOLECULE
*****
 39 43 0 0 0
SMALL
GASTEIGER

@<TRIPOS>ATOM
      1 C         -25.4091   -6.0875  -14.6067 C.2     1  UNL1        0.2506
      2 O         -24.5514   -6.6337  -15.3532 O.2     1  UNL1       -0.2699
      3 N         -25.2686   -6.1720  -13.1723 N.am    1  UNL1       -0.2680
      4 C         -26.4451   -6.3463  -12.3168 C.3     1  UNL1        0.1412
      5 C         -26.9624   -7.7794  -12.4366 C.3     1  UNL1        0.2268
      6 O         -25.9483   -8.6775  -12.8903 O.3     1  UNL1       -0.4739
      7 C         -24.7252   -8.8673  -12.2357 C.ar    1  UNL1        0.1362
      8 C         -24.4245  -10.1587  -11.7919 C.ar    1  UNL1        0.0366
      9 C         -23.2277  -10.4260  -11.1287 C.ar    1  UNL1        0.0031
     10 C         -22.2951   -9.4025  -10.9052 C.ar    1  UNL1       -0.0000
     11 C         -22.5808   -8.1081  -11.3713 C.ar    1  UNL1        0.0004
     12 C         -23.7828   -7.8215  -12.0422 C.ar    1  UNL1        0.0317
     13 C         -23.9540   -6.4077  -12.5690 C.3     1  UNL1        0.1236
     14 C         -21.0207   -9.6848  -10.1973 C.ar    1  UNL1        0.0015
     15 C         -20.5612   -8.8152   -9.1687 C.ar    1  UNL1        0.0016
     16 C         -19.3552   -9.0734   -8.4906 C.ar    1  UNL1        0.0206
     17 C         -18.6316  -10.2014   -8.8617 C.ar    1  UNL1        0.0981
     18 N         -17.4678  -10.6382   -8.3475 N.ar    1  UNL1       -0.2312
     19 C         -17.2243  -11.7615   -9.0745 C.ar    1  UNL1        0.1170
     20 N         -18.1845  -12.0379   -9.9911 N.ar    1  UNL1       -0.3408
     21 C         -19.0630  -11.0390   -9.8441 C.ar    1  UNL1        0.0753
     22 C         -20.2502  -10.8234  -10.5380 C.ar    1  UNL1        0.0185
     23 H         -18.2333  -12.8464  -10.6503 H       1  UNL1        0.1671
     24 C         -16.0437  -12.6484   -8.8310 C.3     1  UNL1        0.0637
     25 C         -14.7837  -12.0400   -9.4349 C.3     1  UNL1        0.0084
     26 C         -26.4765   -4.8152  -16.5154 C.ar    1  UNL1        0.0503
     27 C         -27.5963   -4.1344  -17.0314 C.ar    1  UNL1        0.0328
     28 C         -28.7820   -4.0418  -16.2933 C.ar    1  UNL1        0.1069
     29 C         -28.8660   -4.6504  -15.0379 C.ar    1  UNL1        0.0186
     30 C         -27.7658   -5.3263  -14.5110 C.ar    1  UNL1        0.0071
     31 C         -26.5622   -5.4015  -15.2290 C.ar    1  UNL1        0.0667
     32 S         -30.1759   -3.2055  -16.9694 S.O2    1  UNL1        0.0105
     33 C         -31.3671   -2.9103  -15.6828 C.3     1  UNL1        0.1816
     34 O         -29.7480   -1.8942  -17.5666 O.2     1  UNL1       -0.1686
     35 O         -30.7968   -4.0472  -18.0487 O.2     1  UNL1       -0.1686
     36 N         -25.2796   -4.9641  -17.3066 N.pl3   1  UNL1       -0.3325
     37 H         -24.3506   -4.9680  -16.8286 H       1  UNL1        0.1468
     38 C         -24.8261   -6.5475  -19.1208 C.3     1  UNL1        0.0229
     39 C         -25.2758   -5.1376  -18.7583 C.3     1  UNL1        0.0871
@<TRIPOS>BOND
     1    38    39    1
     2    39    36    1
     3    36    26    1
     4    26    27   ar
     5    27    28   ar
     6    28    32    1
     7    32    33    1
     8    32    34    2
     9    32    35    2
    10    28    29   ar
    11    29    30   ar
    12    30    31   ar
    13    31     1    1
    14     1     2    2
    15     1     3   am
    16     3     4    1
    17     4     5    1
    18     5     6    1
    19     6     7    1
    20     7     8   ar
    21     8     9   ar
    22     9    10   ar
    23    10    14    1
    24    14    15   ar
    25    15    16   ar
    26    16    17   ar
    27    17    18   ar
    28    18    19   ar
    29    19    24    1
    30    24    25    1
    31    19    20   ar
    32    20    21   ar
    33    21    22   ar
    34    10    11   ar
    35    11    12   ar
    36    12    13    1
    37    31    26   ar
    38    13     3    1
    39    12     7   ar
    40    22    14   ar
    41    21    17   ar
    42    36    37    1
    43    20    23    1
@<TRIPOS>MOLECULE
*****
 39 43 0 0 0
SMALL
GASTEIGER

@<TRIPOS>ATOM
      1 C         -22.8189   -7.0659   -9.6429 C.2     1  UNL1        0.2506
      2 O         -23.9108   -6.7686   -9.0857 O.2     1  UNL1       -0.2699
      3 N         -22.6746   -6.9022  -11.0700 N.am    1  UNL1       -0.2680
      4 C         -21.9223   -7.8798  -11.8604 C.3     1  UNL1        0.1412
      5 C         -22.7376   -9.1645  -12.0038 C.3     1  UNL1        0.2268
      6 O         -24.1349   -8.9345  -11.8156 O.3     1  UNL1       -0.4739
      7 C         -24.8859   -8.0311  -12.5775 C.ar    1  UNL1        0.1362
      8 C         -25.9708   -8.5404  -13.2977 C.ar    1  UNL1        0.0366
      9 C         -26.7638   -7.7040  -14.0822 C.ar    1  UNL1        0.0031
     10 C         -26.4935   -6.3296  -14.1531 C.ar    1  UNL1       -0.0000
     11 C         -25.4199   -5.8082  -13.4116 C.ar    1  UNL1        0.0004
     12 C         -24.6105   -6.6376  -12.6152 C.ar    1  UNL1        0.0317
     13 C         -23.5267   -5.9576  -11.7976 C.3     1  UNL1        0.1236
     14 C         -27.3357   -5.4375  -14.9897 C.ar    1  UNL1        0.0015
     15 C         -28.6912   -5.1876  -14.6356 C.ar    1  UNL1        0.0016
     16 C         -29.4984   -4.3432  -15.4208 C.ar    1  UNL1        0.0206
     17 C         -28.9273   -3.7672  -16.5503 C.ar    1  UNL1        0.0981
     18 N         -29.5077   -2.9318  -17.4306 N.ar    1  UNL1       -0.2312
     19 C         -28.5051   -2.6905  -18.3172 C.ar    1  UNL1        0.1170
     20 N         -27.3441   -3.3220  -18.0142 N.ar    1  UNL1       -0.3408
     21 C         -27.6318   -4.0003  -16.8970 C.ar    1  UNL1        0.0753
     22 C         -26.7976   -4.8254  -16.1481 C.ar    1  UNL1        0.0185
     23 H         -26.4348   -3.2808  -18.5264 H       1  UNL1        0.1671
     24 C         -28.6513   -1.7549  -19.4761 C.3     1  UNL1        0.0637
     25 C         -27.6369   -2.0875  -20.5636 C.3     1  UNL1        0.0084
     26 C         -21.9442   -8.6347   -7.8610 C.ar    1  UNL1        0.0503
     27 C         -20.8660   -9.0771   -7.0702 C.ar    1  UNL1        0.0328
     28 C         -19.5892   -8.5247   -7.2248 C.ar    1  UNL1        0.1069
     29 C         -19.3737   -7.5374   -8.1904 C.ar    1  UNL1        0.0186
     30 C         -20.4308   -7.0861   -8.9802 C.ar    1  UNL1        0.0071
     31 C         -21.7216   -7.6117   -8.8149 C.ar    1  UNL1        0.0667
     32 S         -18.2522   -9.1106   -6.2407 S.O2    1  UNL1        0.0105
     33 C         -18.8670   -9.6109   -4.6491 C.3     1  UNL1        0.1816
     34 O         -17.5935  -10.2817   -6.9143 O.2     1  UNL1       -0.1686
     35 O         -17.2341   -8.0184   -6.0679 O.2     1  UNL1       -0.1686
     36 N         -23.2423   -9.2525   -7.7436 N.pl3   1  UNL1       -0.3325
     37 H         -23.9231   -8.8779   -7.0452 H       1  UNL1        0.1468
     38 C         -25.1694  -10.2252   -8.9031 C.3     1  UNL1        0.0229
     39 C         -23.6909  -10.3747   -8.5665 C.3     1  UNL1        0.0871
@<TRIPOS>BOND
     1    38    39    1
     2    39    36    1
     3    36    26    1
     4    26    27   ar
     5    27    28   ar
     6    28    32    1
     7    32    33    1
     8    32    34    2
     9    32    35    2
    10    28    29   ar
    11    29    30   ar
    12    30    31   ar
    13    31     1    1
    14     1     2    2
    15     1     3   am
    16     3     4    1
    17     4     5    1
    18     5     6    1
    19     6     7    1
    20     7     8   ar
    21     8     9   ar
    22     9    10   ar
    23    10    14    1
    24    14    15   ar
    25    15    16   ar
    26    16    17   ar
    27    17    18   ar
    28    18    19   ar
    29    19    24    1
    30    24    25    1
    31    19    20   ar
    32    20    21   ar
    33    21    22   ar
    34    10    11   ar
    35    11    12   ar
    36    12    13    1
    37    31    26   ar
    38    13     3    1
    39    12     7   ar
    40    22    14   ar
    41    21    17   ar
    42    36    37    1
    43    20    23    1
