@<TRIPOS>MOLECULE
*****
 40 44 0 0 0
SMALL
GASTEIGER

@<TRIPOS>ATOM
      1 C         -29.8733   46.5647   -7.9317 C.3     1  UNL1        0.1333
      2 N         -28.5650   47.0800   -7.5268 N.ar    1  UNL1       -0.2950
      3 C         -27.7012   46.5713   -6.6042 C.ar    1  UNL1        0.2019
      4 N         -26.5265   47.2465   -6.5254 N.ar    1  UNL1       -0.2134
      5 C         -26.6894   48.2366   -7.4210 C.ar    1  UNL1        0.1033
      6 C         -25.7841   49.2496   -7.7282 C.ar    1  UNL1        0.0284
      7 C         -26.1479   50.2014   -8.7080 C.ar    1  UNL1        0.0922
      8 C         -27.4305   50.1211   -9.3176 C.ar    1  UNL1        0.1792
      9 C         -28.3308   49.0951   -8.9603 C.ar    1  UNL1        0.1897
     10 C         -27.9128   48.1488   -8.0211 C.ar    1  UNL1        0.1173
     11 O         -29.6067   49.0713   -9.5323 O.3     1  UNL1       -0.4661
     12 C         -30.1161   50.1994  -10.2466 C.3     1  UNL1        0.2597
     13 C         -28.9994   50.8456  -11.0762 C.3     1  UNL1        0.2596
     14 I         -29.6466   52.7029  -11.9074 I       1  UNL1       -0.0223
     15 O         -27.8480   51.0680  -10.2604 O.3     1  UNL1       -0.4617
     16 C         -25.1935   51.2732   -9.0622 C.2     1  UNL1        0.2526
     17 O         -25.6288   52.4439   -9.2357 O.2     1  UNL1       -0.2697
     18 N         -23.7899   50.9897   -9.2062 N.am    1  UNL1       -0.2803
     19 H         -23.4586   50.0100   -9.0605 H       1  UNL1        0.1552
     20 C         -22.8175   51.9521   -9.6449 C.ar    1  UNL1        0.0506
     21 C         -22.9393   52.5118  -10.9231 C.ar    1  UNL1        0.0170
     22 C         -21.9933   53.4273  -11.3863 C.ar    1  UNL1        0.0309
     23 C         -20.9088   53.7865  -10.5826 C.ar    1  UNL1        0.1441
     24 F         -19.9945   54.6672  -11.0636 F       1  UNL1       -0.2042
     25 C         -20.7601   53.2283   -9.2990 C.ar    1  UNL1        0.1000
     26 C         -21.7114   52.2934   -8.8463 C.ar    1  UNL1        0.0208
     27 C         -19.5603   53.5916   -8.4565 C.3     1  UNL1        0.4207
     28 F         -19.7615   53.1527   -7.1609 F       1  UNL1       -0.1658
     29 F         -18.4272   52.9848   -8.9685 F       1  UNL1       -0.1658
     30 F         -19.3464   54.9592   -8.4342 F       1  UNL1       -0.1658
     31 N         -27.9726   45.4281   -5.7816 N.pl3   1  UNL1       -0.2814
     32 H         -28.2948   44.5574   -6.2603 H       1  UNL1        0.1551
     33 C         -27.6758   45.3633   -4.3759 C.ar    1  UNL1        0.0889
     34 C         -26.4541   44.8283   -3.9165 C.ar    1  UNL1        0.1543
     35 F         -25.5360   44.3395   -4.7878 F       1  UNL1       -0.2028
     36 C         -26.1844   44.7655   -2.5463 C.ar    1  UNL1        0.0310
     37 C         -27.1268   45.2211   -1.6232 C.ar    1  UNL1        0.0033
     38 C         -28.3463   45.7363   -2.0660 C.ar    1  UNL1        0.0128
     39 C         -28.6282   45.8046   -3.4354 C.ar    1  UNL1        0.0733
     40 CL        -30.1662   46.4867   -3.9482 Cl      1  UNL1       -0.0809
@<TRIPOS>BOND
     1     1     2    1
     2     2     3   ar
     3     3    31    1
     4    31    33    1
     5    33    34   ar
     6    34    35    1
     7    34    36   ar
     8    36    37   ar
     9    37    38   ar
    10    38    39   ar
    11    39    40    1
    12     3     4   ar
    13     4     5   ar
    14     5     6   ar
    15     6     7   ar
    16     7    16    1
    17    16    17    2
    18    16    18   am
    19    18    20    1
    20    20    21   ar
    21    21    22   ar
    22    22    23   ar
    23    23    24    1
    24    23    25   ar
    25    25    27    1
    26    27    28    1
    27    27    29    1
    28    27    30    1
    29    25    26   ar
    30     7     8   ar
    31     8     9   ar
    32     9    10   ar
    33     9    11    1
    34    11    12    1
    35    12    13    1
    36    13    14    1
    37    13    15    1
    38    10     2   ar
    39    39    33   ar
    40    10     5   ar
    41    26    20   ar
    42    15     8    1
    43    31    32    1
    44    18    19    1
@<TRIPOS>MOLECULE
*****
 40 44 0 0 0
SMALL
GASTEIGER

@<TRIPOS>ATOM
      1 C         -23.2766   53.2804  -11.6179 C.3     1  UNL1        0.1333
      2 N         -23.0359   52.5343  -10.3823 N.ar    1  UNL1       -0.2950
      3 C         -21.8958   52.4686   -9.6393 C.ar    1  UNL1        0.2019
      4 N         -22.0299   51.7498   -8.4958 N.ar    1  UNL1       -0.2134
      5 C         -23.3056   51.3278   -8.5552 C.ar    1  UNL1        0.1033
      6 C         -23.9676   50.5202   -7.6334 C.ar    1  UNL1        0.0284
      7 C         -25.3191   50.1875   -7.8802 C.ar    1  UNL1        0.0922
      8 C         -25.9462   50.6500   -9.0702 C.ar    1  UNL1        0.1792
      9 C         -25.2339   51.4444   -9.9935 C.ar    1  UNL1        0.1897
     10 C         -23.9144   51.7875   -9.6877 C.ar    1  UNL1        0.1173
     11 O         -25.8551   51.8389  -11.1827 O.3     1  UNL1       -0.4661
     12 C         -27.0778   51.2360  -11.6115 C.3     1  UNL1        0.2597
     13 C         -27.9918   50.9834  -10.4057 C.3     1  UNL1        0.2596
     14 I         -29.6852   49.8103  -10.9672 I       1  UNL1       -0.0223
     15 O         -27.2690   50.3080   -9.3751 O.3     1  UNL1       -0.4617
     16 C         -26.0452   49.3475   -6.9045 C.2     1  UNL1        0.2526
     17 O         -26.7034   49.9093   -5.9874 O.2     1  UNL1       -0.2697
     18 N         -26.0053   47.9118   -6.9972 N.am    1  UNL1       -0.2803
     19 H         -25.4486   47.4741   -7.7648 H       1  UNL1        0.1552
     20 C         -26.5994   47.0285   -6.0323 C.ar    1  UNL1        0.0506
     21 C         -27.9308   46.6279   -6.2021 C.ar    1  UNL1        0.0170
     22 C         -28.5423   45.7936   -5.2652 C.ar    1  UNL1        0.0309
     23 C         -27.8346   45.3582   -4.1423 C.ar    1  UNL1        0.1441
     24 F         -28.4582   44.5602   -3.2383 F       1  UNL1       -0.2042
     25 C         -26.4992   45.7572   -3.9454 C.ar    1  UNL1        0.1000
     26 C         -25.8955   46.6119   -4.8883 C.ar    1  UNL1        0.0208
     27 C         -25.7585   45.3152   -2.7056 C.3     1  UNL1        0.4207
     28 F         -25.1142   44.1186   -2.9601 F       1  UNL1       -0.1658
     29 F         -24.8191   46.2688   -2.3560 F       1  UNL1       -0.1658
     30 F         -26.6161   45.1387   -1.6332 F       1  UNL1       -0.1658
     31 N         -20.6556   53.0932   -9.9985 N.pl3   1  UNL1       -0.2814
     32 H         -20.7060   53.9885  -10.5342 H       1  UNL1        0.1551
     33 C         -19.3698   52.6502   -9.5305 C.ar    1  UNL1        0.0889
     34 C         -18.9930   52.8145   -8.1812 C.ar    1  UNL1        0.1543
     35 F         -19.8249   53.4157   -7.2936 F       1  UNL1       -0.2028
     36 C         -17.7365   52.3853   -7.7443 C.ar    1  UNL1        0.0310
     37 C         -16.8419   51.8019   -8.6426 C.ar    1  UNL1        0.0033
     38 C         -17.1975   51.6504   -9.9840 C.ar    1  UNL1        0.0128
     39 C         -18.4528   52.0760  -10.4338 C.ar    1  UNL1        0.0733
     40 CL        -18.8683   51.8398  -12.1264 Cl      1  UNL1       -0.0809
@<TRIPOS>BOND
     1     1     2    1
     2     2     3   ar
     3     3    31    1
     4    31    33    1
     5    33    34   ar
     6    34    35    1
     7    34    36   ar
     8    36    37   ar
     9    37    38   ar
    10    38    39   ar
    11    39    40    1
    12     3     4   ar
    13     4     5   ar
    14     5     6   ar
    15     6     7   ar
    16     7    16    1
    17    16    17    2
    18    16    18   am
    19    18    20    1
    20    20    21   ar
    21    21    22   ar
    22    22    23   ar
    23    23    24    1
    24    23    25   ar
    25    25    27    1
    26    27    28    1
    27    27    29    1
    28    27    30    1
    29    25    26   ar
    30     7     8   ar
    31     8     9   ar
    32     9    10   ar
    33     9    11    1
    34    11    12    1
    35    12    13    1
    36    13    14    1
    37    13    15    1
    38    10     2   ar
    39    39    33   ar
    40    10     5   ar
    41    26    20   ar
    42    15     8    1
    43    31    32    1
    44    18    19    1
@<TRIPOS>MOLECULE
*****
 40 44 0 0 0
SMALL
GASTEIGER

@<TRIPOS>ATOM
      1 C         -22.9566   53.2662  -11.8105 C.3     1  UNL1        0.1333
      2 N         -22.7686   52.6093  -10.5165 N.ar    1  UNL1       -0.2950
      3 C         -21.6547   52.5828   -9.7324 C.ar    1  UNL1        0.2019
      4 N         -21.8378   51.9515   -8.5450 N.ar    1  UNL1       -0.2134
      5 C         -23.1174   51.5434   -8.6169 C.ar    1  UNL1        0.1033
      6 C         -23.8221   50.8144   -7.6618 C.ar    1  UNL1        0.0284
      7 C         -25.1699   50.4828   -7.9296 C.ar    1  UNL1        0.0922
      8 C         -25.7500   50.8653   -9.1707 C.ar    1  UNL1        0.1792
      9 C         -24.9952   51.5804  -10.1245 C.ar    1  UNL1        0.1897
     10 C         -23.6812   51.9272   -9.7998 C.ar    1  UNL1        0.1173
     11 O         -25.5707   51.8952  -11.3596 O.3     1  UNL1       -0.4661
     12 C         -26.7879   51.2790  -11.7848 C.3     1  UNL1        0.2597
     13 C         -27.7450   51.1277  -10.5956 C.3     1  UNL1        0.2596
     14 I         -29.4375   49.9395  -11.1276 I       1  UNL1       -0.0223
     15 O         -27.0674   50.5199   -9.4947 O.3     1  UNL1       -0.4617
     16 C         -25.9410   49.7262   -6.9207 C.2     1  UNL1        0.2526
     17 O         -26.2404   48.5245   -7.1579 O.2     1  UNL1       -0.2697
     18 N         -26.3439   50.3467   -5.6862 N.am    1  UNL1       -0.2803
     19 H         -26.0854   51.3446   -5.5187 H       1  UNL1        0.1552
     20 C         -27.1778   49.7117   -4.7035 C.ar    1  UNL1        0.0506
     21 C         -26.5793   48.9743   -3.6739 C.ar    1  UNL1        0.0170
     22 C         -27.3656   48.3231   -2.7225 C.ar    1  UNL1        0.0309
     23 C         -28.7590   48.3919   -2.7942 C.ar    1  UNL1        0.1441
     24 F         -29.5004   47.7362   -1.8651 F       1  UNL1       -0.2042
     25 C         -29.3822   49.1179   -3.8265 C.ar    1  UNL1        0.1000
     26 C         -28.5806   49.7588   -4.7912 C.ar    1  UNL1        0.0208
     27 C         -30.8895   49.1491   -3.9185 C.3     1  UNL1        0.4207
     28 F         -31.4048   49.7432   -2.7813 F       1  UNL1       -0.1658
     29 F         -31.2763   49.8820   -5.0263 F       1  UNL1       -0.1658
     30 F         -31.4210   47.8760   -4.0344 F       1  UNL1       -0.1658
     31 N         -20.3936   53.1627  -10.0937 N.pl3   1  UNL1       -0.2814
     32 H         -20.4122   54.0773  -10.5977 H       1  UNL1        0.1551
     33 C         -19.1216   52.6460   -9.6654 C.ar    1  UNL1        0.0889
     34 C         -18.2925   51.9309  -10.5547 C.ar    1  UNL1        0.1543
     35 F         -18.6833   51.6917  -11.8319 F       1  UNL1       -0.2028
     36 C         -17.0624   51.4288  -10.1203 C.ar    1  UNL1        0.0310
     37 C         -16.6515   51.6217   -8.8006 C.ar    1  UNL1        0.0033
     38 C         -17.4719   52.3127   -7.9071 C.ar    1  UNL1        0.0128
     39 C         -18.7058   52.8203   -8.3300 C.ar    1  UNL1        0.0733
     40 CL        -19.6938   53.7082   -7.1771 Cl      1  UNL1       -0.0809
@<TRIPOS>BOND
     1     1     2    1
     2     2     3   ar
     3     3    31    1
     4    31    33    1
     5    33    34   ar
     6    34    35    1
     7    34    36   ar
     8    36    37   ar
     9    37    38   ar
    10    38    39   ar
    11    39    40    1
    12     3     4   ar
    13     4     5   ar
    14     5     6   ar
    15     6     7   ar
    16     7    16    1
    17    16    17    2
    18    16    18   am
    19    18    20    1
    20    20    21   ar
    21    21    22   ar
    22    22    23   ar
    23    23    24    1
    24    23    25   ar
    25    25    27    1
    26    27    28    1
    27    27    29    1
    28    27    30    1
    29    25    26   ar
    30     7     8   ar
    31     8     9   ar
    32     9    10   ar
    33     9    11    1
    34    11    12    1
    35    12    13    1
    36    13    14    1
    37    13    15    1
    38    10     2   ar
    39    39    33   ar
    40    10     5   ar
    41    26    20   ar
    42    15     8    1
    43    31    32    1
    44    18    19    1
@<TRIPOS>MOLECULE
*****
 40 44 0 0 0
SMALL
GASTEIGER

@<TRIPOS>ATOM
      1 C         -23.1236   53.2556  -11.7600 C.3     1  UNL1        0.1333
      2 N         -22.9596   52.5417  -10.4932 N.ar    1  UNL1       -0.2950
      3 C         -21.8592   52.4764   -9.6925 C.ar    1  UNL1        0.2019
      4 N         -22.0643   51.7942   -8.5372 N.ar    1  UNL1       -0.2134
      5 C         -23.3438   51.3947   -8.6484 C.ar    1  UNL1        0.1033
      6 C         -24.0669   50.6273   -7.7382 C.ar    1  UNL1        0.0284
      7 C         -25.4110   50.3132   -8.0428 C.ar    1  UNL1        0.0922
      8 C         -25.9689   50.7522   -9.2753 C.ar    1  UNL1        0.1792
      9 C         -25.1958   51.5055  -10.1840 C.ar    1  UNL1        0.1897
     10 C         -23.8864   51.8324   -9.8225 C.ar    1  UNL1        0.1173
     11 O         -25.7494   51.8765  -11.4135 O.3     1  UNL1       -0.4661
     12 C         -26.9613   51.2844  -11.8857 C.3     1  UNL1        0.2597
     13 C         -27.9388   51.0848  -10.7205 C.3     1  UNL1        0.2596
     14 I         -29.6259   49.9279  -11.3324 I       1  UNL1       -0.0223
     15 O         -27.2818   50.4265   -9.6362 O.3     1  UNL1       -0.4617
     16 C         -26.2015   49.5160   -7.0811 C.2     1  UNL1        0.2526
     17 O         -25.8262   48.3436   -6.8079 O.2     1  UNL1       -0.2697
     18 N         -27.3795   50.0657   -6.4636 N.am    1  UNL1       -0.2803
     19 H         -27.6687   51.0381   -6.7122 H       1  UNL1        0.1552
     20 C         -28.2539   49.3224   -5.5993 C.ar    1  UNL1        0.0506
     21 C         -29.5074   48.9204   -6.0781 C.ar    1  UNL1        0.0170
     22 C         -30.3885   48.2224   -5.2512 C.ar    1  UNL1        0.0309
     23 C         -30.0326   47.9268   -3.9331 C.ar    1  UNL1        0.1441
     24 F         -30.9148   47.2605   -3.1453 F       1  UNL1       -0.2042
     25 C         -28.7827   48.3306   -3.4272 C.ar    1  UNL1        0.1000
     26 C         -27.9064   49.0483   -4.2645 C.ar    1  UNL1        0.0208
     27 C         -28.4269   48.0432   -1.9878 C.3     1  UNL1        0.4207
     28 F         -28.3872   46.6752   -1.7909 F       1  UNL1       -0.1658
     29 F         -27.1846   48.5780   -1.6964 F       1  UNL1       -0.1658
     30 F         -29.3500   48.5913   -1.1137 F       1  UNL1       -0.1658
     31 N         -20.5903   53.0665  -10.0068 N.pl3   1  UNL1       -0.2814
     32 H         -20.5967   53.9568  -10.5532 H       1  UNL1        0.1551
     33 C         -19.3360   52.5976   -9.4820 C.ar    1  UNL1        0.0889
     34 C         -19.0310   52.7238   -8.1107 C.ar    1  UNL1        0.1543
     35 F         -19.9036   53.3117   -7.2539 F       1  UNL1       -0.2028
     36 C         -17.8041   52.2697   -7.6181 C.ar    1  UNL1        0.0310
     37 C         -16.8681   51.6991   -8.4818 C.ar    1  UNL1        0.0033
     38 C         -17.1524   51.5853   -9.8438 C.ar    1  UNL1        0.0128
     39 C         -18.3773   52.0361  -10.3493 C.ar    1  UNL1        0.0733
     40 CL        -18.7032   51.8471  -12.0672 Cl      1  UNL1       -0.0809
@<TRIPOS>BOND
     1     1     2    1
     2     2     3   ar
     3     3    31    1
     4    31    33    1
     5    33    34   ar
     6    34    35    1
     7    34    36   ar
     8    36    37   ar
     9    37    38   ar
    10    38    39   ar
    11    39    40    1
    12     3     4   ar
    13     4     5   ar
    14     5     6   ar
    15     6     7   ar
    16     7    16    1
    17    16    17    2
    18    16    18   am
    19    18    20    1
    20    20    21   ar
    21    21    22   ar
    22    22    23   ar
    23    23    24    1
    24    23    25   ar
    25    25    27    1
    26    27    28    1
    27    27    29    1
    28    27    30    1
    29    25    26   ar
    30     7     8   ar
    31     8     9   ar
    32     9    10   ar
    33     9    11    1
    34    11    12    1
    35    12    13    1
    36    13    14    1
    37    13    15    1
    38    10     2   ar
    39    39    33   ar
    40    10     5   ar
    41    26    20   ar
    42    15     8    1
    43    31    32    1
    44    18    19    1
@<TRIPOS>MOLECULE
*****
 40 44 0 0 0
SMALL
GASTEIGER

@<TRIPOS>ATOM
      1 C         -31.1805   47.1330  -14.4165 C.3     1  UNL1        0.1333
      2 N         -30.5394   48.3258  -13.8619 N.ar    1  UNL1       -0.2950
      3 C         -30.1735   49.4693  -14.5058 C.ar    1  UNL1        0.2019
      4 N         -29.6750   50.4248  -13.6808 N.ar    1  UNL1       -0.2134
      5 C         -29.7074   49.8273  -12.4763 C.ar    1  UNL1        0.1033
      6 C         -29.2805   50.3597  -11.2620 C.ar    1  UNL1        0.0284
      7 C         -29.4014   49.5640  -10.0999 C.ar    1  UNL1        0.0922
      8 C         -29.9138   48.2416  -10.2090 C.ar    1  UNL1        0.1792
      9 C         -30.3112   47.7281  -11.4617 C.ar    1  UNL1        0.1897
     10 C         -30.2175   48.5647  -12.5769 C.ar    1  UNL1        0.1173
     11 O         -30.7583   46.4060  -11.5512 O.3     1  UNL1       -0.4661
     12 C         -30.5627   45.4866  -10.4748 C.3     1  UNL1        0.2597
     13 C         -30.7714   46.1966   -9.1312 C.3     1  UNL1        0.2596
     14 I         -30.1885   44.9386   -7.5073 I       1  UNL1       -0.0223
     15 O         -30.0098   47.4045   -9.0911 O.3     1  UNL1       -0.4617
     16 C         -28.9719   50.1177   -8.7984 C.2     1  UNL1        0.2526
     17 O         -29.3771   51.2628   -8.4598 O.2     1  UNL1       -0.2697
     18 N         -28.1070   49.3650   -7.9286 N.am    1  UNL1       -0.2803
     19 H         -27.7839   48.4210   -8.2372 H       1  UNL1        0.1552
     20 C         -27.5666   49.8731   -6.6981 C.ar    1  UNL1        0.0506
     21 C         -27.1391   51.2056   -6.6389 C.ar    1  UNL1        0.0170
     22 C         -26.5836   51.7176   -5.4655 C.ar    1  UNL1        0.0309
     23 C         -26.4388   50.9019   -4.3408 C.ar    1  UNL1        0.1441
     24 F         -25.8809   51.4207   -3.2172 F       1  UNL1       -0.2042
     25 C         -26.8513   49.5567   -4.3809 C.ar    1  UNL1        0.1000
     26 C         -27.3964   49.0447   -5.5746 C.ar    1  UNL1        0.0208
     27 C         -26.6498   48.6731   -3.1726 C.3     1  UNL1        0.4207
     28 F         -27.7885   48.7034   -2.3890 F       1  UNL1       -0.1658
     29 F         -26.4146   47.3714   -3.5780 F       1  UNL1       -0.1658
     30 F         -25.5733   49.0898   -2.4083 F       1  UNL1       -0.1658
     31 N         -30.2957   49.6797  -15.9192 N.pl3   1  UNL1       -0.2814
     32 H         -31.0542   50.3192  -16.2460 H       1  UNL1        0.1551
     33 C         -29.3470   49.1972  -16.8866 C.ar    1  UNL1        0.0889
     34 C         -28.0017   49.6201  -16.8565 C.ar    1  UNL1        0.1543
     35 F         -27.5719   50.5112  -15.9278 F       1  UNL1       -0.2028
     36 C         -27.0941   49.1474  -17.8088 C.ar    1  UNL1        0.0310
     37 C         -27.5156   48.2629  -18.8027 C.ar    1  UNL1        0.0033
     38 C         -28.8487   47.8516  -18.8525 C.ar    1  UNL1        0.0128
     39 C         -29.7671   48.3177  -17.9047 C.ar    1  UNL1        0.0733
     40 CL        -31.4299   47.7510  -17.9898 Cl      1  UNL1       -0.0809
@<TRIPOS>BOND
     1     1     2    1
     2     2     3   ar
     3     3    31    1
     4    31    33    1
     5    33    34   ar
     6    34    35    1
     7    34    36   ar
     8    36    37   ar
     9    37    38   ar
    10    38    39   ar
    11    39    40    1
    12     3     4   ar
    13     4     5   ar
    14     5     6   ar
    15     6     7   ar
    16     7    16    1
    17    16    17    2
    18    16    18   am
    19    18    20    1
    20    20    21   ar
    21    21    22   ar
    22    22    23   ar
    23    23    24    1
    24    23    25   ar
    25    25    27    1
    26    27    28    1
    27    27    29    1
    28    27    30    1
    29    25    26   ar
    30     7     8   ar
    31     8     9   ar
    32     9    10   ar
    33     9    11    1
    34    11    12    1
    35    12    13    1
    36    13    14    1
    37    13    15    1
    38    10     2   ar
    39    39    33   ar
    40    10     5   ar
    41    26    20   ar
    42    15     8    1
    43    31    32    1
    44    18    19    1
@<TRIPOS>MOLECULE
*****
 40 44 0 0 0
SMALL
GASTEIGER

@<TRIPOS>ATOM
      1 C         -31.2971   47.8627   -6.3925 C.3     1  UNL1        0.1333
      2 N         -29.9623   48.3619   -6.0603 N.ar    1  UNL1       -0.2950
      3 C         -29.2188   48.1185   -4.9450 C.ar    1  UNL1        0.2019
      4 N         -27.9789   48.6693   -4.9844 N.ar    1  UNL1       -0.2134
      5 C         -27.9724   49.3081   -6.1679 C.ar    1  UNL1        0.1033
      6 C         -26.9377   50.0692   -6.7066 C.ar    1  UNL1        0.0284
      7 C         -27.1299   50.6622   -7.9754 C.ar    1  UNL1        0.0922
      8 C         -28.3762   50.4986   -8.6412 C.ar    1  UNL1        0.1792
      9 C         -29.4103   49.7418   -8.0507 C.ar    1  UNL1        0.1897
     10 C         -29.1614   49.1353   -6.8168 C.ar    1  UNL1        0.1173
     11 O         -30.6454   49.6432   -8.6993 O.3     1  UNL1       -0.4661
     12 C         -30.9763   50.5046   -9.7905 C.3     1  UNL1        0.2597
     13 C         -29.7456   50.7259  -10.6789 C.3     1  UNL1        0.2596
     14 I         -30.1204   52.2431  -12.1339 I       1  UNL1       -0.0223
     15 O         -28.6244   51.1044   -9.8786 O.3     1  UNL1       -0.4617
     16 C         -26.0370   51.4579   -8.5731 C.2     1  UNL1        0.2526
     17 O         -26.2574   52.6603   -8.8823 O.2     1  UNL1       -0.2697
     18 N         -24.7410   50.8742   -8.7985 N.am    1  UNL1       -0.2803
     19 H         -24.5887   49.8747   -8.5363 H       1  UNL1        0.1552
     20 C         -23.6615   51.5491   -9.4644 C.ar    1  UNL1        0.0506
     21 C         -23.7716   51.8290  -10.8325 C.ar    1  UNL1        0.0170
     22 C         -22.7267   52.4576  -11.5110 C.ar    1  UNL1        0.0309
     23 C         -21.5553   52.8046  -10.8337 C.ar    1  UNL1        0.1441
     24 F         -20.5480   53.4009  -11.5212 F       1  UNL1       -0.2042
     25 C         -21.4181   52.5230   -9.4614 C.ar    1  UNL1        0.1000
     26 C         -22.4719   51.8742   -8.7886 C.ar    1  UNL1        0.0208
     27 C         -20.1301   52.8638   -8.7500 C.3     1  UNL1        0.4207
     28 F         -19.8658   54.2122   -8.9036 F       1  UNL1       -0.1658
     29 F         -20.2495   52.5773   -7.4017 F       1  UNL1       -0.1658
     30 F         -19.0616   52.1414   -9.2532 F       1  UNL1       -0.1658
     31 N         -29.6699   47.3516   -3.8200 N.pl3   1  UNL1       -0.2814
     32 H         -29.6043   46.3115   -3.8902 H       1  UNL1        0.1551
     33 C         -30.0494   47.9271   -2.5577 C.ar    1  UNL1        0.0889
     34 C         -30.7989   49.1207   -2.5009 C.ar    1  UNL1        0.1543
     35 F         -31.1623   49.7701   -3.6355 F       1  UNL1       -0.2028
     36 C         -31.1530   49.6709   -1.2656 C.ar    1  UNL1        0.0310
     37 C         -30.7576   49.0493   -0.0803 C.ar    1  UNL1        0.0033
     38 C         -30.0006   47.8772   -0.1248 C.ar    1  UNL1        0.0128
     39 C         -29.6397   47.3164   -1.3554 C.ar    1  UNL1        0.0733
     40 CL        -28.7091   45.8239   -1.3630 Cl      1  UNL1       -0.0809
@<TRIPOS>BOND
     1     1     2    1
     2     2     3   ar
     3     3    31    1
     4    31    33    1
     5    33    34   ar
     6    34    35    1
     7    34    36   ar
     8    36    37   ar
     9    37    38   ar
    10    38    39   ar
    11    39    40    1
    12     3     4   ar
    13     4     5   ar
    14     5     6   ar
    15     6     7   ar
    16     7    16    1
    17    16    17    2
    18    16    18   am
    19    18    20    1
    20    20    21   ar
    21    21    22   ar
    22    22    23   ar
    23    23    24    1
    24    23    25   ar
    25    25    27    1
    26    27    28    1
    27    27    29    1
    28    27    30    1
    29    25    26   ar
    30     7     8   ar
    31     8     9   ar
    32     9    10   ar
    33     9    11    1
    34    11    12    1
    35    12    13    1
    36    13    14    1
    37    13    15    1
    38    10     2   ar
    39    39    33   ar
    40    10     5   ar
    41    26    20   ar
    42    15     8    1
    43    31    32    1
    44    18    19    1
@<TRIPOS>MOLECULE
*****
 40 44 0 0 0
SMALL
GASTEIGER

@<TRIPOS>ATOM
      1 C         -30.5053   48.3881   -5.9721 C.3     1  UNL1        0.1333
      2 N         -29.9088   47.3559   -6.8207 N.ar    1  UNL1       -0.2950
      3 C         -29.2704   46.2127   -6.4443 C.ar    1  UNL1        0.2019
      4 N         -28.9059   45.4226   -7.4860 N.ar    1  UNL1       -0.2134
      5 C         -29.3126   46.1299   -8.5551 C.ar    1  UNL1        0.1033
      6 C         -29.1625   45.7868   -9.8967 C.ar    1  UNL1        0.0284
      7 C         -29.6639   46.6731  -10.8771 C.ar    1  UNL1        0.0922
      8 C         -30.2662   47.8959  -10.4707 C.ar    1  UNL1        0.1792
      9 C         -30.3761   48.2206   -9.1020 C.ar    1  UNL1        0.1897
     10 C         -29.9086   47.2950   -8.1654 C.ar    1  UNL1        0.1173
     11 O         -30.9207   49.4539   -8.7304 O.3     1  UNL1       -0.4661
     12 C         -31.1090   50.4962   -9.6897 C.3     1  UNL1        0.2597
     13 C         -31.5840   49.9053  -11.0232 C.3     1  UNL1        0.2596
     14 I         -31.5782   51.3895  -12.5582 I       1  UNL1       -0.0223
     15 O         -30.7366   48.8219  -11.4093 O.3     1  UNL1       -0.4617
     16 C         -29.5318   46.3182  -12.3059 C.2     1  UNL1        0.2526
     17 O         -28.5569   45.6056  -12.6692 O.2     1  UNL1       -0.2697
     18 N         -30.4983   46.7752  -13.2694 N.am    1  UNL1       -0.2803
     19 H         -31.2931   47.3674  -12.9403 H       1  UNL1        0.1552
     20 C         -30.3850   46.5578  -14.6851 C.ar    1  UNL1        0.0506
     21 C         -30.6381   45.2808  -15.2022 C.ar    1  UNL1        0.0170
     22 C         -30.5076   45.0340  -16.5695 C.ar    1  UNL1        0.0309
     23 C         -30.1125   46.0568  -17.4350 C.ar    1  UNL1        0.1441
     24 F         -29.9780   45.7857  -18.7584 F       1  UNL1       -0.2042
     25 C         -29.8421   47.3449  -16.9361 C.ar    1  UNL1        0.1000
     26 C         -29.9614   47.5804  -15.5525 C.ar    1  UNL1        0.0208
     27 C         -29.3739   48.4310  -17.8754 C.3     1  UNL1        0.4207
     28 F         -28.2398   48.0029  -18.5403 F       1  UNL1       -0.1658
     29 F         -30.3635   48.7080  -18.8019 F       1  UNL1       -0.1658
     30 F         -29.0764   49.6005  -17.1970 F       1  UNL1       -0.1658
     31 N         -28.9983   45.8446   -5.0850 N.pl3   1  UNL1       -0.2814
     32 H         -29.2168   44.8638   -4.7999 H       1  UNL1        0.1551
     33 C         -28.3018   46.6871   -4.1504 C.ar    1  UNL1        0.0889
     34 C         -26.9621   47.0670   -4.3751 C.ar    1  UNL1        0.1543
     35 F         -26.2875   46.6290   -5.4679 F       1  UNL1       -0.2028
     36 C         -26.2972   47.8802   -3.4528 C.ar    1  UNL1        0.0310
     37 C         -26.9506   48.3121   -2.2977 C.ar    1  UNL1        0.0033
     38 C         -28.2708   47.9277   -2.0565 C.ar    1  UNL1        0.0128
     39 C         -28.9475   47.1138   -2.9724 C.ar    1  UNL1        0.0733
     40 CL        -30.6187   46.6772   -2.6407 Cl      1  UNL1       -0.0809
@<TRIPOS>BOND
     1     1     2    1
     2     2     3   ar
     3     3    31    1
     4    31    33    1
     5    33    34   ar
     6    34    35    1
     7    34    36   ar
     8    36    37   ar
     9    37    38   ar
    10    38    39   ar
    11    39    40    1
    12     3     4   ar
    13     4     5   ar
    14     5     6   ar
    15     6     7   ar
    16     7    16    1
    17    16    17    2
    18    16    18   am
    19    18    20    1
    20    20    21   ar
    21    21    22   ar
    22    22    23   ar
    23    23    24    1
    24    23    25   ar
    25    25    27    1
    26    27    28    1
    27    27    29    1
    28    27    30    1
    29    25    26   ar
    30     7     8   ar
    31     8     9   ar
    32     9    10   ar
    33     9    11    1
    34    11    12    1
    35    12    13    1
    36    13    14    1
    37    13    15    1
    38    10     2   ar
    39    39    33   ar
    40    10     5   ar
    41    26    20   ar
    42    15     8    1
    43    31    32    1
    44    18    19    1
@<TRIPOS>MOLECULE
*****
 40 44 0 0 0
SMALL
GASTEIGER

@<TRIPOS>ATOM
      1 C         -31.4875   50.1415   -8.5563 C.3     1  UNL1        0.1333
      2 N         -30.2780   50.3853   -7.7696 N.ar    1  UNL1       -0.2950
      3 C         -30.1316   50.3801   -6.4151 C.ar    1  UNL1        0.2019
      4 N         -28.8510   50.5619   -6.0036 N.ar    1  UNL1       -0.2134
      5 C         -28.1837   50.7174   -7.1610 C.ar    1  UNL1        0.1033
      6 C         -26.8217   50.9620   -7.3197 C.ar    1  UNL1        0.0284
      7 C         -26.3111   51.0943   -8.6311 C.ar    1  UNL1        0.0922
      8 C         -27.2004   51.0136   -9.7383 C.ar    1  UNL1        0.1792
      9 C         -28.5790   50.7912   -9.5356 C.ar    1  UNL1        0.1897
     10 C         -29.0335   50.6206   -8.2254 C.ar    1  UNL1        0.1173
     11 O         -29.4407   50.7727  -10.6369 O.3     1  UNL1       -0.4661
     12 C         -29.0129   51.2440  -11.9163 C.3     1  UNL1        0.2597
     13 C         -27.5581   50.8295  -12.1709 C.3     1  UNL1        0.2596
     14 I         -26.7937   51.7747  -13.9264 I       1  UNL1       -0.0223
     15 O         -26.7443   51.1822  -11.0511 O.3     1  UNL1       -0.4617
     16 C         -24.8652   51.3350   -8.8217 C.2     1  UNL1        0.2526
     17 O         -24.0529   50.8636   -7.9803 O.2     1  UNL1       -0.2697
     18 N         -24.3883   52.0929   -9.9484 N.am    1  UNL1       -0.2803
     19 H         -25.0845   52.4745  -10.6269 H       1  UNL1        0.1552
     20 C         -23.0121   52.4538  -10.1483 C.ar    1  UNL1        0.0506
     21 C         -22.5699   52.7713  -11.4389 C.ar    1  UNL1        0.0170
     22 C         -21.2324   53.0974  -11.6669 C.ar    1  UNL1        0.0309
     23 C         -20.3183   53.1000  -10.6105 C.ar    1  UNL1        0.1441
     24 F         -19.0199   53.4055  -10.8627 F       1  UNL1       -0.2042
     25 C         -20.7379   52.7734   -9.3073 C.ar    1  UNL1        0.1000
     26 C         -22.0866   52.4304   -9.0897 C.ar    1  UNL1        0.0208
     27 C         -19.7318   52.7375   -8.1814 C.3     1  UNL1        0.4207
     28 F         -20.4003   52.6988   -6.9717 F       1  UNL1       -0.1658
     29 F         -18.9399   51.6088   -8.2964 F       1  UNL1       -0.1658
     30 F         -18.9064   53.8489   -8.1976 F       1  UNL1       -0.1658
     31 N         -31.2062   50.1963   -5.4831 N.pl3   1  UNL1       -0.2814
     32 H         -32.1743   50.3960   -5.8206 H       1  UNL1        0.1551
     33 C         -31.0462   49.6064   -4.1812 C.ar    1  UNL1        0.0889
     34 C         -31.2517   50.3659   -3.0105 C.ar    1  UNL1        0.1543
     35 F         -31.5835   51.6797   -3.0816 F       1  UNL1       -0.2028
     36 C         -31.0846   49.7793   -1.7528 C.ar    1  UNL1        0.0310
     37 C         -30.7021   48.4413   -1.6469 C.ar    1  UNL1        0.0033
     38 C         -30.4789   47.6850   -2.7989 C.ar    1  UNL1        0.0128
     39 C         -30.6430   48.2609   -4.0640 C.ar    1  UNL1        0.0733
     40 CL        -30.3778   47.2624   -5.4874 Cl      1  UNL1       -0.0809
@<TRIPOS>BOND
     1     1     2    1
     2     2     3   ar
     3     3    31    1
     4    31    33    1
     5    33    34   ar
     6    34    35    1
     7    34    36   ar
     8    36    37   ar
     9    37    38   ar
    10    38    39   ar
    11    39    40    1
    12     3     4   ar
    13     4     5   ar
    14     5     6   ar
    15     6     7   ar
    16     7    16    1
    17    16    17    2
    18    16    18   am
    19    18    20    1
    20    20    21   ar
    21    21    22   ar
    22    22    23   ar
    23    23    24    1
    24    23    25   ar
    25    25    27    1
    26    27    28    1
    27    27    29    1
    28    27    30    1
    29    25    26   ar
    30     7     8   ar
    31     8     9   ar
    32     9    10   ar
    33     9    11    1
    34    11    12    1
    35    12    13    1
    36    13    14    1
    37    13    15    1
    38    10     2   ar
    39    39    33   ar
    40    10     5   ar
    41    26    20   ar
    42    15     8    1
    43    31    32    1
    44    18    19    1
@<TRIPOS>MOLECULE
*****
 40 44 0 0 0
SMALL
GASTEIGER

@<TRIPOS>ATOM
      1 C         -30.4734   49.6525  -14.2181 C.3     1  UNL1        0.1333
      2 N         -30.4713   48.3153  -13.6240 N.ar    1  UNL1       -0.2950
      3 C         -30.8239   47.1312  -14.1983 C.ar    1  UNL1        0.2019
      4 N         -30.6266   46.0548  -13.3954 N.ar    1  UNL1       -0.2134
      5 C         -30.1594   46.6081  -12.2620 C.ar    1  UNL1        0.1033
      6 C         -29.8129   45.9484  -11.0853 C.ar    1  UNL1        0.0284
      7 C         -29.3374   46.7175   -9.9987 C.ar    1  UNL1        0.0922
      8 C         -29.2644   48.1325  -10.1237 C.ar    1  UNL1        0.1792
      9 C         -29.6500   48.7669  -11.3236 C.ar    1  UNL1        0.1897
     10 C         -30.0703   47.9649  -12.3877 C.ar    1  UNL1        0.1173
     11 O         -29.6227   50.1629  -11.4017 O.3     1  UNL1       -0.4661
     12 C         -29.4848   50.9650  -10.2270 C.3     1  UNL1        0.2597
     13 C         -28.4974   50.3084   -9.2539 C.3     1  UNL1        0.2596
     14 I         -28.5028   51.3143   -7.3704 I       1  UNL1       -0.0223
     15 O         -28.8409   48.9357   -9.0582 O.3     1  UNL1       -0.4617
     16 C         -28.9462   46.0345   -8.7476 C.2     1  UNL1        0.2526
     17 O         -28.6003   44.8229   -8.7973 O.2     1  UNL1       -0.2697
     18 N         -28.9571   46.7375   -7.4918 N.am    1  UNL1       -0.2803
     19 H         -29.2521   47.7393   -7.4805 H       1  UNL1        0.1552
     20 C         -28.6883   46.1188   -6.2233 C.ar    1  UNL1        0.0506
     21 C         -29.6902   45.3563   -5.6094 C.ar    1  UNL1        0.0170
     22 C         -29.4667   44.7680   -4.3639 C.ar    1  UNL1        0.0309
     23 C         -28.2437   44.9429   -3.7119 C.ar    1  UNL1        0.1441
     24 F         -28.0582   44.3727   -2.4940 F       1  UNL1       -0.2042
     25 C         -27.2264   45.7141   -4.3048 C.ar    1  UNL1        0.1000
     26 C         -27.4669   46.3170   -5.5549 C.ar    1  UNL1        0.0208
     27 C         -25.9246   45.9317   -3.5707 C.3     1  UNL1        0.4207
     28 F         -25.0583   46.6459   -4.3777 F       1  UNL1       -0.1658
     29 F         -26.1553   46.6484   -2.4099 F       1  UNL1       -0.1658
     30 F         -25.3247   44.7323   -3.2270 F       1  UNL1       -0.1658
     31 N         -31.3509   46.9978  -15.5255 N.pl3   1  UNL1       -0.2814
     32 H         -32.2096   47.5449  -15.7587 H       1  UNL1        0.1551
     33 C         -30.6832   46.2921  -16.5861 C.ar    1  UNL1        0.0889
     34 C         -30.6721   44.8821  -16.6244 C.ar    1  UNL1        0.1543
     35 F         -31.2717   44.1537  -15.6492 F       1  UNL1       -0.2028
     36 C         -30.0120   44.2115  -17.6582 C.ar    1  UNL1        0.0310
     37 C         -29.3497   44.9324  -18.6528 C.ar    1  UNL1        0.0033
     38 C         -29.3394   46.3279  -18.6151 C.ar    1  UNL1        0.0128
     39 C         -29.9967   47.0109  -17.5853 C.ar    1  UNL1        0.0733
     40 CL        -29.9806   48.7697  -17.5934 Cl      1  UNL1       -0.0809
@<TRIPOS>BOND
     1     1     2    1
     2     2     3   ar
     3     3    31    1
     4    31    33    1
     5    33    34   ar
     6    34    35    1
     7    34    36   ar
     8    36    37   ar
     9    37    38   ar
    10    38    39   ar
    11    39    40    1
    12     3     4   ar
    13     4     5   ar
    14     5     6   ar
    15     6     7   ar
    16     7    16    1
    17    16    17    2
    18    16    18   am
    19    18    20    1
    20    20    21   ar
    21    21    22   ar
    22    22    23   ar
    23    23    24    1
    24    23    25   ar
    25    25    27    1
    26    27    28    1
    27    27    29    1
    28    27    30    1
    29    25    26   ar
    30     7     8   ar
    31     8     9   ar
    32     9    10   ar
    33     9    11    1
    34    11    12    1
    35    12    13    1
    36    13    14    1
    37    13    15    1
    38    10     2   ar
    39    39    33   ar
    40    10     5   ar
    41    26    20   ar
    42    15     8    1
    43    31    32    1
    44    18    19    1
